MODEL 1
REMARK VINA RESULT:      -8.7      0.000      0.000
REMARK  6 active torsions:
REMARK  status: ('A' for Active; 'I' for Inactive)
REMARK    1  A    between atoms: N_2  and  C_27 
REMARK       I    between atoms: N_2  and  C_3 
REMARK    2  A    between atoms: C_3  and  C_5 
REMARK    3  A    between atoms: C_5  and  C_6 
REMARK    4  A    between atoms: C_6  and  N_7 
REMARK    5  A    between atoms: C_11  and  C_12 
REMARK    6  A    between atoms: C_12  and  C_14 
REMARK       I    between atoms: C_25  and  N_26 
ROOT
HETATM    1  N   UNK N   1      35.952  14.136  10.534  0.00  0.00    -0.213 N 
HETATM    2  C   UNK N   1      35.104  13.697  11.625  0.00  0.00     0.182 C 
HETATM    3  C   UNK N   1      35.799  12.794  12.575  0.00  0.00    -0.011 A 
HETATM    4  C   UNK N   1      35.081  12.238  13.631  0.00  0.00     0.026 A 
HETATM    5  C   UNK N   1      35.732  11.440  14.575  0.00  0.00     0.015 A 
HETATM    6  C   UNK N   1      37.100  11.169  14.416  0.00  0.00     0.018 A 
HETATM    7  C   UNK N   1      37.812  11.700  13.345  0.00  0.00     0.031 A 
HETATM    8  C   UNK N   1      37.170  12.534  12.437  0.00  0.00     0.057 A 
HETATM    9  N   UNK N   1      37.912  13.124  11.389  0.00  0.00    -0.192 N 
ATOM     10  HN  UNK N   1      38.916  12.951  11.335  1.00  0.00     0.184 HD
HETATM   11  C   UNK N   1      37.361  13.873  10.503  0.00  0.00     0.674 C 
HETATM   12  N   UNK N   1      38.149  14.374   9.441  0.00  0.00    -0.235 N 
HETATM   13  H   UNK N   1      37.724  14.708   8.618  0.00  0.00     0.174 HD
HETATM   14  H   UNK N   1      39.130  14.390   9.524  0.00  0.00     0.174 HD
ENDROOT
BRANCH   1  15
HETATM   15  C   UNK N   1      35.295  14.450   9.307  0.00  0.00     0.150 C 
BRANCH  15  16
HETATM   16  C   UNK N   1      34.795  15.878   9.443  0.00  0.00     0.123 C 
BRANCH  16  17
HETATM   17  C   UNK N   1      33.351  15.960   9.120  0.00  0.00     0.221 C 
HETATM   18  N   UNK N   1      32.834  17.029   8.451  0.00  0.00    -0.352 N 
HETATM   19  C   UNK N   1      33.680  18.126   8.026  0.00  0.00     0.153 C 
HETATM   20  O   UNK N   1      32.625  15.045   9.481  0.00  0.00    -0.273 OA
BRANCH  18  21
HETATM   21  C   UNK N   1      31.408  17.089   8.234  0.00  0.00     0.086 C 
HETATM   22  C   UNK N   1      31.013  17.062   6.759  0.00  0.00     0.025 C 
HETATM   23  C   UNK N   1      29.491  17.015   6.654  0.00  0.00     0.002 C 
HETATM   24  C   UNK N   1      28.857  18.188   7.405  0.00  0.00     0.000 C 
HETATM   25  C   UNK N   1      29.292  18.199   8.868  0.00  0.00     0.002 C 
HETATM   26  C   UNK N   1      30.808  18.289   8.955  0.00  0.00     0.025 C 
ENDBRANCH  18  21
ENDBRANCH  16  17
ENDBRANCH  15  16
ENDBRANCH   1  15
BRANCH   5  27
HETATM   27  C   UNK N   1      34.995  11.001  15.784  0.00  0.00     0.192 C 
HETATM   28  O   UNK N   1      34.138  10.134  15.679  0.00  0.00    -0.287 OA
BRANCH  27  29
HETATM   29  C   UNK N   1      35.160  11.706  17.086  0.00  0.00     0.015 A 
HETATM   30  C   UNK N   1      35.232  10.973  18.278  0.00  0.00     0.015 A 
HETATM   31  C   UNK N   1      35.278  11.633  19.511  0.00  0.00     0.001 A 
HETATM   32  C   UNK N   1      35.238  13.030  19.562  0.00  0.00     0.000 A 
HETATM   33  C   UNK N   1      35.161  13.768  18.382  0.00  0.00     0.001 A 
HETATM   34  C   UNK N   1      35.118  13.109  17.156  0.00  0.00     0.015 A 
ENDBRANCH  27  29
ENDBRANCH   5  27
TORSDOF 6
ENDMDL
MODEL 2
REMARK VINA RESULT:      -8.6      1.862      9.622
REMARK  6 active torsions:
REMARK  status: ('A' for Active; 'I' for Inactive)
REMARK    1  A    between atoms: N_2  and  C_27 
REMARK       I    between atoms: N_2  and  C_3 
REMARK    2  A    between atoms: C_3  and  C_5 
REMARK    3  A    between atoms: C_5  and  C_6 
REMARK    4  A    between atoms: C_6  and  N_7 
REMARK    5  A    between atoms: C_11  and  C_12 
REMARK    6  A    between atoms: C_12  and  C_14 
REMARK       I    between atoms: C_25  and  N_26 
ROOT
HETATM    1  N   UNK N   1      36.190  12.574  10.468  0.00  0.00    -0.213 N 
HETATM    2  C   UNK N   1      34.928  12.887   9.829  0.00  0.00     0.182 C 
HETATM    3  C   UNK N   1      34.674  14.345   9.723  0.00  0.00    -0.011 A 
HETATM    4  C   UNK N   1      33.464  14.787   9.195  0.00  0.00     0.026 A 
HETATM    5  C   UNK N   1      33.233  16.154   9.024  0.00  0.00     0.015 A 
HETATM    6  C   UNK N   1      34.214  17.071   9.435  0.00  0.00     0.018 A 
HETATM    7  C   UNK N   1      35.413  16.631   9.990  0.00  0.00     0.031 A 
HETATM    8  C   UNK N   1      35.656  15.268  10.111  0.00  0.00     0.057 A 
HETATM    9  N   UNK N   1      36.901  14.826  10.613  0.00  0.00    -0.192 N 
ATOM     10  HN  UNK N   1      37.612  15.518  10.849  1.00  0.00     0.184 HD
HETATM   11  C   UNK N   1      37.163  13.580  10.778  0.00  0.00     0.674 C 
HETATM   12  N   UNK N   1      38.403  13.210  11.351  0.00  0.00    -0.235 N 
HETATM   13  H   UNK N   1      38.526  12.314  11.740  0.00  0.00     0.174 HD
HETATM   14  H   UNK N   1      39.149  13.852  11.361  0.00  0.00     0.174 HD
ENDROOT
BRANCH   1  15
HETATM   15  C   UNK N   1      36.259  11.329  11.162  0.00  0.00     0.150 C 
BRANCH  15  16
HETATM   16  C   UNK N   1      35.100  11.324  12.145  0.00  0.00     0.123 C 
BRANCH  16  17
HETATM   17  C   UNK N   1      35.578  11.591  13.521  0.00  0.00     0.221 C 
HETATM   18  N   UNK N   1      34.793  11.341  14.606  0.00  0.00    -0.352 N 
HETATM   19  C   UNK N   1      33.458  10.798  14.454  0.00  0.00     0.153 C 
HETATM   20  O   UNK N   1      36.700  12.058  13.662  0.00  0.00    -0.273 OA
BRANCH  18  21
HETATM   21  C   UNK N   1      35.284  11.695  15.916  0.00  0.00     0.086 C 
HETATM   22  C   UNK N   1      35.110  10.587  16.953  0.00  0.00     0.025 C 
HETATM   23  C   UNK N   1      35.764  11.026  18.261  0.00  0.00     0.002 C 
HETATM   24  C   UNK N   1      35.190  12.363  18.736  0.00  0.00     0.000 C 
HETATM   25  C   UNK N   1      35.357  13.440  17.667  0.00  0.00     0.002 C 
HETATM   26  C   UNK N   1      34.665  13.006  16.383  0.00  0.00     0.025 C 
ENDBRANCH  18  21
ENDBRANCH  16  17
ENDBRANCH  15  16
ENDBRANCH   1  15
BRANCH   5  27
HETATM   27  C   UNK N   1      32.017  16.599   8.304  0.00  0.00     0.192 C 
HETATM   28  O   UNK N   1      30.945  16.611   8.893  0.00  0.00    -0.287 OA
BRANCH  27  29
HETATM   29  C   UNK N   1      32.044  16.871   6.839  0.00  0.00     0.015 A 
HETATM   30  C   UNK N   1      33.259  17.163   6.202  0.00  0.00     0.015 A 
HETATM   31  C   UNK N   1      33.277  17.524   4.850  0.00  0.00     0.001 A 
HETATM   32  C   UNK N   1      32.081  17.610   4.130  0.00  0.00     0.000 A 
HETATM   33  C   UNK N   1      30.868  17.328   4.756  0.00  0.00     0.001 A 
HETATM   34  C   UNK N   1      30.853  16.966   6.100  0.00  0.00     0.015 A 
ENDBRANCH  27  29
ENDBRANCH   5  27
TORSDOF 6
ENDMDL
MODEL 3
REMARK VINA RESULT:      -8.5      1.921      2.828
REMARK  6 active torsions:
REMARK  status: ('A' for Active; 'I' for Inactive)
REMARK    1  A    between atoms: N_2  and  C_27 
REMARK       I    between atoms: N_2  and  C_3 
REMARK    2  A    between atoms: C_3  and  C_5 
REMARK    3  A    between atoms: C_5  and  C_6 
REMARK    4  A    between atoms: C_6  and  N_7 
REMARK    5  A    between atoms: C_11  and  C_12 
REMARK    6  A    between atoms: C_12  and  C_14 
REMARK       I    between atoms: C_25  and  N_26 
ROOT
HETATM    1  N   UNK N   1      36.087  13.920  11.354  0.00  0.00    -0.213 N 
HETATM    2  C   UNK N   1      36.267  14.207  12.763  0.00  0.00     0.182 C 
HETATM    3  C   UNK N   1      35.515  13.282  13.647  0.00  0.00    -0.011 A 
HETATM    4  C   UNK N   1      35.539  13.489  15.024  0.00  0.00     0.026 A 
HETATM    5  C   UNK N   1      34.894  12.590  15.876  0.00  0.00     0.015 A 
HETATM    6  C   UNK N   1      34.184  11.512  15.325  0.00  0.00     0.018 A 
HETATM    7  C   UNK N   1      34.134  11.321  13.948  0.00  0.00     0.031 A 
HETATM    8  C   UNK N   1      34.820  12.190  13.107  0.00  0.00     0.057 A 
HETATM    9  N   UNK N   1      34.822  11.954  11.714  0.00  0.00    -0.192 N 
ATOM     10  HN  UNK N   1      34.342  11.129  11.352  1.00  0.00     0.184 HD
HETATM   11  C   UNK N   1      35.409  12.745  10.891  0.00  0.00     0.674 C 
HETATM   12  N   UNK N   1      35.312  12.488   9.503  0.00  0.00    -0.235 N 
HETATM   13  H   UNK N   1      35.503  13.198   8.849  0.00  0.00     0.174 HD
HETATM   14  H   UNK N   1      35.051  11.592   9.188  0.00  0.00     0.174 HD
ENDROOT
BRANCH   1  15
HETATM   15  C   UNK N   1      36.212  15.026  10.460  0.00  0.00     0.150 C 
BRANCH  15  16
HETATM   16  C   UNK N   1      35.163  16.040  10.885  0.00  0.00     0.123 C 
BRANCH  16  17
HETATM   17  C   UNK N   1      34.574  16.710   9.703  0.00  0.00     0.221 C 
HETATM   18  N   UNK N   1      33.468  16.212   9.084  0.00  0.00    -0.352 N 
HETATM   19  C   UNK N   1      32.822  15.005   9.562  0.00  0.00     0.153 C 
HETATM   20  O   UNK N   1      35.115  17.724   9.284  0.00  0.00    -0.273 OA
BRANCH  18  21
HETATM   21  C   UNK N   1      32.986  16.864   7.890  0.00  0.00     0.086 C 
HETATM   22  C   UNK N   1      31.528  16.544   7.565  0.00  0.00     0.025 C 
HETATM   23  C   UNK N   1      31.095  17.372   6.358  0.00  0.00     0.002 C 
HETATM   24  C   UNK N   1      32.025  17.127   5.167  0.00  0.00     0.000 C 
HETATM   25  C   UNK N   1      33.475  17.432   5.533  0.00  0.00     0.002 C 
HETATM   26  C   UNK N   1      33.903  16.569   6.711  0.00  0.00     0.025 C 
ENDBRANCH  18  21
ENDBRANCH  16  17
ENDBRANCH  15  16
ENDBRANCH   1  15
BRANCH   5  27
HETATM   27  C   UNK N   1      35.074  12.725  17.342  0.00  0.00     0.192 C 
HETATM   28  O   UNK N   1      34.988  13.832  17.854  0.00  0.00    -0.287 OA
BRANCH  27  29
HETATM   29  C   UNK N   1      35.521  11.572  18.172  0.00  0.00     0.015 A 
HETATM   30  C   UNK N   1      35.371  11.610  19.566  0.00  0.00     0.015 A 
HETATM   31  C   UNK N   1      35.884  10.579  20.359  0.00  0.00     0.001 A 
HETATM   32  C   UNK N   1      36.564   9.509  19.768  0.00  0.00     0.000 A 
HETATM   33  C   UNK N   1      36.724   9.465  18.384  0.00  0.00     0.001 A 
HETATM   34  C   UNK N   1      36.209  10.491  17.596  0.00  0.00     0.015 A 
ENDBRANCH  27  29
ENDBRANCH   5  27
TORSDOF 6
ENDMDL
MODEL 4
REMARK VINA RESULT:      -8.5      1.948      9.441
REMARK  6 active torsions:
REMARK  status: ('A' for Active; 'I' for Inactive)
REMARK    1  A    between atoms: N_2  and  C_27 
REMARK       I    between atoms: N_2  and  C_3 
REMARK    2  A    between atoms: C_3  and  C_5 
REMARK    3  A    between atoms: C_5  and  C_6 
REMARK    4  A    between atoms: C_6  and  N_7 
REMARK    5  A    between atoms: C_11  and  C_12 
REMARK    6  A    between atoms: C_12  and  C_14 
REMARK       I    between atoms: C_25  and  N_26 
ROOT
HETATM    1  N   UNK N   1      36.221  13.107  10.831  0.00  0.00    -0.213 N 
HETATM    2  C   UNK N   1      35.393  14.254  10.515  0.00  0.00     0.182 C 
HETATM    3  C   UNK N   1      35.395  14.593   9.070  0.00  0.00    -0.011 A 
HETATM    4  C   UNK N   1      34.699  15.718   8.636  0.00  0.00     0.026 A 
HETATM    5  C   UNK N   1      34.633  16.015   7.273  0.00  0.00     0.015 A 
HETATM    6  C   UNK N   1      35.314  15.197   6.359  0.00  0.00     0.018 A 
HETATM    7  C   UNK N   1      36.034  14.088   6.794  0.00  0.00     0.031 A 
HETATM    8  C   UNK N   1      36.055  13.769   8.147  0.00  0.00     0.057 A 
HETATM    9  N   UNK N   1      36.732  12.605   8.576  0.00  0.00    -0.192 N 
ATOM     10  HN  UNK N   1      37.169  12.002   7.880  1.00  0.00     0.184 HD
HETATM   11  C   UNK N   1      36.812  12.284   9.817  0.00  0.00     0.674 C 
HETATM   12  N   UNK N   1      37.565  11.144  10.184  0.00  0.00    -0.235 N 
HETATM   13  H   UNK N   1      37.874  11.027  11.111  0.00  0.00     0.174 HD
HETATM   14  H   UNK N   1      37.782  10.462   9.508  0.00  0.00     0.174 HD
ENDROOT
BRANCH   1  15
HETATM   15  C   UNK N   1      36.782  13.072  12.143  0.00  0.00     0.150 C 
BRANCH  15  16
HETATM   16  C   UNK N   1      36.031  14.113  12.957  0.00  0.00     0.123 C 
BRANCH  16  17
HETATM   17  C   UNK N   1      35.464  13.510  14.185  0.00  0.00     0.221 C 
HETATM   18  N   UNK N   1      36.005  13.756  15.411  0.00  0.00    -0.352 N 
HETATM   19  C   UNK N   1      37.156  14.625  15.560  0.00  0.00     0.153 C 
HETATM   20  O   UNK N   1      34.499  12.768  14.072  0.00  0.00    -0.273 OA
BRANCH  18  21
HETATM   21  C   UNK N   1      35.458  13.078  16.561  0.00  0.00     0.086 C 
HETATM   22  C   UNK N   1      35.634  13.851  17.867  0.00  0.00     0.025 C 
HETATM   23  C   UNK N   1      34.922  13.099  18.988  0.00  0.00     0.002 C 
HETATM   24  C   UNK N   1      35.433  11.660  19.090  0.00  0.00     0.000 C 
HETATM   25  C   UNK N   1      35.265  10.925  17.762  0.00  0.00     0.002 C 
HETATM   26  C   UNK N   1      36.015  11.664  16.665  0.00  0.00     0.025 C 
ENDBRANCH  18  21
ENDBRANCH  16  17
ENDBRANCH  15  16
ENDBRANCH   1  15
BRANCH   5  27
HETATM   27  C   UNK N   1      33.748  17.112   6.813  0.00  0.00     0.192 C 
HETATM   28  O   UNK N   1      34.219  18.017   6.139  0.00  0.00    -0.287 OA
BRANCH  27  29
HETATM   29  C   UNK N   1      32.341  17.220   7.293  0.00  0.00     0.015 A 
HETATM   30  C   UNK N   1      31.302  16.628   6.560  0.00  0.00     0.015 A 
HETATM   31  C   UNK N   1      29.971  16.816   6.947  0.00  0.00     0.001 A 
HETATM   32  C   UNK N   1      29.667  17.609   8.058  0.00  0.00     0.000 A 
HETATM   33  C   UNK N   1      30.692  18.206   8.790  0.00  0.00     0.001 A 
HETATM   34  C   UNK N   1      32.017  18.015   8.405  0.00  0.00     0.015 A 
ENDBRANCH  27  29
ENDBRANCH   5  27
TORSDOF 6
ENDMDL
MODEL 5
REMARK VINA RESULT:      -8.4      1.718      9.468
REMARK  6 active torsions:
REMARK  status: ('A' for Active; 'I' for Inactive)
REMARK    1  A    between atoms: N_2  and  C_27 
REMARK       I    between atoms: N_2  and  C_3 
REMARK    2  A    between atoms: C_3  and  C_5 
REMARK    3  A    between atoms: C_5  and  C_6 
REMARK    4  A    between atoms: C_6  and  N_7 
REMARK    5  A    between atoms: C_11  and  C_12 
REMARK    6  A    between atoms: C_12  and  C_14 
REMARK       I    between atoms: C_25  and  N_26 
ROOT
HETATM    1  N   UNK N   1      35.673  13.004  10.405  0.00  0.00    -0.213 N 
HETATM    2  C   UNK N   1      34.460  13.156   9.626  0.00  0.00     0.182 C 
HETATM    3  C   UNK N   1      34.185  14.563   9.244  0.00  0.00    -0.011 A 
HETATM    4  C   UNK N   1      33.012  14.862   8.556  0.00  0.00     0.026 A 
HETATM    5  C   UNK N   1      32.767  16.169   8.129  0.00  0.00     0.015 A 
HETATM    6  C   UNK N   1      33.691  17.178   8.445  0.00  0.00     0.018 A 
HETATM    7  C   UNK N   1      34.849  16.885   9.158  0.00  0.00     0.031 A 
HETATM    8  C   UNK N   1      35.111  15.574   9.537  0.00  0.00     0.057 A 
HETATM    9  N   UNK N   1      36.321  15.271  10.203  0.00  0.00    -0.192 N 
ATOM     10  HN  UNK N   1      36.995  16.018  10.367  1.00  0.00     0.184 HD
HETATM   11  C   UNK N   1      36.596  14.083  10.606  0.00  0.00     0.674 C 
HETATM   12  N   UNK N   1      37.792  13.863  11.328  0.00  0.00    -0.235 N 
HETATM   13  H   UNK N   1      37.902  13.053  11.878  0.00  0.00     0.174 HD
HETATM   14  H   UNK N   1      38.521  14.523  11.282  0.00  0.00     0.174 HD
ENDROOT
BRANCH   1  15
HETATM   15  C   UNK N   1      35.712  11.903  11.312  0.00  0.00     0.150 C 
BRANCH  15  16
HETATM   16  C   UNK N   1      34.606  12.145  12.326  0.00  0.00     0.123 C 
BRANCH  16  17
HETATM   17  C   UNK N   1      35.170  12.320  13.684  0.00  0.00     0.221 C 
HETATM   18  N   UNK N   1      34.657  11.655  14.756  0.00  0.00    -0.352 N 
HETATM   19  C   UNK N   1      33.538  10.746  14.607  0.00  0.00     0.153 C 
HETATM   20  O   UNK N   1      36.109  13.092  13.825  0.00  0.00    -0.273 OA
BRANCH  18  21
HETATM   21  C   UNK N   1      35.197  11.926  16.067  0.00  0.00     0.086 C 
HETATM   22  C   UNK N   1      35.125  10.731  17.016  0.00  0.00     0.025 C 
HETATM   23  C   UNK N   1      35.824  11.094  18.324  0.00  0.00     0.002 C 
HETATM   24  C   UNK N   1      35.217  12.360  18.933  0.00  0.00     0.000 C 
HETATM   25  C   UNK N   1      35.283  13.526  17.950  0.00  0.00     0.002 C 
HETATM   26  C   UNK N   1      34.546  13.164  16.669  0.00  0.00     0.025 C 
ENDBRANCH  18  21
ENDBRANCH  16  17
ENDBRANCH  15  16
ENDBRANCH   1  15
BRANCH   5  27
HETATM   27  C   UNK N   1      31.604  16.438   7.250  0.00  0.00     0.192 C 
HETATM   28  O   UNK N   1      31.694  16.207   6.052  0.00  0.00    -0.287 OA
BRANCH  27  29
HETATM   29  C   UNK N   1      30.393  17.135   7.766  0.00  0.00     0.015 A 
HETATM   30  C   UNK N   1      29.350  17.472   6.892  0.00  0.00     0.015 A 
HETATM   31  C   UNK N   1      28.260  18.221   7.349  0.00  0.00     0.001 A 
HETATM   32  C   UNK N   1      28.211  18.650   8.679  0.00  0.00     0.000 A 
HETATM   33  C   UNK N   1      29.245  18.325   9.555  0.00  0.00     0.001 A 
HETATM   34  C   UNK N   1      30.328  17.578   9.098  0.00  0.00     0.015 A 
ENDBRANCH  27  29
ENDBRANCH   5  27
TORSDOF 6
ENDMDL
MODEL 6
REMARK VINA RESULT:      -8.4     18.364     21.400
REMARK  6 active torsions:
REMARK  status: ('A' for Active; 'I' for Inactive)
REMARK    1  A    between atoms: N_2  and  C_27 
REMARK       I    between atoms: N_2  and  C_3 
REMARK    2  A    between atoms: C_3  and  C_5 
REMARK    3  A    between atoms: C_5  and  C_6 
REMARK    4  A    between atoms: C_6  and  N_7 
REMARK    5  A    between atoms: C_11  and  C_12 
REMARK    6  A    between atoms: C_12  and  C_14 
REMARK       I    between atoms: C_25  and  N_26 
ROOT
HETATM    1  N   UNK N   1      26.670  27.193  -4.418  0.00  0.00    -0.213 N 
HETATM    2  C   UNK N   1      26.993  25.974  -3.702  0.00  0.00     0.182 C 
HETATM    3  C   UNK N   1      28.419  25.586  -3.828  0.00  0.00    -0.011 A 
HETATM    4  C   UNK N   1      28.852  24.395  -3.251  0.00  0.00     0.026 A 
HETATM    5  C   UNK N   1      30.203  24.045  -3.300  0.00  0.00     0.015 A 
HETATM    6  C   UNK N   1      31.103  24.882  -3.978  0.00  0.00     0.018 A 
HETATM    7  C   UNK N   1      30.667  26.058  -4.581  0.00  0.00     0.031 A 
HETATM    8  C   UNK N   1      29.330  26.425  -4.486  0.00  0.00     0.057 A 
HETATM    9  N   UNK N   1      28.905  27.653  -5.042  0.00  0.00    -0.192 N 
ATOM     10  HN  UNK N   1      29.595  28.264  -5.478  1.00  0.00     0.184 HD
HETATM   11  C   UNK N   1      27.676  28.023  -5.013  0.00  0.00     0.674 C 
HETATM   12  N   UNK N   1      27.307  29.231  -5.651  0.00  0.00    -0.235 N 
HETATM   13  H   UNK N   1      26.367  29.405  -5.886  0.00  0.00     0.174 HD
HETATM   14  H   UNK N   1      27.995  29.903  -5.861  0.00  0.00     0.174 HD
ENDROOT
BRANCH   1  15
HETATM   15  C   UNK N   1      25.326  27.318  -4.883  0.00  0.00     0.150 C 
BRANCH  15  16
HETATM   16  C   UNK N   1      25.317  26.792  -6.309  0.00  0.00     0.123 C 
BRANCH  16  17
HETATM   17  C   UNK N   1      25.665  25.352  -6.337  0.00  0.00     0.221 C 
HETATM   18  N   UNK N   1      26.727  24.894  -7.057  0.00  0.00    -0.352 N 
HETATM   19  C   UNK N   1      27.561  25.801  -7.821  0.00  0.00     0.153 C 
HETATM   20  O   UNK N   1      24.964  24.575  -5.704  0.00  0.00    -0.273 OA
BRANCH  18  21
HETATM   21  C   UNK N   1      26.969  23.472  -7.110  0.00  0.00     0.086 C 
HETATM   22  C   UNK N   1      28.445  23.099  -6.977  0.00  0.00     0.025 C 
HETATM   23  C   UNK N   1      28.569  21.578  -6.931  0.00  0.00     0.002 C 
HETATM   24  C   UNK N   1      27.916  20.940  -8.158  0.00  0.00     0.000 C 
HETATM   25  C   UNK N   1      26.450  21.353  -8.275  0.00  0.00     0.002 C 
HETATM   26  C   UNK N   1      26.347  22.868  -8.362  0.00  0.00     0.025 C 
ENDBRANCH  18  21
ENDBRANCH  16  17
ENDBRANCH  15  16
ENDBRANCH   1  15
BRANCH   5  27
HETATM   27  C   UNK N   1      30.674  22.867  -2.533  0.00  0.00     0.192 C 
HETATM   28  O   UNK N   1      30.582  22.872  -1.314  0.00  0.00    -0.287 OA
BRANCH  27  29
HETATM   29  C   UNK N   1      31.405  21.754  -3.202  0.00  0.00     0.015 A 
HETATM   30  C   UNK N   1      32.743  21.495  -2.873  0.00  0.00     0.015 A 
HETATM   31  C   UNK N   1      33.466  20.523  -3.574  0.00  0.00     0.001 A 
HETATM   32  C   UNK N   1      32.862  19.814  -4.617  0.00  0.00     0.000 A 
HETATM   33  C   UNK N   1      31.534  20.068  -4.956  0.00  0.00     0.001 A 
HETATM   34  C   UNK N   1      30.816  21.034  -4.255  0.00  0.00     0.015 A 
ENDBRANCH  27  29
ENDBRANCH   5  27
TORSDOF 6
ENDMDL
MODEL 7
REMARK VINA RESULT:      -8.4      2.246     10.134
REMARK  6 active torsions:
REMARK  status: ('A' for Active; 'I' for Inactive)
REMARK    1  A    between atoms: N_2  and  C_27 
REMARK       I    between atoms: N_2  and  C_3 
REMARK    2  A    between atoms: C_3  and  C_5 
REMARK    3  A    between atoms: C_5  and  C_6 
REMARK    4  A    between atoms: C_6  and  N_7 
REMARK    5  A    between atoms: C_11  and  C_12 
REMARK    6  A    between atoms: C_12  and  C_14 
REMARK       I    between atoms: C_25  and  N_26 
ROOT
HETATM    1  N   UNK N   1      35.942  13.341  11.248  0.00  0.00    -0.213 N 
HETATM    2  C   UNK N   1      35.455  14.645  10.844  0.00  0.00     0.182 C 
HETATM    3  C   UNK N   1      35.318  14.786   9.374  0.00  0.00    -0.011 A 
HETATM    4  C   UNK N   1      34.929  16.013   8.843  0.00  0.00     0.026 A 
HETATM    5  C   UNK N   1      34.728  16.148   7.467  0.00  0.00     0.015 A 
HETATM    6  C   UNK N   1      34.971  15.048   6.630  0.00  0.00     0.018 A 
HETATM    7  C   UNK N   1      35.388  13.829   7.155  0.00  0.00     0.031 A 
HETATM    8  C   UNK N   1      35.537  13.688   8.530  0.00  0.00     0.057 A 
HETATM    9  N   UNK N   1      35.896  12.430   9.065  0.00  0.00    -0.192 N 
ATOM     10  HN  UNK N   1      36.010  11.638   8.432  1.00  0.00     0.184 HD
HETATM   11  C   UNK N   1      36.082  12.254  10.323  0.00  0.00     0.674 C 
HETATM   12  N   UNK N   1      36.509  10.986  10.784  0.00  0.00    -0.235 N 
HETATM   13  H   UNK N   1      36.918  10.890  11.674  0.00  0.00     0.174 HD
HETATM   14  H   UNK N   1      36.396  10.193  10.211  0.00  0.00     0.174 HD
ENDROOT
BRANCH   1  15
HETATM   15  C   UNK N   1      36.677  13.287  12.471  0.00  0.00     0.150 C 
BRANCH  15  16
HETATM   16  C   UNK N   1      35.827  13.999  13.511  0.00  0.00     0.123 C 
BRANCH  16  17
HETATM   17  C   UNK N   1      36.156  13.518  14.873  0.00  0.00     0.221 C 
HETATM   18  N   UNK N   1      35.403  12.566  15.490  0.00  0.00    -0.352 N 
HETATM   19  C   UNK N   1      34.251  11.981  14.833  0.00  0.00     0.153 C 
HETATM   20  O   UNK N   1      37.121  14.010  15.442  0.00  0.00    -0.273 OA
BRANCH  18  21
HETATM   21  C   UNK N   1      35.726  12.195  16.847  0.00  0.00     0.086 C 
HETATM   22  C   UNK N   1      35.593  10.697  17.119  0.00  0.00     0.025 C 
HETATM   23  C   UNK N   1      36.066  10.408  18.540  0.00  0.00     0.002 C 
HETATM   24  C   UNK N   1      35.295  11.255  19.555  0.00  0.00     0.000 C 
HETATM   25  C   UNK N   1      35.429  12.743  19.239  0.00  0.00     0.002 C 
HETATM   26  C   UNK N   1      34.914  13.021  17.835  0.00  0.00     0.025 C 
ENDBRANCH  18  21
ENDBRANCH  16  17
ENDBRANCH  15  16
ENDBRANCH   1  15
BRANCH   5  27
HETATM   27  C   UNK N   1      34.149  17.406   6.940  0.00  0.00     0.192 C 
HETATM   28  O   UNK N   1      34.575  18.477   7.349  0.00  0.00    -0.287 OA
BRANCH  27  29
HETATM   29  C   UNK N   1      32.953  17.390   6.051  0.00  0.00     0.015 A 
HETATM   30  C   UNK N   1      31.691  17.082   6.577  0.00  0.00     0.015 A 
HETATM   31  C   UNK N   1      30.584  16.961   5.730  0.00  0.00     0.001 A 
HETATM   32  C   UNK N   1      30.733  17.132   4.350  0.00  0.00     0.000 A 
HETATM   33  C   UNK N   1      31.985  17.434   3.817  0.00  0.00     0.001 A 
HETATM   34  C   UNK N   1      33.085  17.557   4.662  0.00  0.00     0.015 A 
ENDBRANCH  27  29
ENDBRANCH   5  27
TORSDOF 6
ENDMDL
MODEL 8
REMARK VINA RESULT:      -8.3     11.599     15.676
REMARK  6 active torsions:
REMARK  status: ('A' for Active; 'I' for Inactive)
REMARK    1  A    between atoms: N_2  and  C_27 
REMARK       I    between atoms: N_2  and  C_3 
REMARK    2  A    between atoms: C_3  and  C_5 
REMARK    3  A    between atoms: C_5  and  C_6 
REMARK    4  A    between atoms: C_6  and  N_7 
REMARK    5  A    between atoms: C_11  and  C_12 
REMARK    6  A    between atoms: C_12  and  C_14 
REMARK       I    between atoms: C_25  and  N_26 
ROOT
HETATM    1  N   UNK N   1      20.606  17.484   4.050  0.00  0.00    -0.213 N 
HETATM    2  C   UNK N   1      21.862  17.538   4.770  0.00  0.00     0.182 C 
HETATM    3  C   UNK N   1      22.788  18.574   4.250  0.00  0.00    -0.011 A 
HETATM    4  C   UNK N   1      24.061  18.686   4.803  0.00  0.00     0.026 A 
HETATM    5  C   UNK N   1      24.923  19.699   4.374  0.00  0.00     0.015 A 
HETATM    6  C   UNK N   1      24.507  20.563   3.350  0.00  0.00     0.018 A 
HETATM    7  C   UNK N   1      23.245  20.434   2.776  0.00  0.00     0.031 A 
HETATM    8  C   UNK N   1      22.374  19.456   3.242  0.00  0.00     0.057 A 
HETATM    9  N   UNK N   1      21.071  19.372   2.702  0.00  0.00    -0.192 N 
ATOM     10  HN  UNK N   1      20.782  20.052   1.999  1.00  0.00     0.184 HD
HETATM   11  C   UNK N   1      20.240  18.466   3.071  0.00  0.00     0.674 C 
HETATM   12  N   UNK N   1      18.976  18.395   2.439  0.00  0.00    -0.235 N 
HETATM   13  H   UNK N   1      18.436  17.573   2.493  0.00  0.00     0.174 HD
HETATM   14  H   UNK N   1      18.632  19.172   1.942  0.00  0.00     0.174 HD
ENDROOT
BRANCH   1  15
HETATM   15  C   UNK N   1      19.945  16.219   4.019  0.00  0.00     0.150 C 
BRANCH  15  16
HETATM   16  C   UNK N   1      19.148  16.122   5.309  0.00  0.00     0.123 C 
BRANCH  16  17
HETATM   17  C   UNK N   1      19.681  15.044   6.174  0.00  0.00     0.221 C 
HETATM   18  N   UNK N   1      20.191  15.312   7.409  0.00  0.00    -0.352 N 
HETATM   19  C   UNK N   1      20.227  16.666   7.926  0.00  0.00     0.153 C 
HETATM   20  O   UNK N   1      19.665  13.899   5.746  0.00  0.00    -0.273 OA
BRANCH  18  21
HETATM   21  C   UNK N   1      20.767  14.232   8.173  0.00  0.00     0.086 C 
HETATM   22  C   UNK N   1      20.368  14.246   9.648  0.00  0.00     0.025 C 
HETATM   23  C   UNK N   1      20.937  13.004  10.327  0.00  0.00     0.002 C 
HETATM   24  C   UNK N   1      22.453  12.924  10.135  0.00  0.00     0.000 C 
HETATM   25  C   UNK N   1      22.819  12.937   8.653  0.00  0.00     0.002 C 
HETATM   26  C   UNK N   1      22.280  14.201   8.000  0.00  0.00     0.025 C 
ENDBRANCH  18  21
ENDBRANCH  16  17
ENDBRANCH  15  16
ENDBRANCH   1  15
BRANCH   5  27
HETATM   27  C   UNK N   1      26.202  19.913   5.091  0.00  0.00     0.192 C 
HETATM   28  O   UNK N   1      26.404  20.984   5.646  0.00  0.00    -0.287 OA
BRANCH  27  29
HETATM   29  C   UNK N   1      27.308  18.917   5.008  0.00  0.00     0.015 A 
HETATM   30  C   UNK N   1      27.521  18.201   3.822  0.00  0.00     0.015 A 
HETATM   31  C   UNK N   1      28.487  17.190   3.773  0.00  0.00     0.001 A 
HETATM   32  C   UNK N   1      29.236  16.877   4.911  0.00  0.00     0.000 A 
HETATM   33  C   UNK N   1      29.028  17.580   6.097  0.00  0.00     0.001 A 
HETATM   34  C   UNK N   1      28.068  18.588   6.143  0.00  0.00     0.015 A 
ENDBRANCH  27  29
ENDBRANCH   5  27
TORSDOF 6
ENDMDL
MODEL 9
REMARK VINA RESULT:      -8.2      1.686      2.333
REMARK  6 active torsions:
REMARK  status: ('A' for Active; 'I' for Inactive)
REMARK    1  A    between atoms: N_2  and  C_27 
REMARK       I    between atoms: N_2  and  C_3 
REMARK    2  A    between atoms: C_3  and  C_5 
REMARK    3  A    between atoms: C_5  and  C_6 
REMARK    4  A    between atoms: C_6  and  N_7 
REMARK    5  A    between atoms: C_11  and  C_12 
REMARK    6  A    between atoms: C_12  and  C_14 
REMARK       I    between atoms: C_25  and  N_26 
ROOT
HETATM    1  N   UNK N   1      34.820  13.032   9.322  0.00  0.00    -0.213 N 
HETATM    2  C   UNK N   1      35.644  13.151  10.508  0.00  0.00     0.182 C 
HETATM    3  C   UNK N   1      35.242  12.222  11.592  0.00  0.00    -0.011 A 
HETATM    4  C   UNK N   1      35.904  12.281  12.816  0.00  0.00     0.026 A 
HETATM    5  C   UNK N   1      35.586  11.370  13.827  0.00  0.00     0.015 A 
HETATM    6  C   UNK N   1      34.564  10.434  13.608  0.00  0.00     0.018 A 
HETATM    7  C   UNK N   1      33.882  10.393  12.396  0.00  0.00     0.031 A 
HETATM    8  C   UNK N   1      34.236  11.270  11.377  0.00  0.00     0.057 A 
HETATM    9  N   UNK N   1      33.586  11.180  10.125  0.00  0.00    -0.192 N 
ATOM     10  HN  UNK N   1      32.887  10.452   9.982  1.00  0.00     0.184 HD
HETATM   11  C   UNK N   1      33.851  11.988   9.162  0.00  0.00     0.674 C 
HETATM   12  N   UNK N   1      33.113  11.887   7.959  0.00  0.00    -0.235 N 
HETATM   13  H   UNK N   1      33.091  12.638   7.323  0.00  0.00     0.174 HD
HETATM   14  H   UNK N   1      32.618  11.061   7.756  0.00  0.00     0.174 HD
ENDROOT
BRANCH   1  15
HETATM   15  C   UNK N   1      34.687  14.206   8.520  0.00  0.00     0.150 C 
BRANCH  15  16
HETATM   16  C   UNK N   1      34.138  15.288   9.435  0.00  0.00     0.123 C 
BRANCH  16  17
HETATM   17  C   UNK N   1      32.730  15.598   9.093  0.00  0.00     0.221 C 
HETATM   18  N   UNK N   1      32.380  16.797   8.550  0.00  0.00    -0.352 N 
HETATM   19  C   UNK N   1      33.375  17.817   8.282  0.00  0.00     0.153 C 
HETATM   20  O   UNK N   1      31.879  14.750   9.322  0.00  0.00    -0.273 OA
BRANCH  18  21
HETATM   21  C   UNK N   1      30.983  17.071   8.311  0.00  0.00     0.086 C 
HETATM   22  C   UNK N   1      30.621  17.147   6.828  0.00  0.00     0.025 C 
HETATM   23  C   UNK N   1      29.110  17.324   6.696  0.00  0.00     0.002 C 
HETATM   24  C   UNK N   1      28.635  18.553   7.475  0.00  0.00     0.000 C 
HETATM   25  C   UNK N   1      29.035  18.456   8.946  0.00  0.00     0.002 C 
HETATM   26  C   UNK N   1      30.546  18.322   9.062  0.00  0.00     0.025 C 
ENDBRANCH  18  21
ENDBRANCH  16  17
ENDBRANCH  15  16
ENDBRANCH   1  15
BRANCH   5  27
HETATM   27  C   UNK N   1      36.416  11.333  15.055  0.00  0.00     0.192 C 
HETATM   28  O   UNK N   1      37.493  10.755  15.031  0.00  0.00    -0.287 OA
BRANCH  27  29
HETATM   29  C   UNK N   1      35.891  11.839  16.354  0.00  0.00     0.015 A 
HETATM   30  C   UNK N   1      35.595  13.201  16.510  0.00  0.00     0.015 A 
HETATM   31  C   UNK N   1      35.206  13.699  17.758  0.00  0.00     0.001 A 
HETATM   32  C   UNK N   1      35.122  12.845  18.862  0.00  0.00     0.000 A 
HETATM   33  C   UNK N   1      35.420  11.490  18.718  0.00  0.00     0.001 A 
HETATM   34  C   UNK N   1      35.805  10.996  17.475  0.00  0.00     0.015 A 
ENDBRANCH  27  29
ENDBRANCH   5  27
TORSDOF 6
ENDMDL
