MODEL 1
REMARK VINA RESULT:      -7.9      0.000      0.000
REMARK  4 active torsions:
REMARK  status: ('A' for Active; 'I' for Inactive)
REMARK    1  A    between atoms: C_8  and  N_11 
REMARK       I    between atoms: N_16  and  C_19 
REMARK    2  A    between atoms: C_19  and  C_28 
REMARK    3  A    between atoms: N_22  and  C_23 
REMARK    4  A    between atoms: C_23  and  C_24 
ROOT
HETATM    1  F   UNK N   1      24.351  20.342   2.700  0.00  0.00    -0.205 F 
HETATM    2  C   UNK N   1      23.048  20.079   2.971  0.00  0.00     0.132 A 
HETATM    3  C   UNK N   1      22.069  20.953   2.493  0.00  0.00     0.043 A 
HETATM    4  C   UNK N   1      20.719  20.708   2.756  0.00  0.00     0.005 A 
HETATM    5  C   UNK N   1      20.345  19.593   3.509  0.00  0.00     0.030 A 
HETATM    6  C   UNK N   1      21.318  18.715   3.989  0.00  0.00     0.047 A 
HETATM    7  C   UNK N   1      22.671  18.944   3.718  0.00  0.00     0.072 A 
HETATM    8  C   UNK N   1      23.655  17.963   4.223  0.00  0.00     0.112 A 
HETATM    9  N   UNK N   1      23.266  16.917   4.866  0.00  0.00    -0.349 N 
ATOM     10  HN  UNK N   1      23.986  16.253   5.152  1.00  0.00     0.163 HD
HETATM   11  N   UNK N   1      20.935  17.588   4.754  0.00  0.00    -0.363 N 
HETATM   12  C   UNK N   1      21.890  16.596   5.220  0.00  0.00     0.108 A 
HETATM   13  C   UNK N   1      21.880  16.539   6.756  0.00  0.00     0.074 C 
HETATM   14  C   UNK N   1      20.698  15.786   7.339  0.00  0.00     0.130 C 
HETATM   15  N   UNK N   1      20.553  14.535   6.639  0.00  0.00    -0.348 N 
HETATM   16  C   UNK N   1      20.264  14.625   5.230  0.00  0.00     0.130 C 
HETATM   17  C   UNK N   1      21.517  15.239   4.587  0.00  0.00     0.074 C 
HETATM   18  C   UNK N   1      20.848  13.314   7.193  0.00  0.00     0.253 C 
HETATM   19  O   UNK N   1      20.596  12.298   6.562  0.00  0.00    -0.267 OA
HETATM   20  H   UNK N   1      19.984  17.471   4.978  0.00  0.00     0.162 HD
ENDROOT
BRANCH   8  21
HETATM   21  N   UNK N   1      25.038  18.148   3.997  0.00  0.00    -0.385 N 
HETATM   22  H   UNK N   1      25.665  17.518   3.575  0.00  0.00     0.157 HD
HETATM   23  H   UNK N   1      25.417  19.006   4.295  0.00  0.00     0.157 HD
ENDBRANCH   8  21
BRANCH  18  24
HETATM   24  C   UNK N   1      21.605  13.170   8.478  0.00  0.00     0.032 A 
HETATM   25  C   UNK N   1      23.002  13.045   8.495  0.00  0.00     0.017 A 
HETATM   26  C   UNK N   1      23.676  12.676   9.657  0.00  0.00     0.010 A 
HETATM   27  C   UNK N   1      22.963  12.425  10.834  0.00  0.00    -0.041 A 
HETATM   28  C   UNK N   1      21.573  12.579  10.841  0.00  0.00     0.010 A 
HETATM   29  C   UNK N   1      20.897  12.934   9.669  0.00  0.00     0.017 A 
BRANCH  27  30
HETATM   30  C   UNK N   1      23.649  11.949  12.078  0.00  0.00     0.150 C 
BRANCH  30  31
HETATM   31  N   UNK N   1      22.698  11.479  13.077  0.00  0.00    -0.426 N 
HETATM   32  H   UNK N   1      22.338  10.526  13.124  0.00  0.00     0.150 HD
HETATM   33  H   UNK N   1      22.370  12.148  13.774  0.00  0.00     0.150 HD
ENDBRANCH  30  31
ENDBRANCH  27  30
ENDBRANCH  18  24
TORSDOF 4
ENDMDL
MODEL 2
REMARK VINA RESULT:      -7.7     12.461     16.008
REMARK  4 active torsions:
REMARK  status: ('A' for Active; 'I' for Inactive)
REMARK    1  A    between atoms: C_8  and  N_11 
REMARK       I    between atoms: N_16  and  C_19 
REMARK    2  A    between atoms: C_19  and  C_28 
REMARK    3  A    between atoms: N_22  and  C_23 
REMARK    4  A    between atoms: C_23  and  C_24 
ROOT
HETATM    1  F   UNK N   1      38.176  10.226  12.856  0.00  0.00    -0.205 F 
HETATM    2  C   UNK N   1      37.288  11.128  13.343  0.00  0.00     0.132 A 
HETATM    3  C   UNK N   1      36.872  11.018  14.672  0.00  0.00     0.043 A 
HETATM    4  C   UNK N   1      35.959  11.933  15.201  0.00  0.00     0.005 A 
HETATM    5  C   UNK N   1      35.450  12.955  14.399  0.00  0.00     0.030 A 
HETATM    6  C   UNK N   1      35.862  13.072  13.070  0.00  0.00     0.047 A 
HETATM    7  C   UNK N   1      36.787  12.170  12.535  0.00  0.00     0.072 A 
HETATM    8  C   UNK N   1      37.213  12.362  11.133  0.00  0.00     0.112 A 
HETATM    9  N   UNK N   1      36.762  13.351  10.441  0.00  0.00    -0.349 N 
ATOM     10  HN  UNK N   1      37.124  13.458   9.493  1.00  0.00     0.163 HD
HETATM   11  N   UNK N   1      35.341  14.107  12.259  0.00  0.00    -0.363 N 
HETATM   12  C   UNK N   1      35.782  14.330  10.892  0.00  0.00     0.108 A 
HETATM   13  C   UNK N   1      34.598  14.178   9.925  0.00  0.00     0.074 C 
HETATM   14  C   UNK N   1      33.663  15.374   9.899  0.00  0.00     0.130 C 
HETATM   15  N   UNK N   1      34.450  16.575   9.781  0.00  0.00    -0.348 N 
HETATM   16  C   UNK N   1      35.356  16.850  10.867  0.00  0.00     0.130 C 
HETATM   17  C   UNK N   1      36.414  15.736  10.816  0.00  0.00     0.074 C 
HETATM   18  C   UNK N   1      34.506  17.340   8.642  0.00  0.00     0.253 C 
HETATM   19  O   UNK N   1      35.117  18.398   8.665  0.00  0.00    -0.267 OA
HETATM   20  H   UNK N   1      34.652  14.702  12.636  0.00  0.00     0.162 HD
ENDROOT
BRANCH   8  21
HETATM   21  N   UNK N   1      38.131  11.473  10.530  0.00  0.00    -0.385 N 
HETATM   22  H   UNK N   1      38.005  10.949   9.707  0.00  0.00     0.157 HD
HETATM   23  H   UNK N   1      38.997  11.366  10.987  0.00  0.00     0.157 HD
ENDBRANCH   8  21
BRANCH  18  24
HETATM   24  C   UNK N   1      33.977  16.867   7.322  0.00  0.00     0.032 A 
HETATM   25  C   UNK N   1      34.695  15.961   6.528  0.00  0.00     0.017 A 
HETATM   26  C   UNK N   1      34.321  15.707   5.210  0.00  0.00     0.010 A 
HETATM   27  C   UNK N   1      33.213  16.358   4.656  0.00  0.00    -0.041 A 
HETATM   28  C   UNK N   1      32.466  17.237   5.447  0.00  0.00     0.010 A 
HETATM   29  C   UNK N   1      32.854  17.502   6.765  0.00  0.00     0.017 A 
BRANCH  27  30
HETATM   30  C   UNK N   1      32.833  16.169   3.219  0.00  0.00     0.150 C 
BRANCH  30  31
HETATM   31  N   UNK N   1      31.947  17.226   2.749  0.00  0.00    -0.426 N 
HETATM   32  H   UNK N   1      32.260  18.062   2.258  0.00  0.00     0.150 HD
HETATM   33  H   UNK N   1      30.947  17.122   2.924  0.00  0.00     0.150 HD
ENDBRANCH  30  31
ENDBRANCH  27  30
ENDBRANCH  18  24
TORSDOF 4
ENDMDL
MODEL 3
REMARK VINA RESULT:      -7.6      9.274     12.205
REMARK  4 active torsions:
REMARK  status: ('A' for Active; 'I' for Inactive)
REMARK    1  A    between atoms: C_8  and  N_11 
REMARK       I    between atoms: N_16  and  C_19 
REMARK    2  A    between atoms: C_19  and  C_28 
REMARK    3  A    between atoms: N_22  and  C_23 
REMARK    4  A    between atoms: C_23  and  C_24 
ROOT
HETATM    1  F   UNK N   1      35.709  14.015  10.843  0.00  0.00    -0.205 F 
HETATM    2  C   UNK N   1      35.803  14.126   9.494  0.00  0.00     0.132 A 
HETATM    3  C   UNK N   1      36.990  13.743   8.866  0.00  0.00     0.043 A 
HETATM    4  C   UNK N   1      37.116  13.845   7.478  0.00  0.00     0.005 A 
HETATM    5  C   UNK N   1      36.057  14.342   6.715  0.00  0.00     0.030 A 
HETATM    6  C   UNK N   1      34.867  14.727   7.337  0.00  0.00     0.047 A 
HETATM    7  C   UNK N   1      34.727  14.614   8.724  0.00  0.00     0.072 A 
HETATM    8  C   UNK N   1      33.433  15.003   9.323  0.00  0.00     0.112 A 
HETATM    9  N   UNK N   1      32.461  15.405   8.580  0.00  0.00    -0.349 N 
ATOM     10  HN  UNK N   1      31.579  15.620   9.045  1.00  0.00     0.163 HD
HETATM   11  N   UNK N   1      33.799  15.233   6.561  0.00  0.00    -0.363 N 
HETATM   12  C   UNK N   1      32.509  15.581   7.135  0.00  0.00     0.108 A 
HETATM   13  C   UNK N   1      32.218  17.073   6.908  0.00  0.00     0.074 C 
HETATM   14  C   UNK N   1      31.766  17.407   5.498  0.00  0.00     0.130 C 
HETATM   15  N   UNK N   1      30.739  16.475   5.106  0.00  0.00    -0.348 N 
HETATM   16  C   UNK N   1      31.129  15.090   5.041  0.00  0.00     0.130 C 
HETATM   17  C   UNK N   1      31.438  14.677   6.488  0.00  0.00     0.074 C 
HETATM   18  C   UNK N   1      29.413  16.812   4.978  0.00  0.00     0.253 C 
HETATM   19  O   UNK N   1      28.628  15.983   4.541  0.00  0.00    -0.267 OA
HETATM   20  H   UNK N   1      33.934  15.354   5.593  0.00  0.00     0.162 HD
ENDROOT
BRANCH   8  21
HETATM   21  N   UNK N   1      33.235  14.929  10.721  0.00  0.00    -0.385 N 
HETATM   22  H   UNK N   1      33.545  15.566  11.404  0.00  0.00     0.157 HD
HETATM   23  H   UNK N   1      32.729  14.151  11.049  0.00  0.00     0.157 HD
ENDBRANCH   8  21
BRANCH  18  24
HETATM   24  C   UNK N   1      28.854  18.105   5.490  0.00  0.00     0.032 A 
HETATM   25  C   UNK N   1      28.561  18.287   6.849  0.00  0.00     0.017 A 
HETATM   26  C   UNK N   1      27.827  19.390   7.284  0.00  0.00     0.010 A 
HETATM   27  C   UNK N   1      27.371  20.338   6.362  0.00  0.00    -0.041 A 
HETATM   28  C   UNK N   1      27.685  20.187   5.008  0.00  0.00     0.010 A 
HETATM   29  C   UNK N   1      28.408  19.071   4.572  0.00  0.00     0.017 A 
BRANCH  27  30
HETATM   30  C   UNK N   1      26.511  21.490   6.785  0.00  0.00     0.150 C 
BRANCH  30  31
HETATM   31  N   UNK N   1      25.841  21.231   8.053  0.00  0.00    -0.426 N 
HETATM   32  H   UNK N   1      25.031  20.622   8.160  0.00  0.00     0.150 HD
HETATM   33  H   UNK N   1      26.207  21.690   8.887  0.00  0.00     0.150 HD
ENDBRANCH  30  31
ENDBRANCH  27  30
ENDBRANCH  18  24
TORSDOF 4
ENDMDL
MODEL 4
REMARK VINA RESULT:      -7.4     10.392     11.985
REMARK  4 active torsions:
REMARK  status: ('A' for Active; 'I' for Inactive)
REMARK    1  A    between atoms: C_8  and  N_11 
REMARK       I    between atoms: N_16  and  C_19 
REMARK    2  A    between atoms: C_19  and  C_28 
REMARK    3  A    between atoms: N_22  and  C_23 
REMARK    4  A    between atoms: C_23  and  C_24 
ROOT
HETATM    1  F   UNK N   1      27.968  19.157   8.097  0.00  0.00    -0.205 F 
HETATM    2  C   UNK N   1      28.462  18.145   7.341  0.00  0.00     0.132 A 
HETATM    3  C   UNK N   1      27.744  17.730   6.216  0.00  0.00     0.043 A 
HETATM    4  C   UNK N   1      28.228  16.691   5.417  0.00  0.00     0.005 A 
HETATM    5  C   UNK N   1      29.426  16.056   5.748  0.00  0.00     0.030 A 
HETATM    6  C   UNK N   1      30.149  16.466   6.870  0.00  0.00     0.047 A 
HETATM    7  C   UNK N   1      29.680  17.516   7.667  0.00  0.00     0.072 A 
HETATM    8  C   UNK N   1      30.504  17.930   8.822  0.00  0.00     0.112 A 
HETATM    9  N   UNK N   1      31.632  17.356   9.062  0.00  0.00    -0.349 N 
ATOM     10  HN  UNK N   1      32.177  17.712   9.848  1.00  0.00     0.163 HD
HETATM   11  N   UNK N   1      31.361  15.818   7.203  0.00  0.00    -0.363 N 
HETATM   12  C   UNK N   1      32.199  16.243   8.313  0.00  0.00     0.108 A 
HETATM   13  C   UNK N   1      32.334  15.105   9.336  0.00  0.00     0.074 C 
HETATM   14  C   UNK N   1      33.305  14.014   8.923  0.00  0.00     0.130 C 
HETATM   15  N   UNK N   1      34.526  14.627   8.465  0.00  0.00    -0.348 N 
HETATM   16  C   UNK N   1      34.416  15.471   7.303  0.00  0.00     0.130 C 
HETATM   17  C   UNK N   1      33.566  16.674   7.742  0.00  0.00     0.074 C 
HETATM   18  C   UNK N   1      35.705  14.592   9.168  0.00  0.00     0.253 C 
HETATM   19  O   UNK N   1      36.716  15.049   8.656  0.00  0.00    -0.267 OA
HETATM   20  H   UNK N   1      31.650  15.048   6.661  0.00  0.00     0.162 HD
ENDROOT
BRANCH   8  21
HETATM   21  N   UNK N   1      30.075  18.972   9.676  0.00  0.00    -0.385 N 
HETATM   22  H   UNK N   1      29.176  19.104  10.054  0.00  0.00     0.157 HD
HETATM   23  H   UNK N   1      30.754  19.641   9.921  0.00  0.00     0.157 HD
ENDBRANCH   8  21
BRANCH  18  24
HETATM   24  C   UNK N   1      35.782  14.153  10.598  0.00  0.00     0.032 A 
HETATM   25  C   UNK N   1      35.618  15.062  11.653  0.00  0.00     0.017 A 
HETATM   26  C   UNK N   1      35.923  14.704  12.964  0.00  0.00     0.010 A 
HETATM   27  C   UNK N   1      36.399  13.419  13.250  0.00  0.00    -0.041 A 
HETATM   28  C   UNK N   1      36.535  12.491  12.213  0.00  0.00     0.010 A 
HETATM   29  C   UNK N   1      36.243  12.859  10.895  0.00  0.00     0.017 A 
BRANCH  27  30
HETATM   30  C   UNK N   1      36.813  13.028  14.636  0.00  0.00     0.150 C 
BRANCH  30  31
HETATM   31  N   UNK N   1      37.188  14.185  15.437  0.00  0.00    -0.426 N 
HETATM   32  H   UNK N   1      37.042  15.153  15.153  0.00  0.00     0.150 HD
HETATM   33  H   UNK N   1      37.626  14.015  16.343  0.00  0.00     0.150 HD
ENDBRANCH  30  31
ENDBRANCH  27  30
ENDBRANCH  18  24
TORSDOF 4
ENDMDL
MODEL 5
REMARK VINA RESULT:      -7.2      5.103      8.175
REMARK  4 active torsions:
REMARK  status: ('A' for Active; 'I' for Inactive)
REMARK    1  A    between atoms: C_8  and  N_11 
REMARK       I    between atoms: N_16  and  C_19 
REMARK    2  A    between atoms: C_19  and  C_28 
REMARK    3  A    between atoms: N_22  and  C_23 
REMARK    4  A    between atoms: C_23  and  C_24 
ROOT
HETATM    1  F   UNK N   1      30.438  18.756   9.384  0.00  0.00    -0.205 F 
HETATM    2  C   UNK N   1      30.594  17.915   8.331  0.00  0.00     0.132 A 
HETATM    3  C   UNK N   1      31.885  17.528   7.962  0.00  0.00     0.043 A 
HETATM    4  C   UNK N   1      32.077  16.662   6.883  0.00  0.00     0.005 A 
HETATM    5  C   UNK N   1      30.979  16.190   6.161  0.00  0.00     0.030 A 
HETATM    6  C   UNK N   1      29.686  16.572   6.526  0.00  0.00     0.047 A 
HETATM    7  C   UNK N   1      29.483  17.426   7.615  0.00  0.00     0.072 A 
HETATM    8  C   UNK N   1      28.091  17.770   7.975  0.00  0.00     0.112 A 
HETATM    9  N   UNK N   1      27.102  17.269   7.320  0.00  0.00    -0.349 N 
ATOM     10  HN  UNK N   1      26.164  17.508   7.641  1.00  0.00     0.163 HD
HETATM   11  N   UNK N   1      28.577  16.094   5.791  0.00  0.00    -0.363 N 
HETATM   12  C   UNK N   1      27.203  16.392   6.161  0.00  0.00     0.108 A 
HETATM   13  C   UNK N   1      26.506  17.157   5.025  0.00  0.00     0.074 C 
HETATM   14  C   UNK N   1      26.082  16.282   3.860  0.00  0.00     0.130 C 
HETATM   15  N   UNK N   1      25.403  15.120   4.375  0.00  0.00    -0.348 N 
HETATM   16  C   UNK N   1      26.185  14.248   5.215  0.00  0.00     0.130 C 
HETATM   17  C   UNK N   1      26.494  15.060   6.483  0.00  0.00     0.074 C 
HETATM   18  C   UNK N   1      24.051  14.913   4.257  0.00  0.00     0.253 C 
HETATM   19  O   UNK N   1      23.576  13.851   4.632  0.00  0.00    -0.267 OA
HETATM   20  H   UNK N   1      28.741  15.535   4.996  0.00  0.00     0.162 HD
ENDROOT
BRANCH   8  21
HETATM   21  N   UNK N   1      27.821  18.642   9.054  0.00  0.00    -0.385 N 
HETATM   22  H   UNK N   1      27.037  19.225   9.171  0.00  0.00     0.157 HD
HETATM   23  H   UNK N   1      28.495  18.670   9.771  0.00  0.00     0.157 HD
ENDBRANCH   8  21
BRANCH  18  24
HETATM   24  C   UNK N   1      23.102  15.990   3.826  0.00  0.00     0.032 A 
HETATM   25  C   UNK N   1      22.950  17.171   4.566  0.00  0.00     0.017 A 
HETATM   26  C   UNK N   1      21.908  18.057   4.300  0.00  0.00     0.010 A 
HETATM   27  C   UNK N   1      20.992  17.778   3.280  0.00  0.00    -0.041 A 
HETATM   28  C   UNK N   1      21.151  16.621   2.511  0.00  0.00     0.010 A 
HETATM   29  C   UNK N   1      22.189  15.726   2.791  0.00  0.00     0.017 A 
BRANCH  27  30
HETATM   30  C   UNK N   1      19.814  18.668   3.021  0.00  0.00     0.150 C 
BRANCH  30  31
HETATM   31  N   UNK N   1      18.889  18.079   2.063  0.00  0.00    -0.426 N 
HETATM   32  H   UNK N   1      18.490  18.577   1.268  0.00  0.00     0.150 HD
HETATM   33  H   UNK N   1      18.622  17.103   2.197  0.00  0.00     0.150 HD
ENDBRANCH  30  31
ENDBRANCH  27  30
ENDBRANCH  18  24
TORSDOF 4
ENDMDL
MODEL 6
REMARK VINA RESULT:      -7.1      2.563      3.297
REMARK  4 active torsions:
REMARK  status: ('A' for Active; 'I' for Inactive)
REMARK    1  A    between atoms: C_8  and  N_11 
REMARK       I    between atoms: N_16  and  C_19 
REMARK    2  A    between atoms: C_19  and  C_28 
REMARK    3  A    between atoms: N_22  and  C_23 
REMARK    4  A    between atoms: C_23  and  C_24 
ROOT
HETATM    1  F   UNK N   1      19.932  18.052   0.277  0.00  0.00    -0.205 F 
HETATM    2  C   UNK N   1      20.414  18.570   1.435  0.00  0.00     0.132 A 
HETATM    3  C   UNK N   1      20.793  19.914   1.466  0.00  0.00     0.043 A 
HETATM    4  C   UNK N   1      21.292  20.476   2.644  0.00  0.00     0.005 A 
HETATM    5  C   UNK N   1      21.425  19.691   3.791  0.00  0.00     0.030 A 
HETATM    6  C   UNK N   1      21.046  18.348   3.767  0.00  0.00     0.047 A 
HETATM    7  C   UNK N   1      20.531  17.780   2.597  0.00  0.00     0.072 A 
HETATM    8  C   UNK N   1      20.116  16.362   2.639  0.00  0.00     0.112 A 
HETATM    9  N   UNK N   1      20.201  15.687   3.732  0.00  0.00    -0.349 N 
ATOM     10  HN  UNK N   1      19.860  14.726   3.712  1.00  0.00     0.163 HD
HETATM   11  N   UNK N   1      21.185  17.555   4.930  0.00  0.00    -0.363 N 
HETATM   12  C   UNK N   1      20.742  16.172   4.995  0.00  0.00     0.108 A 
HETATM   13  C   UNK N   1      21.935  15.251   5.294  0.00  0.00     0.074 C 
HETATM   14  C   UNK N   1      22.372  15.258   6.747  0.00  0.00     0.130 C 
HETATM   15  N   UNK N   1      21.208  15.109   7.583  0.00  0.00    -0.348 N 
HETATM   16  C   UNK N   1      20.225  16.159   7.497  0.00  0.00     0.130 C 
HETATM   17  C   UNK N   1      19.646  16.070   6.076  0.00  0.00     0.074 C 
HETATM   18  C   UNK N   1      20.919  13.967   8.290  0.00  0.00     0.253 C 
HETATM   19  O   UNK N   1      19.965  13.966   9.054  0.00  0.00    -0.267 OA
HETATM   20  H   UNK N   1      21.597  17.957   5.729  0.00  0.00     0.162 HD
ENDROOT
BRANCH   8  21
HETATM   21  N   UNK N   1      19.605  15.727   1.484  0.00  0.00    -0.385 N 
HETATM   22  H   UNK N   1      19.171  16.152   0.709  0.00  0.00     0.157 HD
HETATM   23  H   UNK N   1      19.692  14.747   1.451  0.00  0.00     0.157 HD
ENDBRANCH   8  21
BRANCH  18  24
HETATM   24  C   UNK N   1      21.631  12.669   8.056  0.00  0.00     0.032 A 
HETATM   25  C   UNK N   1      22.708  12.270   8.862  0.00  0.00     0.017 A 
HETATM   26  C   UNK N   1      23.512  11.191   8.502  0.00  0.00     0.010 A 
HETATM   27  C   UNK N   1      23.254  10.484   7.322  0.00  0.00    -0.041 A 
HETATM   28  C   UNK N   1      22.163  10.850   6.527  0.00  0.00     0.010 A 
HETATM   29  C   UNK N   1      21.366  11.943   6.883  0.00  0.00     0.017 A 
BRANCH  27  30
HETATM   30  C   UNK N   1      24.148   9.372   6.865  0.00  0.00     0.150 C 
BRANCH  30  31
HETATM   31  N   UNK N   1      23.682   8.074   7.333  0.00  0.00    -0.426 N 
HETATM   32  H   UNK N   1      22.891   7.940   7.963  0.00  0.00     0.150 HD
HETATM   33  H   UNK N   1      24.180   7.244   7.011  0.00  0.00     0.150 HD
ENDBRANCH  30  31
ENDBRANCH  27  30
ENDBRANCH  18  24
TORSDOF 4
ENDMDL
MODEL 7
REMARK VINA RESULT:      -7.0      3.741      8.133
REMARK  4 active torsions:
REMARK  status: ('A' for Active; 'I' for Inactive)
REMARK    1  A    between atoms: C_8  and  N_11 
REMARK       I    between atoms: N_16  and  C_19 
REMARK    2  A    between atoms: C_19  and  C_28 
REMARK    3  A    between atoms: N_22  and  C_23 
REMARK    4  A    between atoms: C_23  and  C_24 
ROOT
HETATM    1  F   UNK N   1      24.536  12.162  11.310  0.00  0.00    -0.205 F 
HETATM    2  C   UNK N   1      23.230  12.373  11.008  0.00  0.00     0.132 A 
HETATM    3  C   UNK N   1      22.253  11.992  11.931  0.00  0.00     0.043 A 
HETATM    4  C   UNK N   1      20.901  12.198  11.649  0.00  0.00     0.005 A 
HETATM    5  C   UNK N   1      20.520  12.776  10.436  0.00  0.00     0.030 A 
HETATM    6  C   UNK N   1      21.492  13.160   9.509  0.00  0.00     0.047 A 
HETATM    7  C   UNK N   1      22.849  12.972   9.790  0.00  0.00     0.072 A 
HETATM    8  C   UNK N   1      23.834  13.428   8.787  0.00  0.00     0.112 A 
HETATM    9  N   UNK N   1      23.446  14.008   7.704  0.00  0.00    -0.349 N 
ATOM     10  HN  UNK N   1      24.172  14.340   7.069  1.00  0.00     0.163 HD
HETATM   11  N   UNK N   1      21.102  13.742   8.280  0.00  0.00    -0.363 N 
HETATM   12  C   UNK N   1      22.063  14.231   7.305  0.00  0.00     0.108 A 
HETATM   13  C   UNK N   1      21.905  13.467   5.981  0.00  0.00     0.074 C 
HETATM   14  C   UNK N   1      20.717  13.913   5.148  0.00  0.00     0.130 C 
HETATM   15  N   UNK N   1      20.716  15.352   5.074  0.00  0.00    -0.348 N 
HETATM   16  C   UNK N   1      20.563  16.052   6.323  0.00  0.00     0.130 C 
HETATM   17  C   UNK N   1      21.836  15.748   7.128  0.00  0.00     0.074 C 
HETATM   18  C   UNK N   1      21.027  16.055   3.936  0.00  0.00     0.253 C 
HETATM   19  O   UNK N   1      20.899  17.271   3.935  0.00  0.00    -0.267 OA
HETATM   20  H   UNK N   1      20.142  13.820   8.078  0.00  0.00     0.162 HD
ENDROOT
BRANCH   8  21
HETATM   21  N   UNK N   1      25.219  13.250   9.004  0.00  0.00    -0.385 N 
HETATM   22  H   UNK N   1      25.918  13.105   8.326  0.00  0.00     0.157 HD
HETATM   23  H   UNK N   1      25.520  13.273   9.941  0.00  0.00     0.157 HD
ENDBRANCH   8  21
BRANCH  18  24
HETATM   24  C   UNK N   1      21.659  15.417   2.737  0.00  0.00     0.032 A 
HETATM   25  C   UNK N   1      20.887  14.793   1.747  0.00  0.00     0.017 A 
HETATM   26  C   UNK N   1      21.480  14.001   0.766  0.00  0.00     0.010 A 
HETATM   27  C   UNK N   1      22.867  13.817   0.754  0.00  0.00    -0.041 A 
HETATM   28  C   UNK N   1      23.653  14.461   1.715  0.00  0.00     0.010 A 
HETATM   29  C   UNK N   1      23.054  15.243   2.708  0.00  0.00     0.017 A 
BRANCH  27  30
HETATM   30  C   UNK N   1      23.527  12.908  -0.237  0.00  0.00     0.150 C 
BRANCH  30  31
HETATM   31  N   UNK N   1      23.929  11.645   0.369  0.00  0.00    -0.426 N 
HETATM   32  H   UNK N   1      24.680  11.548   1.051  0.00  0.00     0.150 HD
HETATM   33  H   UNK N   1      23.426  10.802   0.090  0.00  0.00     0.150 HD
ENDBRANCH  30  31
ENDBRANCH  27  30
ENDBRANCH  18  24
TORSDOF 4
ENDMDL
MODEL 8
REMARK VINA RESULT:      -7.0     14.902     16.786
REMARK  4 active torsions:
REMARK  status: ('A' for Active; 'I' for Inactive)
REMARK    1  A    between atoms: C_8  and  N_11 
REMARK       I    between atoms: N_16  and  C_19 
REMARK    2  A    between atoms: C_19  and  C_28 
REMARK    3  A    between atoms: N_22  and  C_23 
REMARK    4  A    between atoms: C_23  and  C_24 
ROOT
HETATM    1  F   UNK N   1      36.438  16.045  11.453  0.00  0.00    -0.205 F 
HETATM    2  C   UNK N   1      35.983  14.799  11.169  0.00  0.00     0.132 A 
HETATM    3  C   UNK N   1      35.600  14.503   9.858  0.00  0.00     0.043 A 
HETATM    4  C   UNK N   1      35.128  13.229   9.534  0.00  0.00     0.005 A 
HETATM    5  C   UNK N   1      35.026  12.250  10.524  0.00  0.00     0.030 A 
HETATM    6  C   UNK N   1      35.407  12.538  11.836  0.00  0.00     0.047 A 
HETATM    7  C   UNK N   1      35.896  13.807  12.166  0.00  0.00     0.072 A 
HETATM    8  C   UNK N   1      36.316  14.045  13.563  0.00  0.00     0.112 A 
HETATM    9  N   UNK N   1      36.259  13.099  14.435  0.00  0.00    -0.349 N 
ATOM     10  HN  UNK N   1      36.603  13.310  15.372  1.00  0.00     0.163 HD
HETATM   11  N   UNK N   1      35.299  11.544  12.836  0.00  0.00    -0.363 N 
HETATM   12  C   UNK N   1      35.748  11.755  14.203  0.00  0.00     0.108 A 
HETATM   13  C   UNK N   1      34.565  11.610  15.173  0.00  0.00     0.074 C 
HETATM   14  C   UNK N   1      34.163  10.171  15.446  0.00  0.00     0.130 C 
HETATM   15  N   UNK N   1      35.347   9.407  15.743  0.00  0.00    -0.348 N 
HETATM   16  C   UNK N   1      36.325   9.314  14.689  0.00  0.00     0.130 C 
HETATM   17  C   UNK N   1      36.869  10.738  14.501  0.00  0.00     0.074 C 
HETATM   18  C   UNK N   1      35.656   8.938  16.997  0.00  0.00     0.253 C 
HETATM   19  O   UNK N   1      36.628   8.210  17.136  0.00  0.00    -0.267 OA
HETATM   20  H   UNK N   1      34.905  10.674  12.597  0.00  0.00     0.162 HD
ENDROOT
BRANCH   8  21
HETATM   21  N   UNK N   1      36.801  15.311  13.963  0.00  0.00    -0.385 N 
HETATM   22  H   UNK N   1      36.665  15.758  14.829  0.00  0.00     0.157 HD
HETATM   23  H   UNK N   1      37.338  15.802  13.299  0.00  0.00     0.157 HD
ENDBRANCH   8  21
BRANCH  18  24
HETATM   24  C   UNK N   1      34.943   9.398  18.231  0.00  0.00     0.032 A 
HETATM   25  C   UNK N   1      35.410  10.485  18.984  0.00  0.00     0.017 A 
HETATM   26  C   UNK N   1      34.890  10.760  20.247  0.00  0.00     0.010 A 
HETATM   27  C   UNK N   1      33.885   9.949  20.786  0.00  0.00    -0.041 A 
HETATM   28  C   UNK N   1      33.386   8.882  20.032  0.00  0.00     0.010 A 
HETATM   29  C   UNK N   1      33.920   8.599  18.771  0.00  0.00     0.017 A 
BRANCH  27  30
HETATM   30  C   UNK N   1      33.362  10.168  22.173  0.00  0.00     0.150 C 
BRANCH  30  31
HETATM   31  N   UNK N   1      33.014  11.563  22.407  0.00  0.00    -0.426 N 
HETATM   32  H   UNK N   1      33.665  12.269  22.747  0.00  0.00     0.150 HD
HETATM   33  H   UNK N   1      32.053  11.852  22.219  0.00  0.00     0.150 HD
ENDBRANCH  30  31
ENDBRANCH  27  30
ENDBRANCH  18  24
TORSDOF 4
ENDMDL
MODEL 9
REMARK VINA RESULT:      -6.9     11.578     15.278
REMARK  4 active torsions:
REMARK  status: ('A' for Active; 'I' for Inactive)
REMARK    1  A    between atoms: C_8  and  N_11 
REMARK       I    between atoms: N_16  and  C_19 
REMARK    2  A    between atoms: C_19  and  C_28 
REMARK    3  A    between atoms: N_22  and  C_23 
REMARK    4  A    between atoms: C_23  and  C_24 
ROOT
HETATM    1  F   UNK N   1      34.704  10.497  14.883  0.00  0.00    -0.205 F 
HETATM    2  C   UNK N   1      35.317  11.690  14.684  0.00  0.00     0.132 A 
HETATM    3  C   UNK N   1      36.073  12.242  15.722  0.00  0.00     0.043 A 
HETATM    4  C   UNK N   1      36.717  13.469  15.547  0.00  0.00     0.005 A 
HETATM    5  C   UNK N   1      36.598  14.155  14.336  0.00  0.00     0.030 A 
HETATM    6  C   UNK N   1      35.846  13.608  13.294  0.00  0.00     0.047 A 
HETATM    7  C   UNK N   1      35.209  12.373  13.455  0.00  0.00     0.072 A 
HETATM    8  C   UNK N   1      34.455  11.827  12.307  0.00  0.00     0.112 A 
HETATM    9  N   UNK N   1      34.414  12.463  11.188  0.00  0.00    -0.349 N 
ATOM     10  HN  UNK N   1      33.914  12.018  10.418  1.00  0.00     0.163 HD
HETATM   11  N   UNK N   1      35.725  14.307  12.071  0.00  0.00    -0.363 N 
HETATM   12  C   UNK N   1      35.019  13.762  10.922  0.00  0.00     0.108 A 
HETATM   13  C   UNK N   1      33.843  14.676  10.545  0.00  0.00     0.074 C 
HETATM   14  C   UNK N   1      34.252  15.930   9.794  0.00  0.00     0.130 C 
HETATM   15  N   UNK N   1      35.158  15.563   8.735  0.00  0.00    -0.348 N 
HETATM   16  C   UNK N   1      36.404  14.966   9.144  0.00  0.00     0.130 C 
HETATM   17  C   UNK N   1      36.031  13.611   9.766  0.00  0.00     0.074 C 
HETATM   18  C   UNK N   1      34.823  15.587   7.404  0.00  0.00     0.253 C 
HETATM   19  O   UNK N   1      35.686  15.359   6.569  0.00  0.00    -0.267 OA
HETATM   20  H   UNK N   1      36.136  15.198  11.993  0.00  0.00     0.162 HD
ENDROOT
BRANCH   8  21
HETATM   21  N   UNK N   1      33.775  10.593  12.414  0.00  0.00    -0.385 N 
HETATM   22  H   UNK N   1      33.451  10.022  11.679  0.00  0.00     0.157 HD
HETATM   23  H   UNK N   1      33.607  10.265  13.327  0.00  0.00     0.157 HD
ENDBRANCH   8  21
BRANCH  18  24
HETATM   24  C   UNK N   1      33.410  15.732   6.927  0.00  0.00     0.032 A 
HETATM   25  C   UNK N   1      32.584  14.615   6.735  0.00  0.00     0.017 A 
HETATM   26  C   UNK N   1      31.363  14.729   6.074  0.00  0.00     0.010 A 
HETATM   27  C   UNK N   1      30.940  15.972   5.588  0.00  0.00    -0.041 A 
HETATM   28  C   UNK N   1      31.738  17.100   5.802  0.00  0.00     0.010 A 
HETATM   29  C   UNK N   1      32.970  16.980   6.453  0.00  0.00     0.017 A 
BRANCH  27  30
HETATM   30  C   UNK N   1      29.673  16.114   4.802  0.00  0.00     0.150 C 
BRANCH  30  31
HETATM   31  N   UNK N   1      29.581  17.414   4.150  0.00  0.00    -0.426 N 
HETATM   32  H   UNK N   1      28.737  17.779   3.711  0.00  0.00     0.150 HD
HETATM   33  H   UNK N   1      30.419  17.997   4.132  0.00  0.00     0.150 HD
ENDBRANCH  30  31
ENDBRANCH  27  30
ENDBRANCH  18  24
TORSDOF 4
ENDMDL
