REMARK  4 active torsions:
REMARK  status: ('A' for Active; 'I' for Inactive)
REMARK    1  A    between atoms: C_8  and  N_11 
REMARK       I    between atoms: N_16  and  C_19 
REMARK    2  A    between atoms: C_19  and  C_28 
REMARK    3  A    between atoms: N_22  and  C_23 
REMARK    4  A    between atoms: C_23  and  C_24 
ROOT
HETATM    1  F   UNK N   1       5.550  -1.799  -0.609  0.00  0.00    -0.205 F 
HETATM    2  C   UNK N   1       5.097  -0.671  -0.007  0.00  0.00     0.132 A 
HETATM    3  C   UNK N   1       6.004   0.138   0.682  0.00  0.00     0.043 A 
HETATM    4  C   UNK N   1       5.567   1.306   1.311  0.00  0.00     0.005 A 
HETATM    5  C   UNK N   1       4.218   1.663   1.263  0.00  0.00     0.030 A 
HETATM    6  C   UNK N   1       3.306   0.860   0.575  0.00  0.00     0.047 A 
HETATM    7  C   UNK N   1       3.737  -0.304  -0.071  0.00  0.00     0.072 A 
HETATM    8  C   UNK N   1       2.734  -1.097  -0.812  0.00  0.00     0.112 A 
HETATM    9  N   UNK N   1       1.509  -0.705  -0.880  0.00  0.00    -0.349 N 
ATOM     10  HN  UNK N   1       0.871  -1.270  -1.441  1.00  0.00     0.163 HD
HETATM   11  N   UNK N   1       1.940   1.223   0.531  0.00  0.00    -0.363 N 
HETATM   12  C   UNK N   1       0.953   0.473  -0.228  0.00  0.00     0.108 A 
HETATM   13  C   UNK N   1      -0.132  -0.072   0.714  0.00  0.00     0.074 C 
HETATM   14  C   UNK N   1      -1.148   0.967   1.153  0.00  0.00     0.130 C 
HETATM   15  N   UNK N   1      -1.597   1.696  -0.006  0.00  0.00    -0.348 N 
HETATM   16  C   UNK N   1      -0.592   2.450  -0.711  0.00  0.00     0.130 C 
HETATM   17  C   UNK N   1       0.367   1.408  -1.307  0.00  0.00     0.074 C 
HETATM   18  C   UNK N   1      -2.850   1.561  -0.552  0.00  0.00     0.253 C 
HETATM   19  O   UNK N   1      -3.180   2.295  -1.472  0.00  0.00    -0.267 OA
HETATM   20  H   UNK N   1       1.646   2.017   1.034  0.00  0.00     0.162 HD
ENDROOT
BRANCH   8  21
HETATM   21  N   UNK N   1       3.104  -2.292  -1.470  0.00  0.00    -0.385 N 
HETATM   22  H   UNK N   1       2.512  -2.931  -1.929  0.00  0.00     0.157 HD
HETATM   23  H   UNK N   1       4.064  -2.510  -1.470  0.00  0.00     0.157 HD
ENDBRANCH   8  21
BRANCH  18  24
HETATM   24  C   UNK N   1      -3.783   0.452  -0.172  0.00  0.00     0.032 A 
HETATM   25  C   UNK N   1      -3.346  -0.645   0.585  0.00  0.00     0.017 A 
HETATM   26  C   UNK N   1      -4.143  -1.778   0.734  0.00  0.00     0.010 A 
HETATM   27  C   UNK N   1      -5.402  -1.837   0.126  0.00  0.00    -0.041 A 
HETATM   28  C   UNK N   1      -5.865  -0.737  -0.603  0.00  0.00     0.010 A 
HETATM   29  C   UNK N   1      -5.056   0.393  -0.764  0.00  0.00     0.017 A 
BRANCH  27  30
HETATM   30  C   UNK N   1      -6.249  -3.071   0.199  0.00  0.00     0.150 C 
BRANCH  30  31
HETATM   31  N   UNK N   1      -5.505  -4.210   0.720  0.00  0.00    -0.426 N 
HETATM   32  H   UNK N   1      -5.935  -5.059   1.085  0.00  0.00     0.150 HD
HETATM   33  H   UNK N   1      -4.486  -4.153   0.720  0.00  0.00     0.150 HD
ENDBRANCH  30  31
ENDBRANCH  27  30
ENDBRANCH  18  24
TORSDOF 4
