MODEL 1
REMARK VINA RESULT:      -6.6      0.000      0.000
REMARK  5 active torsions:
REMARK  status: ('A' for Active; 'I' for Inactive)
REMARK    1  A    between atoms: C_1  and  N_18 
REMARK       I    between atoms: C_5  and  N_7 
REMARK    2  A    between atoms: N_7  and  C_9 
REMARK    3  A    between atoms: C_9  and  C_10 
REMARK    4  A    between atoms: C_10  and  N_11 
REMARK    5  A    between atoms: N_11  and  C_23 
ROOT
HETATM    1  C   UNK N   1      33.292  17.730   7.486  0.00  0.00     0.134 A 
HETATM    2  C   UNK N   1      31.990  17.555   7.971  0.00  0.00     0.120 A 
HETATM    3  C   UNK N   1      30.957  17.189   7.171  0.00  0.00     0.114 A 
HETATM    4  N   UNK N   1      31.513  17.708   9.217  0.00  0.00    -0.237 N 
ATOM      5  HN  UNK N   1      32.038  17.977  10.049  1.00  0.00     0.197 HD
HETATM    6  O   UNK N   1      30.235  17.438   9.139  0.00  0.00    -0.156 OA
HETATM    7  N   UNK N   1      29.851  17.121   7.928  0.00  0.00    -0.237 N 
ATOM      8  HN  UNK N   1      28.910  16.874   7.624  1.00  0.00     0.197 HD
HETATM    9  C   UNK N   1      33.498  17.511   6.110  0.00  0.00     0.041 A 
HETATM   10  C   UNK N   1      32.422  17.144   5.273  0.00  0.00     0.034 A 
HETATM   11  C   UNK N   1      31.118  16.970   5.793  0.00  0.00     0.061 A 
ENDROOT
BRANCH  11  12
HETATM   12  N   UNK N   1      30.031  16.619   4.931  0.00  0.00    -0.382 N 
HETATM   13  C   UNK N   1      29.613  15.250   4.762  0.00  0.00     0.150 C 
BRANCH  12  14
HETATM   14  C   UNK N   1      29.239  17.641   4.291  0.00  0.00     0.142 C 
BRANCH  14  15
HETATM   15  C   UNK N   1      27.894  17.818   4.981  0.00  0.00     0.145 C 
BRANCH  15  16
HETATM   16  N   UNK N   1      27.552  19.220   5.033  0.00  0.00    -0.355 N 
HETATM   17  C   UNK N   1      27.655  19.921   6.200  0.00  0.00     0.215 C 
HETATM   18  C   UNK N   1      27.305  21.373   6.264  0.00  0.00     0.117 C 
HETATM   19  O   UNK N   1      28.040  19.368   7.220  0.00  0.00    -0.274 OA
HETATM   20  C   UNK N   1      27.088  19.857   3.824  0.00  0.00     0.152 C 
ENDBRANCH  15  16
ENDBRANCH  14  15
ENDBRANCH  12  14
ENDBRANCH  11  12
BRANCH   1  21
HETATM   21  N   UNK N   1      34.374  18.126   8.321  0.00  0.00    -0.113 N 
HETATM   22  O   UNK N   1      34.589  17.503   9.460  0.00  0.00    -0.532 OA
HETATM   23  O   UNK N   1      35.107  19.010   7.990  0.00  0.00    -0.532 OA
ENDBRANCH   1  21
TORSDOF 5
ENDMDL
MODEL 2
REMARK VINA RESULT:      -6.2      9.755     11.784
REMARK  5 active torsions:
REMARK  status: ('A' for Active; 'I' for Inactive)
REMARK    1  A    between atoms: C_1  and  N_18 
REMARK       I    between atoms: C_5  and  N_7 
REMARK    2  A    between atoms: N_7  and  C_9 
REMARK    3  A    between atoms: C_9  and  C_10 
REMARK    4  A    between atoms: C_10  and  N_11 
REMARK    5  A    between atoms: N_11  and  C_23 
ROOT
HETATM    1  C   UNK N   1      20.728  19.486   2.173  0.00  0.00     0.134 A 
HETATM    2  C   UNK N   1      20.279  18.214   1.795  0.00  0.00     0.120 A 
HETATM    3  C   UNK N   1      20.151  17.194   2.681  0.00  0.00     0.114 A 
HETATM    4  N   UNK N   1      19.920  17.758   0.584  0.00  0.00    -0.237 N 
ATOM      5  HN  UNK N   1      19.905  18.281  -0.291  1.00  0.00     0.197 HD
HETATM    6  O   UNK N   1      19.593  16.504   0.765  0.00  0.00    -0.156 OA
HETATM    7  N   UNK N   1      19.716  16.116   2.009  0.00  0.00    -0.237 N 
ATOM      8  HN  UNK N   1      19.522  15.190   2.389  1.00  0.00     0.197 HD
HETATM    9  C   UNK N   1      21.051  19.674   3.531  0.00  0.00     0.041 A 
HETATM   10  C   UNK N   1      20.932  18.610   4.451  0.00  0.00     0.034 A 
HETATM   11  C   UNK N   1      20.471  17.338   4.040  0.00  0.00     0.061 A 
ENDROOT
BRANCH  11  12
HETATM   12  N   UNK N   1      20.374  16.260   4.978  0.00  0.00    -0.382 N 
HETATM   13  C   UNK N   1      19.104  15.831   5.506  0.00  0.00     0.150 C 
BRANCH  12  14
HETATM   14  C   UNK N   1      21.540  15.489   5.335  0.00  0.00     0.142 C 
BRANCH  14  15
HETATM   15  C   UNK N   1      22.104  15.923   6.681  0.00  0.00     0.145 C 
BRANCH  15  16
HETATM   16  N   UNK N   1      21.838  14.908   7.673  0.00  0.00    -0.355 N 
HETATM   17  C   UNK N   1      20.999  15.158   8.721  0.00  0.00     0.215 C 
HETATM   18  C   UNK N   1      20.716  14.112   9.751  0.00  0.00     0.117 C 
HETATM   19  O   UNK N   1      20.460  16.249   8.832  0.00  0.00    -0.274 OA
HETATM   20  C   UNK N   1      22.491  13.628   7.535  0.00  0.00     0.152 C 
ENDBRANCH  15  16
ENDBRANCH  14  15
ENDBRANCH  12  14
ENDBRANCH  11  12
BRANCH   1  21
HETATM   21  N   UNK N   1      20.876  20.554   1.244  0.00  0.00    -0.113 N 
HETATM   22  O   UNK N   1      20.883  20.306  -0.048  0.00  0.00    -0.532 OA
HETATM   23  O   UNK N   1      20.974  21.683   1.624  0.00  0.00    -0.532 OA
ENDBRANCH   1  21
TORSDOF 5
ENDMDL
MODEL 3
REMARK VINA RESULT:      -6.1     11.318     13.688
REMARK  5 active torsions:
REMARK  status: ('A' for Active; 'I' for Inactive)
REMARK    1  A    between atoms: C_1  and  N_18 
REMARK       I    between atoms: C_5  and  N_7 
REMARK    2  A    between atoms: N_7  and  C_9 
REMARK    3  A    between atoms: C_9  and  C_10 
REMARK    4  A    between atoms: C_10  and  N_11 
REMARK    5  A    between atoms: N_11  and  C_23 
ROOT
HETATM    1  C   UNK N   1      29.978  23.224  -3.471  0.00  0.00     0.134 A 
HETATM    2  C   UNK N   1      28.628  23.595  -3.432  0.00  0.00     0.120 A 
HETATM    3  C   UNK N   1      27.958  24.025  -4.531  0.00  0.00     0.114 A 
HETATM    4  N   UNK N   1      27.776  23.618  -2.394  0.00  0.00    -0.237 N 
ATOM      5  HN  UNK N   1      27.974  23.352  -1.429  1.00  0.00     0.197 HD
HETATM    6  O   UNK N   1      26.641  24.052  -2.880  0.00  0.00    -0.156 OA
HETATM    7  N   UNK N   1      26.700  24.312  -4.162  0.00  0.00    -0.237 N 
ATOM      8  HN  UNK N   1      25.947  24.659  -4.756  1.00  0.00     0.197 HD
HETATM    9  C   UNK N   1      30.632  23.316  -4.715  0.00  0.00     0.041 A 
HETATM   10  C   UNK N   1      29.941  23.776  -5.857  0.00  0.00     0.034 A 
HETATM   11  C   UNK N   1      28.575  24.140  -5.787  0.00  0.00     0.061 A 
ENDROOT
BRANCH  11  12
HETATM   12  N   UNK N   1      27.890  24.626  -6.946  0.00  0.00    -0.382 N 
HETATM   13  C   UNK N   1      26.871  23.847  -7.602  0.00  0.00     0.150 C 
BRANCH  12  14
HETATM   14  C   UNK N   1      28.119  25.966  -7.428  0.00  0.00     0.142 C 
BRANCH  14  15
HETATM   15  C   UNK N   1      26.820  26.755  -7.516  0.00  0.00     0.145 C 
BRANCH  15  16
HETATM   16  N   UNK N   1      26.670  27.583  -6.342  0.00  0.00    -0.355 N 
HETATM   17  C   UNK N   1      25.707  27.308  -5.414  0.00  0.00     0.215 C 
HETATM   18  C   UNK N   1      25.544  28.157  -4.194  0.00  0.00     0.117 C 
HETATM   19  O   UNK N   1      24.958  26.354  -5.565  0.00  0.00    -0.274 OA
HETATM   20  C   UNK N   1      27.553  28.712  -6.182  0.00  0.00     0.152 C 
ENDBRANCH  15  16
ENDBRANCH  14  15
ENDBRANCH  12  14
ENDBRANCH  11  12
BRANCH   1  21
HETATM   21  N   UNK N   1      30.686  22.785  -2.317  0.00  0.00    -0.113 N 
HETATM   22  O   UNK N   1      31.784  22.073  -2.451  0.00  0.00    -0.532 OA
HETATM   23  O   UNK N   1      30.305  23.074  -1.222  0.00  0.00    -0.532 OA
ENDBRANCH   1  21
TORSDOF 5
ENDMDL
MODEL 4
REMARK VINA RESULT:      -6.0      7.370      9.690
REMARK  5 active torsions:
REMARK  status: ('A' for Active; 'I' for Inactive)
REMARK    1  A    between atoms: C_1  and  N_18 
REMARK       I    between atoms: C_5  and  N_7 
REMARK    2  A    between atoms: N_7  and  C_9 
REMARK    3  A    between atoms: C_9  and  C_10 
REMARK    4  A    between atoms: C_10  and  N_11 
REMARK    5  A    between atoms: N_11  and  C_23 
ROOT
HETATM    1  C   UNK N   1      35.232  12.556  16.127  0.00  0.00     0.134 A 
HETATM    2  C   UNK N   1      35.966  13.582  15.518  0.00  0.00     0.120 A 
HETATM    3  C   UNK N   1      35.978  13.770  14.174  0.00  0.00     0.114 A 
HETATM    4  N   UNK N   1      36.758  14.513  16.073  0.00  0.00    -0.237 N 
ATOM      5  HN  UNK N   1      36.957  14.641  17.066  1.00  0.00     0.197 HD
HETATM    6  O   UNK N   1      37.218  15.223  15.075  0.00  0.00    -0.156 OA
HETATM    7  N   UNK N   1      36.778  14.814  13.911  0.00  0.00    -0.237 N 
ATOM      8  HN  UNK N   1      36.998  15.208  12.996  1.00  0.00     0.197 HD
HETATM    9  C   UNK N   1      34.493  11.708  15.280  0.00  0.00     0.041 A 
HETATM   10  C   UNK N   1      34.515  11.893  13.881  0.00  0.00     0.034 A 
HETATM   11  C   UNK N   1      35.263  12.941  13.295  0.00  0.00     0.061 A 
ENDROOT
BRANCH  11  12
HETATM   12  N   UNK N   1      35.295  13.107  11.874  0.00  0.00    -0.382 N 
HETATM   13  C   UNK N   1      35.822  12.084  11.007  0.00  0.00     0.150 C 
BRANCH  12  14
HETATM   14  C   UNK N   1      34.691  14.261  11.254  0.00  0.00     0.142 C 
BRANCH  14  15
HETATM   15  C   UNK N   1      35.629  14.905  10.242  0.00  0.00     0.145 C 
BRANCH  15  16
HETATM   16  N   UNK N   1      34.867  15.686   9.297  0.00  0.00    -0.355 N 
HETATM   17  C   UNK N   1      34.864  17.050   9.360  0.00  0.00     0.215 C 
HETATM   18  C   UNK N   1      34.080  17.868   8.385  0.00  0.00     0.117 C 
HETATM   19  O   UNK N   1      35.512  17.629  10.221  0.00  0.00    -0.274 OA
HETATM   20  C   UNK N   1      34.098  14.989   8.294  0.00  0.00     0.152 C 
ENDBRANCH  15  16
ENDBRANCH  14  15
ENDBRANCH  12  14
ENDBRANCH  11  12
BRANCH   1  21
HETATM   21  N   UNK N   1      35.228  12.348  17.535  0.00  0.00    -0.113 N 
HETATM   22  O   UNK N   1      35.119  13.374  18.351  0.00  0.00    -0.532 OA
HETATM   23  O   UNK N   1      35.302  11.245  17.988  0.00  0.00    -0.532 OA
ENDBRANCH   1  21
TORSDOF 5
ENDMDL
MODEL 5
REMARK VINA RESULT:      -5.9      8.576      9.801
REMARK  5 active torsions:
REMARK  status: ('A' for Active; 'I' for Inactive)
REMARK    1  A    between atoms: C_1  and  N_18 
REMARK       I    between atoms: C_5  and  N_7 
REMARK    2  A    between atoms: N_7  and  C_9 
REMARK    3  A    between atoms: C_9  and  C_10 
REMARK    4  A    between atoms: C_10  and  N_11 
REMARK    5  A    between atoms: N_11  and  C_23 
ROOT
HETATM    1  C   UNK N   1      22.966  12.491  10.916  0.00  0.00     0.134 A 
HETATM    2  C   UNK N   1      23.661  12.925   9.780  0.00  0.00     0.120 A 
HETATM    3  C   UNK N   1      23.030  13.337   8.652  0.00  0.00     0.114 A 
HETATM    4  N   UNK N   1      24.985  13.012   9.568  0.00  0.00    -0.237 N 
ATOM      5  HN  UNK N   1      25.730  12.777  10.223  1.00  0.00     0.197 HD
HETATM    6  O   UNK N   1      25.115  13.462   8.346  0.00  0.00    -0.156 OA
HETATM    7  N   UNK N   1      23.967  13.672   7.752  0.00  0.00    -0.237 N 
ATOM      8  HN  UNK N   1      23.817  14.018   6.805  1.00  0.00     0.197 HD
HETATM    9  C   UNK N   1      21.559  12.493  10.845  0.00  0.00     0.041 A 
HETATM   10  C   UNK N   1      20.900  12.908   9.668  0.00  0.00     0.034 A 
HETATM   11  C   UNK N   1      21.630  13.346   8.538  0.00  0.00     0.061 A 
ENDROOT
BRANCH  11  12
HETATM   12  N   UNK N   1      20.952  13.743   7.342  0.00  0.00    -0.382 N 
HETATM   13  C   UNK N   1      20.717  12.817   6.264  0.00  0.00     0.150 C 
BRANCH  12  14
HETATM   14  C   UNK N   1      20.376  15.061   7.226  0.00  0.00     0.142 C 
BRANCH  14  15
HETATM   15  C   UNK N   1      21.440  16.145   7.328  0.00  0.00     0.145 C 
BRANCH  15  16
HETATM   16  N   UNK N   1      21.541  16.849   6.071  0.00  0.00    -0.355 N 
HETATM   17  C   UNK N   1      21.291  18.190   6.001  0.00  0.00     0.215 C 
HETATM   18  C   UNK N   1      21.395  18.929   4.706  0.00  0.00     0.117 C 
HETATM   19  O   UNK N   1      20.979  18.813   7.005  0.00  0.00    -0.274 OA
HETATM   20  C   UNK N   1      21.899  16.099   4.892  0.00  0.00     0.152 C 
ENDBRANCH  15  16
ENDBRANCH  14  15
ENDBRANCH  12  14
ENDBRANCH  11  12
BRANCH   1  21
HETATM   21  N   UNK N   1      23.626  12.046  12.096  0.00  0.00    -0.113 N 
HETATM   22  O   UNK N   1      22.929  11.778  13.179  0.00  0.00    -0.532 OA
HETATM   23  O   UNK N   1      24.811  11.893  12.110  0.00  0.00    -0.532 OA
ENDBRANCH   1  21
TORSDOF 5
ENDMDL
MODEL 6
REMARK VINA RESULT:      -5.9      9.831     11.809
REMARK  5 active torsions:
REMARK  status: ('A' for Active; 'I' for Inactive)
REMARK    1  A    between atoms: C_1  and  N_18 
REMARK       I    between atoms: C_5  and  N_7 
REMARK    2  A    between atoms: N_7  and  C_9 
REMARK    3  A    between atoms: C_9  and  C_10 
REMARK    4  A    between atoms: C_10  and  N_11 
REMARK    5  A    between atoms: N_11  and  C_23 
ROOT
HETATM    1  C   UNK N   1      20.832  19.280   2.108  0.00  0.00     0.134 A 
HETATM    2  C   UNK N   1      20.335  18.117   1.506  0.00  0.00     0.120 A 
HETATM    3  C   UNK N   1      20.134  16.967   2.198  0.00  0.00     0.114 A 
HETATM    4  N   UNK N   1      19.989  17.897   0.228  0.00  0.00    -0.237 N 
ATOM      5  HN  UNK N   1      20.022  18.563  -0.544  1.00  0.00     0.197 HD
HETATM    6  O   UNK N   1      19.598  16.648   0.180  0.00  0.00    -0.156 OA
HETATM    7  N   UNK N   1      19.669  16.046   1.341  0.00  0.00    -0.237 N 
ATOM      8  HN  UNK N   1      19.421  15.079   1.549  1.00  0.00     0.197 HD
HETATM    9  C   UNK N   1      21.126  19.213   3.484  0.00  0.00     0.041 A 
HETATM   10  C   UNK N   1      20.931  18.014   4.203  0.00  0.00     0.034 A 
HETATM   11  C   UNK N   1      20.423  16.857   3.567  0.00  0.00     0.061 A 
ENDROOT
BRANCH  11  12
HETATM   12  N   UNK N   1      20.250  15.639   4.301  0.00  0.00    -0.382 N 
HETATM   13  C   UNK N   1      18.956  15.223   4.779  0.00  0.00     0.150 C 
BRANCH  12  14
HETATM   14  C   UNK N   1      21.353  14.728   4.484  0.00  0.00     0.142 C 
BRANCH  14  15
HETATM   15  C   UNK N   1      21.517  13.804   3.286  0.00  0.00     0.145 C 
BRANCH  15  16
HETATM   16  N   UNK N   1      22.864  13.902   2.774  0.00  0.00    -0.355 N 
HETATM   17  C   UNK N   1      23.095  14.322   1.495  0.00  0.00     0.215 C 
HETATM   18  C   UNK N   1      24.485  14.430   0.956  0.00  0.00     0.117 C 
HETATM   19  O   UNK N   1      22.161  14.623   0.766  0.00  0.00    -0.274 OA
HETATM   20  C   UNK N   1      23.956  13.533   3.641  0.00  0.00     0.152 C 
ENDBRANCH  15  16
ENDBRANCH  14  15
ENDBRANCH  12  14
ENDBRANCH  11  12
BRANCH   1  21
HETATM   21  N   UNK N   1      21.056  20.484   1.383  0.00  0.00    -0.113 N 
HETATM   22  O   UNK N   1      21.115  20.458   0.069  0.00  0.00    -0.532 OA
HETATM   23  O   UNK N   1      21.171  21.527   1.954  0.00  0.00    -0.532 OA
ENDBRANCH   1  21
TORSDOF 5
ENDMDL
MODEL 7
REMARK VINA RESULT:      -5.9      2.879      4.312
REMARK  5 active torsions:
REMARK  status: ('A' for Active; 'I' for Inactive)
REMARK    1  A    between atoms: C_1  and  N_18 
REMARK       I    between atoms: C_5  and  N_7 
REMARK    2  A    between atoms: N_7  and  C_9 
REMARK    3  A    between atoms: C_9  and  C_10 
REMARK    4  A    between atoms: C_10  and  N_11 
REMARK    5  A    between atoms: N_11  and  C_23 
ROOT
HETATM    1  C   UNK N   1      34.593  15.811   9.745  0.00  0.00     0.134 A 
HETATM    2  C   UNK N   1      34.291  17.019   9.104  0.00  0.00     0.120 A 
HETATM    3  C   UNK N   1      33.070  17.278   8.574  0.00  0.00     0.114 A 
HETATM    4  N   UNK N   1      35.074  18.088   8.882  0.00  0.00    -0.237 N 
ATOM      5  HN  UNK N   1      36.048  18.207   9.159  1.00  0.00     0.197 HD
HETATM    6  O   UNK N   1      34.323  18.944   8.237  0.00  0.00    -0.156 OA
HETATM    7  N   UNK N   1      33.108  18.503   8.027  0.00  0.00    -0.237 N 
ATOM      8  HN  UNK N   1      32.350  18.989   7.548  1.00  0.00     0.197 HD
HETATM    9  C   UNK N   1      33.564  14.851   9.818  0.00  0.00     0.041 A 
HETATM   10  C   UNK N   1      32.297  15.113   9.255  0.00  0.00     0.034 A 
HETATM   11  C   UNK N   1      32.021  16.346   8.619  0.00  0.00     0.061 A 
ENDROOT
BRANCH  11  12
HETATM   12  N   UNK N   1      30.738  16.592   8.031  0.00  0.00    -0.382 N 
HETATM   13  C   UNK N   1      29.739  17.381   8.705  0.00  0.00     0.150 C 
BRANCH  12  14
HETATM   14  C   UNK N   1      30.448  16.153   6.688  0.00  0.00     0.142 C 
BRANCH  14  15
HETATM   15  C   UNK N   1      30.541  17.301   5.694  0.00  0.00     0.145 C 
BRANCH  15  16
HETATM   16  N   UNK N   1      31.153  16.840   4.470  0.00  0.00    -0.355 N 
HETATM   17  C   UNK N   1      32.484  17.036   4.238  0.00  0.00     0.215 C 
HETATM   18  C   UNK N   1      33.128  16.560   2.976  0.00  0.00     0.117 C 
HETATM   19  O   UNK N   1      33.177  17.607   5.068  0.00  0.00    -0.274 OA
HETATM   20  C   UNK N   1      30.320  16.178   3.495  0.00  0.00     0.152 C 
ENDBRANCH  15  16
ENDBRANCH  14  15
ENDBRANCH  12  14
ENDBRANCH  11  12
BRANCH   1  21
HETATM   21  N   UNK N   1      35.877  15.531  10.290  0.00  0.00    -0.113 N 
HETATM   22  O   UNK N   1      36.362  14.310  10.238  0.00  0.00    -0.532 OA
HETATM   23  O   UNK N   1      36.533  16.401  10.780  0.00  0.00    -0.532 OA
ENDBRANCH   1  21
TORSDOF 5
ENDMDL
MODEL 8
REMARK VINA RESULT:      -5.8     12.462     15.840
REMARK  5 active torsions:
REMARK  status: ('A' for Active; 'I' for Inactive)
REMARK    1  A    between atoms: C_1  and  N_18 
REMARK       I    between atoms: C_5  and  N_7 
REMARK    2  A    between atoms: N_7  and  C_9 
REMARK    3  A    between atoms: C_9  and  C_10 
REMARK    4  A    between atoms: C_10  and  N_11 
REMARK    5  A    between atoms: N_11  and  C_23 
ROOT
HETATM    1  C   UNK N   1      26.040  25.494  -8.568  0.00  0.00     0.134 A 
HETATM    2  C   UNK N   1      25.723  24.499  -7.634  0.00  0.00     0.120 A 
HETATM    3  C   UNK N   1      26.104  24.571  -6.334  0.00  0.00     0.114 A 
HETATM    4  N   UNK N   1      25.043  23.353  -7.803  0.00  0.00    -0.237 N 
ATOM      5  HN  UNK N   1      24.623  23.007  -8.665  1.00  0.00     0.197 HD
HETATM    6  O   UNK N   1      25.033  22.776  -6.628  0.00  0.00    -0.156 OA
HETATM    7  N   UNK N   1      25.660  23.469  -5.711  0.00  0.00    -0.237 N 
ATOM      8  HN  UNK N   1      25.784  23.223  -4.729  1.00  0.00     0.197 HD
HETATM    9  C   UNK N   1      26.788  26.594  -8.102  0.00  0.00     0.041 A 
HETATM   10  C   UNK N   1      27.198  26.664  -6.754  0.00  0.00     0.034 A 
HETATM   11  C   UNK N   1      26.857  25.646  -5.833  0.00  0.00     0.061 A 
ENDROOT
BRANCH  11  12
HETATM   12  N   UNK N   1      27.297  25.717  -4.472  0.00  0.00    -0.382 N 
HETATM   13  C   UNK N   1      26.433  26.197  -3.424  0.00  0.00     0.150 C 
BRANCH  12  14
HETATM   14  C   UNK N   1      28.587  25.197  -4.088  0.00  0.00     0.142 C 
BRANCH  14  15
HETATM   15  C   UNK N   1      28.453  23.906  -3.294  0.00  0.00     0.145 C 
BRANCH  15  16
HETATM   16  N   UNK N   1      29.555  23.025  -3.603  0.00  0.00    -0.355 N 
HETATM   17  C   UNK N   1      30.444  22.652  -2.635  0.00  0.00     0.215 C 
HETATM   18  C   UNK N   1      31.586  21.739  -2.945  0.00  0.00     0.117 C 
HETATM   19  O   UNK N   1      30.316  23.060  -1.490  0.00  0.00    -0.274 OA
HETATM   20  C   UNK N   1      29.701  22.561  -4.961  0.00  0.00     0.152 C 
ENDBRANCH  15  16
ENDBRANCH  14  15
ENDBRANCH  12  14
ENDBRANCH  11  12
BRANCH   1  21
HETATM   21  N   UNK N   1      25.652  25.414  -9.935  0.00  0.00    -0.113 N 
HETATM   22  O   UNK N   1      26.337  26.064 -10.851  0.00  0.00    -0.532 OA
HETATM   23  O   UNK N   1      24.719  24.745 -10.265  0.00  0.00    -0.532 OA
ENDBRANCH   1  21
TORSDOF 5
ENDMDL
MODEL 9
REMARK VINA RESULT:      -5.8      2.031      4.281
REMARK  5 active torsions:
REMARK  status: ('A' for Active; 'I' for Inactive)
REMARK    1  A    between atoms: C_1  and  N_18 
REMARK       I    between atoms: C_5  and  N_7 
REMARK    2  A    between atoms: N_7  and  C_9 
REMARK    3  A    between atoms: C_9  and  C_10 
REMARK    4  A    between atoms: C_10  and  N_11 
REMARK    5  A    between atoms: N_11  and  C_23 
ROOT
HETATM    1  C   UNK N   1      33.511  17.767   7.603  0.00  0.00     0.134 A 
HETATM    2  C   UNK N   1      32.184  17.527   7.980  0.00  0.00     0.120 A 
HETATM    3  C   UNK N   1      31.227  17.167   7.087  0.00  0.00     0.114 A 
HETATM    4  N   UNK N   1      31.611  17.601   9.192  0.00  0.00    -0.237 N 
ATOM      5  HN  UNK N   1      32.063  17.845  10.073  1.00  0.00     0.197 HD
HETATM    6  O   UNK N   1      30.353  17.294   9.005  0.00  0.00    -0.156 OA
HETATM    7  N   UNK N   1      30.071  17.026   7.754  0.00  0.00    -0.237 N 
ATOM      8  HN  UNK N   1      29.164  16.764   7.369  1.00  0.00     0.197 HD
HETATM    9  C   UNK N   1      33.826  17.625   6.238  0.00  0.00     0.041 A 
HETATM   10  C   UNK N   1      32.829  17.265   5.305  0.00  0.00     0.034 A 
HETATM   11  C   UNK N   1      31.497  17.023   5.717  0.00  0.00     0.061 A 
ENDROOT
BRANCH  11  12
HETATM   12  N   UNK N   1      30.490  16.680   4.759  0.00  0.00    -0.382 N 
HETATM   13  C   UNK N   1      29.366  17.545   4.503  0.00  0.00     0.150 C 
BRANCH  12  14
HETATM   14  C   UNK N   1      30.630  15.506   3.933  0.00  0.00     0.142 C 
BRANCH  14  15
HETATM   15  C   UNK N   1      30.621  14.233   4.767  0.00  0.00     0.145 C 
BRANCH  15  16
HETATM   16  N   UNK N   1      31.953  13.679   4.828  0.00  0.00    -0.355 N 
HETATM   17  C   UNK N   1      32.579  13.497   6.027  0.00  0.00     0.215 C 
HETATM   18  C   UNK N   1      33.957  12.922   6.101  0.00  0.00     0.117 C 
HETATM   19  O   UNK N   1      32.017  13.802   7.069  0.00  0.00    -0.274 OA
HETATM   20  C   UNK N   1      32.609  13.335   3.589  0.00  0.00     0.152 C 
ENDBRANCH  15  16
ENDBRANCH  14  15
ENDBRANCH  12  14
ENDBRANCH  11  12
BRANCH   1  21
HETATM   21  N   UNK N   1      34.514  18.157   8.535  0.00  0.00    -0.113 N 
HETATM   22  O   UNK N   1      34.712  17.445   9.624  0.00  0.00    -0.532 OA
HETATM   23  O   UNK N   1      35.196  19.116   8.331  0.00  0.00    -0.532 OA
ENDBRANCH   1  21
TORSDOF 5
ENDMDL
