MODEL 1
REMARK VINA RESULT:      -7.2      0.000      0.000
REMARK  5 active torsions:
REMARK  status: ('A' for Active; 'I' for Inactive)
REMARK       I    between atoms: C_1  and  N_8 
REMARK       I    between atoms: N_9  and  C_1 
REMARK    1  A    between atoms: C_10  and  N_9 
REMARK    2  A    between atoms: C_10  and  C_18 
REMARK    3  A    between atoms: C_11  and  C_10 
REMARK    4  A    between atoms: C_12  and  C_11 
REMARK       I    between atoms: N_20  and  C_18 
REMARK    5  A    between atoms: N_20  and  C_29 
ROOT
HETATM    1  C   UNK N   1      29.954  24.040  -5.343  0.00  0.00     0.077 C 
HETATM    2  C   UNK N   1      29.981  22.507  -5.248  0.00  0.00     0.275 C 
HETATM    3  C   UNK N   1      30.741  22.573  -2.980  0.00  0.00     0.275 C 
HETATM    4  C   UNK N   1      30.783  24.092  -3.005  0.00  0.00     0.077 C 
HETATM    5  N   UNK N   1      31.018  22.055  -4.316  0.00  0.00     0.084 N 
HETATM    6  C   UNK N   1      30.912  20.612  -4.221  0.00  0.00     0.309 C 
HETATM    7  C   UNK N   1      29.970  26.087  -3.933  0.00  0.00     0.091 C 
HETATM    8  N   UNK N   1      30.228  27.215  -3.936  0.00  0.00    -0.195 NA
HETATM    9  C   UNK N   1      29.722  24.644  -3.958  0.00  0.00     0.125 C 
ENDROOT
BRANCH   9  10
HETATM   10  N   UNK N   1      28.425  24.279  -3.409  0.00  0.00    -0.337 N 
HETATM   11  C   UNK N   1      27.131  24.349  -3.848  0.00  0.00     0.241 C 
HETATM   12  O   UNK N   1      26.266  24.000  -3.059  0.00  0.00    -0.271 OA
HETATM   13  H   UNK N   1      28.494  23.888  -2.509  0.00  0.00     0.164 HD
BRANCH  11  14
HETATM   14  C   UNK N   1      26.651  24.865  -5.206  0.00  0.00     0.178 C 
BRANCH  14  15
HETATM   15  N   UNK N   1      26.009  23.715  -5.848  0.00  0.00    -0.330 N 
HETATM   16  C   UNK N   1      25.735  23.373  -7.149  0.00  0.00     0.319 C 
HETATM   17  O   UNK N   1      24.935  22.466  -7.329  0.00  0.00    -0.247 OA
HETATM   18  N   UNK N   1      26.257  24.009  -8.247  0.00  0.00    -0.330 N 
HETATM   19  C   UNK N   1      25.714  23.717  -9.564  0.00  0.00     0.153 C 
HETATM   20  C   UNK N   1      27.346  24.956  -8.176  0.00  0.00     0.153 C 
HETATM   21  C   UNK N   1      25.378  25.041 -10.291  0.00  0.00     0.187 C 
HETATM   22  O   UNK N   1      25.883  26.180  -9.619  0.00  0.00    -0.388 OA
HETATM   23  C   UNK N   1      27.243  25.941  -9.350  0.00  0.00     0.187 C 
HETATM   24  H   UNK N   1      25.705  23.038  -5.201  0.00  0.00     0.165 HD
ENDBRANCH  14  15
BRANCH  14  25
HETATM   25  C   UNK N   1      25.571  25.893  -4.815  0.00  0.00     0.039 C 
BRANCH  25  26
HETATM   26  C   UNK N   1      25.900  27.356  -5.077  0.00  0.00    -0.012 C 
HETATM   27  C   UNK N   1      25.979  28.113  -3.756  0.00  0.00     0.005 C 
HETATM   28  C   UNK N   1      26.308  29.582  -4.012  0.00  0.00     0.000 C 
HETATM   29  C   UNK N   1      27.633  29.700  -4.762  0.00  0.00     0.000 C 
HETATM   30  C   UNK N   1      27.533  28.973  -6.096  0.00  0.00     0.000 C 
HETATM   31  C   UNK N   1      27.192  27.510  -5.859  0.00  0.00     0.005 C 
ENDBRANCH  25  26
ENDBRANCH  14  25
ENDBRANCH  11  14
ENDBRANCH   9  10
TORSDOF 5
ENDMDL
MODEL 2
REMARK VINA RESULT:      -7.1     13.686     15.454
REMARK  5 active torsions:
REMARK  status: ('A' for Active; 'I' for Inactive)
REMARK       I    between atoms: C_1  and  N_8 
REMARK       I    between atoms: N_9  and  C_1 
REMARK    1  A    between atoms: C_10  and  N_9 
REMARK    2  A    between atoms: C_10  and  C_18 
REMARK    3  A    between atoms: C_11  and  C_10 
REMARK    4  A    between atoms: C_12  and  C_11 
REMARK       I    between atoms: N_20  and  C_18 
REMARK    5  A    between atoms: N_20  and  C_29 
ROOT
HETATM    1  C   UNK N   1      22.125  15.564   6.740  0.00  0.00     0.077 C 
HETATM    2  C   UNK N   1      22.239  14.057   7.015  0.00  0.00     0.275 C 
HETATM    3  C   UNK N   1      20.797  14.204   8.919  0.00  0.00     0.275 C 
HETATM    4  C   UNK N   1      20.665  15.708   8.741  0.00  0.00     0.077 C 
HETATM    5  N   UNK N   1      22.108  13.771   8.447  0.00  0.00     0.084 N 
HETATM    6  C   UNK N   1      22.138  12.329   8.602  0.00  0.00     0.309 C 
HETATM    7  C   UNK N   1      20.739  17.552   7.294  0.00  0.00     0.091 C 
HETATM    8  N   UNK N   1      20.756  18.708   7.355  0.00  0.00    -0.195 NA
HETATM    9  C   UNK N   1      20.789  16.089   7.266  0.00  0.00     0.125 C 
ENDROOT
BRANCH   9  10
HETATM   10  N   UNK N   1      19.654  15.494   6.576  0.00  0.00    -0.337 N 
HETATM   11  C   UNK N   1      19.270  15.369   5.268  0.00  0.00     0.241 C 
HETATM   12  O   UNK N   1      18.183  14.850   5.065  0.00  0.00    -0.271 OA
HETATM   13  H   UNK N   1      19.010  15.082   7.196  0.00  0.00     0.164 HD
BRANCH  11  14
HETATM   14  C   UNK N   1      20.038  15.855   4.037  0.00  0.00     0.178 C 
BRANCH  14  15
HETATM   15  N   UNK N   1      19.474  15.104   2.913  0.00  0.00    -0.330 N 
HETATM   16  C   UNK N   1      20.002  14.285   1.946  0.00  0.00     0.319 C 
HETATM   17  O   UNK N   1      19.294  14.035   0.981  0.00  0.00    -0.247 OA
HETATM   18  N   UNK N   1      21.276  13.776   1.969  0.00  0.00    -0.330 N 
HETATM   19  C   UNK N   1      21.802  13.120   0.782  0.00  0.00     0.153 C 
HETATM   20  C   UNK N   1      22.137  13.836   3.128  0.00  0.00     0.153 C 
HETATM   21  C   UNK N   1      23.193  13.707   0.440  0.00  0.00     0.187 C 
HETATM   22  O   UNK N   1      23.705  14.541   1.463  0.00  0.00    -0.388 OA
HETATM   23  C   UNK N   1      23.605  13.830   2.674  0.00  0.00     0.187 C 
HETATM   24  H   UNK N   1      18.499  15.212   2.832  0.00  0.00     0.165 HD
ENDBRANCH  14  15
BRANCH  14  25
HETATM   25  C   UNK N   1      19.603  17.330   3.928  0.00  0.00     0.039 C 
BRANCH  25  26
HETATM   26  C   UNK N   1      20.515  18.249   3.126  0.00  0.00    -0.012 C 
HETATM   27  C   UNK N   1      19.726  19.454   2.629  0.00  0.00     0.005 C 
HETATM   28  C   UNK N   1      20.634  20.380   1.823  0.00  0.00     0.000 C 
HETATM   29  C   UNK N   1      21.808  20.842   2.683  0.00  0.00     0.000 C 
HETATM   30  C   UNK N   1      22.612  19.634   3.144  0.00  0.00     0.000 C 
HETATM   31  C   UNK N   1      21.718  18.694   3.937  0.00  0.00     0.005 C 
ENDBRANCH  25  26
ENDBRANCH  14  25
ENDBRANCH  11  14
ENDBRANCH   9  10
TORSDOF 5
ENDMDL
MODEL 3
REMARK VINA RESULT:      -6.9      2.187      6.294
REMARK  5 active torsions:
REMARK  status: ('A' for Active; 'I' for Inactive)
REMARK       I    between atoms: C_1  and  N_8 
REMARK       I    between atoms: N_9  and  C_1 
REMARK    1  A    between atoms: C_10  and  N_9 
REMARK    2  A    between atoms: C_10  and  C_18 
REMARK    3  A    between atoms: C_11  and  C_10 
REMARK    4  A    between atoms: C_12  and  C_11 
REMARK       I    between atoms: N_20  and  C_18 
REMARK    5  A    between atoms: N_20  and  C_29 
ROOT
HETATM    1  C   UNK N   1      28.670  27.491  -4.361  0.00  0.00     0.077 C 
HETATM    2  C   UNK N   1      27.996  28.389  -3.313  0.00  0.00     0.275 C 
HETATM    3  C   UNK N   1      27.324  29.975  -4.975  0.00  0.00     0.275 C 
HETATM    4  C   UNK N   1      28.003  29.165  -6.067  0.00  0.00     0.077 C 
HETATM    5  N   UNK N   1      28.044  29.798  -3.718  0.00  0.00     0.084 N 
HETATM    6  C   UNK N   1      27.312  30.556  -2.722  0.00  0.00     0.309 C 
HETATM    7  C   UNK N   1      28.760  27.073  -6.810  0.00  0.00     0.091 C 
HETATM    8  N   UNK N   1      29.420  26.634  -7.653  0.00  0.00    -0.195 NA
HETATM    9  C   UNK N   1      27.992  27.676  -5.719  0.00  0.00     0.125 C 
ENDROOT
BRANCH   9  10
HETATM   10  N   UNK N   1      26.600  27.253  -5.700  0.00  0.00    -0.337 N 
HETATM   11  C   UNK N   1      25.952  26.053  -5.596  0.00  0.00     0.241 C 
HETATM   12  O   UNK N   1      24.734  26.078  -5.691  0.00  0.00    -0.271 OA
HETATM   13  H   UNK N   1      25.976  28.010  -5.781  0.00  0.00     0.164 HD
BRANCH  11  14
HETATM   14  C   UNK N   1      26.596  24.675  -5.422  0.00  0.00     0.178 C 
BRANCH  14  15
HETATM   15  N   UNK N   1      26.698  24.481  -3.974  0.00  0.00    -0.330 N 
HETATM   16  C   UNK N   1      27.640  23.921  -3.146  0.00  0.00     0.319 C 
HETATM   17  O   UNK N   1      27.293  23.667  -2.001  0.00  0.00    -0.247 OA
HETATM   18  N   UNK N   1      28.914  23.588  -3.530  0.00  0.00    -0.330 N 
HETATM   19  C   UNK N   1      29.740  22.788  -2.640  0.00  0.00     0.153 C 
HETATM   20  C   UNK N   1      29.503  24.006  -4.782  0.00  0.00     0.153 C 
HETATM   21  C   UNK N   1      30.341  21.596  -3.423  0.00  0.00     0.187 C 
HETATM   22  O   UNK N   1      30.144  21.701  -4.821  0.00  0.00    -0.388 OA
HETATM   23  C   UNK N   1      30.568  22.985  -5.210  0.00  0.00     0.187 C 
HETATM   24  H   UNK N   1      25.916  24.827  -3.486  0.00  0.00     0.165 HD
ENDBRANCH  14  15
BRANCH  14  25
HETATM   25  C   UNK N   1      25.521  23.726  -5.985  0.00  0.00     0.039 C 
BRANCH  25  26
HETATM   26  C   UNK N   1      26.024  22.479  -6.701  0.00  0.00    -0.012 C 
HETATM   27  C   UNK N   1      25.049  22.089  -7.806  0.00  0.00     0.005 C 
HETATM   28  C   UNK N   1      25.547  20.839  -8.528  0.00  0.00     0.000 C 
HETATM   29  C   UNK N   1      26.933  21.091  -9.117  0.00  0.00     0.000 C 
HETATM   30  C   UNK N   1      27.908  21.443  -8.002  0.00  0.00     0.000 C 
HETATM   31  C   UNK N   1      27.419  22.679  -7.264  0.00  0.00     0.005 C 
ENDBRANCH  25  26
ENDBRANCH  14  25
ENDBRANCH  11  14
ENDBRANCH   9  10
TORSDOF 5
ENDMDL
MODEL 4
REMARK VINA RESULT:      -6.8     13.390     16.644
REMARK  5 active torsions:
REMARK  status: ('A' for Active; 'I' for Inactive)
REMARK       I    between atoms: C_1  and  N_8 
REMARK       I    between atoms: N_9  and  C_1 
REMARK    1  A    between atoms: C_10  and  N_9 
REMARK    2  A    between atoms: C_10  and  C_18 
REMARK    3  A    between atoms: C_11  and  C_10 
REMARK    4  A    between atoms: C_12  and  C_11 
REMARK       I    between atoms: N_20  and  C_18 
REMARK    5  A    between atoms: N_20  and  C_29 
ROOT
HETATM    1  C   UNK N   1      35.108  15.400   8.386  0.00  0.00     0.077 C 
HETATM    2  C   UNK N   1      35.163  14.154   9.283  0.00  0.00     0.275 C 
HETATM    3  C   UNK N   1      35.300  15.480  11.270  0.00  0.00     0.275 C 
HETATM    4  C   UNK N   1      35.292  16.762  10.452  0.00  0.00     0.077 C 
HETATM    5  N   UNK N   1      35.935  14.415  10.501  0.00  0.00     0.084 N 
HETATM    6  C   UNK N   1      35.860  13.223  11.323  0.00  0.00     0.309 C 
HETATM    7  C   UNK N   1      34.681  17.847   8.465  0.00  0.00     0.091 C 
HETATM    8  N   UNK N   1      34.890  18.845   7.917  0.00  0.00    -0.195 NA
HETATM    9  C   UNK N   1      34.500  16.570   9.159  0.00  0.00     0.125 C 
ENDROOT
BRANCH   9  10
HETATM   10  N   UNK N   1      33.118  16.320   9.539  0.00  0.00    -0.337 N 
HETATM   11  C   UNK N   1      31.968  16.008   8.867  0.00  0.00     0.241 C 
HETATM   12  O   UNK N   1      30.946  15.938   9.534  0.00  0.00    -0.271 OA
HETATM   13  H   UNK N   1      32.977  16.389  10.511  0.00  0.00     0.164 HD
BRANCH  11  14
HETATM   14  C   UNK N   1      31.818  15.787   7.360  0.00  0.00     0.178 C 
BRANCH  14  15
HETATM   15  N   UNK N   1      32.052  14.355   7.159  0.00  0.00    -0.330 N 
HETATM   16  C   UNK N   1      32.493  13.596   6.103  0.00  0.00     0.319 C 
HETATM   17  O   UNK N   1      32.312  12.388   6.173  0.00  0.00    -0.247 OA
HETATM   18  N   UNK N   1      33.073  14.103   4.968  0.00  0.00    -0.330 N 
HETATM   19  C   UNK N   1      33.281  13.231   3.824  0.00  0.00     0.153 C 
HETATM   20  C   UNK N   1      33.514  15.474   4.844  0.00  0.00     0.153 C 
HETATM   21  C   UNK N   1      32.721  13.906   2.549  0.00  0.00     0.187 C 
HETATM   22  O   UNK N   1      32.368  15.261   2.754  0.00  0.00    -0.388 OA
HETATM   23  C   UNK N   1      33.467  15.893   3.367  0.00  0.00     0.187 C 
HETATM   24  H   UNK N   1      31.845  13.818   7.957  0.00  0.00     0.165 HD
ENDBRANCH  14  15
BRANCH  14  25
HETATM   25  C   UNK N   1      30.327  16.094   7.120  0.00  0.00     0.039 C 
BRANCH  25  26
HETATM   26  C   UNK N   1      29.986  16.851   5.844  0.00  0.00    -0.012 C 
HETATM   27  C   UNK N   1      29.556  15.869   4.760  0.00  0.00     0.005 C 
HETATM   28  C   UNK N   1      29.213  16.622   3.476  0.00  0.00     0.000 C 
HETATM   29  C   UNK N   1      28.099  17.631   3.741  0.00  0.00     0.000 C 
HETATM   30  C   UNK N   1      28.551  18.629   4.797  0.00  0.00     0.000 C 
HETATM   31  C   UNK N   1      28.909  17.894   6.079  0.00  0.00     0.005 C 
ENDBRANCH  25  26
ENDBRANCH  14  25
ENDBRANCH  11  14
ENDBRANCH   9  10
TORSDOF 5
ENDMDL
MODEL 5
REMARK VINA RESULT:      -6.8     13.572     16.944
REMARK  5 active torsions:
REMARK  status: ('A' for Active; 'I' for Inactive)
REMARK       I    between atoms: C_1  and  N_8 
REMARK       I    between atoms: N_9  and  C_1 
REMARK    1  A    between atoms: C_10  and  N_9 
REMARK    2  A    between atoms: C_10  and  C_18 
REMARK    3  A    between atoms: C_11  and  C_10 
REMARK    4  A    between atoms: C_12  and  C_11 
REMARK       I    between atoms: N_20  and  C_18 
REMARK    5  A    between atoms: N_20  and  C_29 
ROOT
HETATM    1  C   UNK N   1      35.928  15.234   9.026  0.00  0.00     0.077 C 
HETATM    2  C   UNK N   1      36.129  13.952   9.848  0.00  0.00     0.275 C 
HETATM    3  C   UNK N   1      35.638  15.084  11.898  0.00  0.00     0.275 C 
HETATM    4  C   UNK N   1      35.461  16.403  11.164  0.00  0.00     0.077 C 
HETATM    5  N   UNK N   1      36.617  14.261  11.196  0.00  0.00     0.084 N 
HETATM    6  C   UNK N   1      36.692  13.010  11.924  0.00  0.00     0.309 C 
HETATM    7  C   UNK N   1      34.936  17.509   9.164  0.00  0.00     0.091 C 
HETATM    8  N   UNK N   1      34.992  18.575   8.717  0.00  0.00    -0.195 NA
HETATM    9  C   UNK N   1      34.950  16.164   9.743  0.00  0.00     0.125 C 
ENDROOT
BRANCH   9  10
HETATM   10  N   UNK N   1      33.622  15.581   9.861  0.00  0.00    -0.337 N 
HETATM   11  C   UNK N   1      32.589  15.339   8.998  0.00  0.00     0.241 C 
HETATM   12  O   UNK N   1      31.565  14.882   9.484  0.00  0.00    -0.271 OA
HETATM   13  H   UNK N   1      33.419  15.290  10.779  0.00  0.00     0.164 HD
BRANCH  11  14
HETATM   14  C   UNK N   1      32.564  15.626   7.495  0.00  0.00     0.178 C 
BRANCH  14  15
HETATM   15  N   UNK N   1      31.591  14.680   6.941  0.00  0.00    -0.330 N 
HETATM   16  C   UNK N   1      31.092  14.445   5.683  0.00  0.00     0.319 C 
HETATM   17  O   UNK N   1      30.081  13.762   5.605  0.00  0.00    -0.247 OA
HETATM   18  N   UNK N   1      31.620  14.961   4.528  0.00  0.00    -0.330 N 
HETATM   19  C   UNK N   1      30.872  14.840   3.287  0.00  0.00     0.153 C 
HETATM   20  C   UNK N   1      32.907  15.616   4.463  0.00  0.00     0.153 C 
HETATM   21  C   UNK N   1      30.785  16.223   2.598  0.00  0.00     0.187 C 
HETATM   22  O   UNK N   1      31.626  17.191   3.198  0.00  0.00    -0.388 OA
HETATM   23  C   UNK N   1      32.909  16.624   3.304  0.00  0.00     0.187 C 
HETATM   24  H   UNK N   1      31.210  14.081   7.623  0.00  0.00     0.165 HD
ENDBRANCH  14  15
BRANCH  14  25
HETATM   25  C   UNK N   1      31.976  17.049   7.432  0.00  0.00     0.039 C 
BRANCH  25  26
HETATM   26  C   UNK N   1      30.531  17.207   7.887  0.00  0.00    -0.012 C 
HETATM   27  C   UNK N   1      30.450  18.252   8.994  0.00  0.00     0.005 C 
HETATM   28  C   UNK N   1      29.003  18.416   9.455  0.00  0.00     0.000 C 
HETATM   29  C   UNK N   1      28.121  18.829   8.280  0.00  0.00     0.000 C 
HETATM   30  C   UNK N   1      28.179  17.761   7.196  0.00  0.00     0.000 C 
HETATM   31  C   UNK N   1      29.616  17.576   6.734  0.00  0.00     0.005 C 
ENDBRANCH  25  26
ENDBRANCH  14  25
ENDBRANCH  11  14
ENDBRANCH   9  10
TORSDOF 5
ENDMDL
MODEL 6
REMARK VINA RESULT:      -6.7      2.474      6.915
REMARK  5 active torsions:
REMARK  status: ('A' for Active; 'I' for Inactive)
REMARK       I    between atoms: C_1  and  N_8 
REMARK       I    between atoms: N_9  and  C_1 
REMARK    1  A    between atoms: C_10  and  N_9 
REMARK    2  A    between atoms: C_10  and  C_18 
REMARK    3  A    between atoms: C_11  and  C_10 
REMARK    4  A    between atoms: C_12  and  C_11 
REMARK       I    between atoms: N_20  and  C_18 
REMARK    5  A    between atoms: N_20  and  C_29 
ROOT
HETATM    1  C   UNK N   1      27.821  26.445  -5.803  0.00  0.00     0.077 C 
HETATM    2  C   UNK N   1      27.611  27.632  -4.851  0.00  0.00     0.275 C 
HETATM    3  C   UNK N   1      25.236  27.344  -4.873  0.00  0.00     0.275 C 
HETATM    4  C   UNK N   1      25.354  26.184  -5.848  0.00  0.00     0.077 C 
HETATM    5  N   UNK N   1      26.324  28.288  -5.103  0.00  0.00     0.084 N 
HETATM    6  C   UNK N   1      26.171  29.332  -4.109  0.00  0.00     0.309 C 
HETATM    7  C   UNK N   1      26.665  24.443  -6.716  0.00  0.00     0.091 C 
HETATM    8  N   UNK N   1      26.652  23.703  -7.605  0.00  0.00    -0.195 NA
HETATM    9  C   UNK N   1      26.676  25.444  -5.647  0.00  0.00     0.125 C 
ENDROOT
BRANCH   9  10
HETATM   10  N   UNK N   1      26.637  24.857  -4.316  0.00  0.00    -0.337 N 
HETATM   11  C   UNK N   1      27.554  24.272  -3.486  0.00  0.00     0.241 C 
HETATM   12  O   UNK N   1      27.128  23.818  -2.434  0.00  0.00    -0.271 OA
HETATM   13  H   UNK N   1      25.738  24.888  -3.918  0.00  0.00     0.164 HD
BRANCH  11  14
HETATM   14  C   UNK N   1      29.048  24.084  -3.758  0.00  0.00     0.178 C 
BRANCH  14  15
HETATM   15  N   UNK N   1      29.680  25.322  -3.294  0.00  0.00    -0.330 N 
HETATM   16  C   UNK N   1      30.821  26.004  -3.641  0.00  0.00     0.319 C 
HETATM   17  O   UNK N   1      31.211  26.865  -2.866  0.00  0.00    -0.247 OA
HETATM   18  N   UNK N   1      31.568  25.750  -4.763  0.00  0.00    -0.330 N 
HETATM   19  C   UNK N   1      32.876  26.369  -4.902  0.00  0.00     0.153 C 
HETATM   20  C   UNK N   1      31.120  24.901  -5.843  0.00  0.00     0.153 C 
HETATM   21  C   UNK N   1      33.925  25.290  -5.264  0.00  0.00     0.187 C 
HETATM   22  O   UNK N   1      33.340  24.044  -5.595  0.00  0.00    -0.388 OA
HETATM   23  C   UNK N   1      32.339  24.291  -6.552  0.00  0.00     0.187 C 
HETATM   24  H   UNK N   1      29.176  25.761  -2.572  0.00  0.00     0.165 HD
ENDBRANCH  14  15
BRANCH  14  25
HETATM   25  C   UNK N   1      29.424  22.936  -2.802  0.00  0.00     0.039 C 
BRANCH  25  26
HETATM   26  C   UNK N   1      30.269  21.813  -3.388  0.00  0.00    -0.012 C 
HETATM   27  C   UNK N   1      29.985  21.678  -4.879  0.00  0.00     0.005 C 
HETATM   28  C   UNK N   1      30.829  20.553  -5.475  0.00  0.00     0.000 C 
HETATM   29  C   UNK N   1      32.313  20.834  -5.248  0.00  0.00     0.000 C 
HETATM   30  C   UNK N   1      32.594  20.930  -3.755  0.00  0.00     0.000 C 
HETATM   31  C   UNK N   1      31.750  22.038  -3.144  0.00  0.00     0.005 C 
ENDBRANCH  25  26
ENDBRANCH  14  25
ENDBRANCH  11  14
ENDBRANCH   9  10
TORSDOF 5
ENDMDL
MODEL 7
REMARK VINA RESULT:      -6.7     14.496     17.661
REMARK  5 active torsions:
REMARK  status: ('A' for Active; 'I' for Inactive)
REMARK       I    between atoms: C_1  and  N_8 
REMARK       I    between atoms: N_9  and  C_1 
REMARK    1  A    between atoms: C_10  and  N_9 
REMARK    2  A    between atoms: C_10  and  C_18 
REMARK    3  A    between atoms: C_11  and  C_10 
REMARK    4  A    between atoms: C_12  and  C_11 
REMARK       I    between atoms: N_20  and  C_18 
REMARK    5  A    between atoms: N_20  and  C_29 
ROOT
HETATM    1  C   UNK N   1      35.688  15.478   8.761  0.00  0.00     0.077 C 
HETATM    2  C   UNK N   1      35.910  14.254   9.664  0.00  0.00     0.275 C 
HETATM    3  C   UNK N   1      35.646  15.561  11.651  0.00  0.00     0.275 C 
HETATM    4  C   UNK N   1      35.458  16.827  10.831  0.00  0.00     0.077 C 
HETATM    5  N   UNK N   1      36.526  14.643  10.936  0.00  0.00     0.084 N 
HETATM    6  C   UNK N   1      36.616  13.448  11.753  0.00  0.00     0.309 C 
HETATM    7  C   UNK N   1      34.802  17.800   8.800  0.00  0.00     0.091 C 
HETATM    8  N   UNK N   1      34.861  18.825   8.266  0.00  0.00    -0.195 NA
HETATM    9  C   UNK N   1      34.814  16.504   9.482  0.00  0.00     0.125 C 
ENDROOT
BRANCH   9  10
HETATM   10  N   UNK N   1      33.480  15.993   9.758  0.00  0.00    -0.337 N 
HETATM   11  C   UNK N   1      32.523  15.337   9.033  0.00  0.00     0.241 C 
HETATM   12  O   UNK N   1      31.460  15.122   9.598  0.00  0.00    -0.271 OA
HETATM   13  H   UNK N   1      33.199  16.158  10.687  0.00  0.00     0.164 HD
BRANCH  11  14
HETATM   14  C   UNK N   1      32.626  14.888   7.574  0.00  0.00     0.178 C 
BRANCH  14  15
HETATM   15  N   UNK N   1      32.617  13.423   7.624  0.00  0.00    -0.330 N 
HETATM   16  C   UNK N   1      33.104  12.434   6.805  0.00  0.00     0.319 C 
HETATM   17  O   UNK N   1      32.685  11.300   6.993  0.00  0.00    -0.247 OA
HETATM   18  N   UNK N   1      33.980  12.641   5.770  0.00  0.00    -0.330 N 
HETATM   19  C   UNK N   1      34.238  11.564   4.828  0.00  0.00     0.153 C 
HETATM   20  C   UNK N   1      34.690  13.883   5.565  0.00  0.00     0.153 C 
HETATM   21  C   UNK N   1      34.077  12.090   3.382  0.00  0.00     0.187 C 
HETATM   22  O   UNK N   1      33.957  13.500   3.320  0.00  0.00    -0.388 OA
HETATM   23  C   UNK N   1      35.014  14.045   4.072  0.00  0.00     0.187 C 
HETATM   24  H   UNK N   1      32.160  13.071   8.420  0.00  0.00     0.165 HD
ENDBRANCH  14  15
BRANCH  14  25
HETATM   25  C   UNK N   1      31.295  15.380   6.974  0.00  0.00     0.039 C 
BRANCH  25  26
HETATM   26  C   UNK N   1      31.389  16.188   5.686  0.00  0.00    -0.012 C 
HETATM   27  C   UNK N   1      32.708  16.951   5.650  0.00  0.00     0.005 C 
HETATM   28  C   UNK N   1      32.809  17.763   4.361  0.00  0.00     0.000 C 
HETATM   29  C   UNK N   1      32.705  16.840   3.150  0.00  0.00     0.000 C 
HETATM   30  C   UNK N   1      31.370  16.110   3.174  0.00  0.00     0.000 C 
HETATM   31  C   UNK N   1      31.248  15.306   4.459  0.00  0.00     0.005 C 
ENDBRANCH  25  26
ENDBRANCH  14  25
ENDBRANCH  11  14
ENDBRANCH   9  10
TORSDOF 5
ENDMDL
MODEL 8
REMARK VINA RESULT:      -6.6     17.239     21.751
REMARK  5 active torsions:
REMARK  status: ('A' for Active; 'I' for Inactive)
REMARK       I    between atoms: C_1  and  N_8 
REMARK       I    between atoms: N_9  and  C_1 
REMARK    1  A    between atoms: C_10  and  N_9 
REMARK    2  A    between atoms: C_10  and  C_18 
REMARK    3  A    between atoms: C_11  and  C_10 
REMARK    4  A    between atoms: C_12  and  C_11 
REMARK       I    between atoms: N_20  and  C_18 
REMARK    5  A    between atoms: N_20  and  C_29 
ROOT
HETATM    1  C   UNK N   1      33.824  16.765   6.711  0.00  0.00     0.077 C 
HETATM    2  C   UNK N   1      32.520  17.424   7.186  0.00  0.00     0.275 C 
HETATM    3  C   UNK N   1      32.049  15.619   8.685  0.00  0.00     0.275 C 
HETATM    4  C   UNK N   1      33.300  14.881   8.239  0.00  0.00     0.077 C 
HETATM    5  N   UNK N   1      31.531  16.415   7.577  0.00  0.00     0.084 N 
HETATM    6  C   UNK N   1      30.375  17.122   8.091  0.00  0.00     0.309 C 
HETATM    7  C   UNK N   1      35.460  14.999   7.331  0.00  0.00     0.091 C 
HETATM    8  N   UNK N   1      36.265  14.287   6.903  0.00  0.00    -0.195 NA
HETATM    9  C   UNK N   1      34.387  15.870   7.815  0.00  0.00     0.125 C 
ENDROOT
BRANCH   9  10
HETATM   10  N   UNK N   1      34.759  16.628   9.001  0.00  0.00    -0.337 N 
HETATM   11  C   UNK N   1      35.291  16.319  10.222  0.00  0.00     0.241 C 
HETATM   12  O   UNK N   1      35.405  17.239  11.018  0.00  0.00    -0.271 OA
HETATM   13  H   UNK N   1      34.587  17.592   8.900  0.00  0.00     0.164 HD
BRANCH  11  14
HETATM   14  C   UNK N   1      35.714  14.933  10.714  0.00  0.00     0.178 C 
BRANCH  14  15
HETATM   15  N   UNK N   1      37.088  14.759  10.234  0.00  0.00    -0.330 N 
HETATM   16  C   UNK N   1      37.866  13.669   9.931  0.00  0.00     0.319 C 
HETATM   17  O   UNK N   1      39.069  13.859   9.820  0.00  0.00    -0.247 OA
HETATM   18  N   UNK N   1      37.394  12.389   9.795  0.00  0.00    -0.330 N 
HETATM   19  C   UNK N   1      38.338  11.287   9.710  0.00  0.00     0.153 C 
HETATM   20  C   UNK N   1      35.988  12.064   9.712  0.00  0.00     0.153 C 
HETATM   21  C   UNK N   1      37.938  10.183  10.719  0.00  0.00     0.187 C 
HETATM   22  O   UNK N   1      36.662  10.398  11.292  0.00  0.00    -0.388 OA
HETATM   23  C   UNK N   1      35.763  10.637  10.236  0.00  0.00     0.187 C 
HETATM   24  H   UNK N   1      37.557  15.614  10.102  0.00  0.00     0.165 HD
ENDBRANCH  14  15
BRANCH  14  25
HETATM   25  C   UNK N   1      35.732  15.107  12.245  0.00  0.00     0.039 C 
BRANCH  25  26
HETATM   26  C   UNK N   1      36.049  13.865  13.066  0.00  0.00    -0.012 C 
HETATM   27  C   UNK N   1      36.579  14.272  14.436  0.00  0.00     0.005 C 
HETATM   28  C   UNK N   1      36.899  13.031  15.265  0.00  0.00     0.000 C 
HETATM   29  C   UNK N   1      35.649  12.169  15.423  0.00  0.00     0.000 C 
HETATM   30  C   UNK N   1      35.147  11.736  14.053  0.00  0.00     0.000 C 
HETATM   31  C   UNK N   1      34.837  12.962  13.209  0.00  0.00     0.005 C 
ENDBRANCH  25  26
ENDBRANCH  14  25
ENDBRANCH  11  14
ENDBRANCH   9  10
TORSDOF 5
ENDMDL
MODEL 9
REMARK VINA RESULT:      -6.6      2.249      3.565
REMARK  5 active torsions:
REMARK  status: ('A' for Active; 'I' for Inactive)
REMARK       I    between atoms: C_1  and  N_8 
REMARK       I    between atoms: N_9  and  C_1 
REMARK    1  A    between atoms: C_10  and  N_9 
REMARK    2  A    between atoms: C_10  and  C_18 
REMARK    3  A    between atoms: C_11  and  C_10 
REMARK    4  A    between atoms: C_12  and  C_11 
REMARK       I    between atoms: N_20  and  C_18 
REMARK    5  A    between atoms: N_20  and  C_29 
ROOT
HETATM    1  C   UNK N   1      31.059  23.896  -4.014  0.00  0.00     0.077 C 
HETATM    2  C   UNK N   1      32.228  23.467  -4.914  0.00  0.00     0.275 C 
HETATM    3  C   UNK N   1      32.065  21.191  -4.194  0.00  0.00     0.275 C 
HETATM    4  C   UNK N   1      30.930  21.540  -3.246  0.00  0.00     0.077 C 
HETATM    5  N   UNK N   1      32.957  22.338  -4.330  0.00  0.00     0.084 N 
HETATM    6  C   UNK N   1      33.978  21.946  -5.281  0.00  0.00     0.309 C 
HETATM    7  C   UNK N   1      29.148  22.972  -2.720  0.00  0.00     0.091 C 
HETATM    8  N   UNK N   1      28.435  23.188  -1.834  0.00  0.00    -0.195 NA
HETATM    9  C   UNK N   1      30.116  22.714  -3.789  0.00  0.00     0.125 C 
ENDROOT
BRANCH   9  10
HETATM   10  N   UNK N   1      29.493  22.265  -5.025  0.00  0.00    -0.337 N 
HETATM   11  C   UNK N   1      28.631  22.817  -5.934  0.00  0.00     0.241 C 
HETATM   12  O   UNK N   1      28.259  22.092  -6.844  0.00  0.00    -0.271 OA
HETATM   13  H   UNK N   1      29.753  21.347  -5.265  0.00  0.00     0.164 HD
BRANCH  11  14
HETATM   14  C   UNK N   1      28.047  24.231  -5.902  0.00  0.00     0.178 C 
BRANCH  14  15
HETATM   15  N   UNK N   1      28.050  24.678  -7.297  0.00  0.00    -0.330 N 
HETATM   16  C   UNK N   1      28.351  25.863  -7.923  0.00  0.00     0.319 C 
HETATM   17  O   UNK N   1      27.983  25.987  -9.083  0.00  0.00    -0.247 OA
HETATM   18  N   UNK N   1      28.985  26.920  -7.323  0.00  0.00    -0.330 N 
HETATM   19  C   UNK N   1      29.036  28.202  -8.009  0.00  0.00     0.153 C 
HETATM   20  C   UNK N   1      29.634  26.833  -6.035  0.00  0.00     0.153 C 
HETATM   21  C   UNK N   1      28.569  29.322  -7.048  0.00  0.00     0.187 C 
HETATM   22  O   UNK N   1      28.437  28.879  -5.710  0.00  0.00    -0.388 OA
HETATM   23  C   UNK N   1      29.630  28.217  -5.367  0.00  0.00     0.187 C 
HETATM   24  H   UNK N   1      27.774  23.972  -7.925  0.00  0.00     0.165 HD
ENDBRANCH  14  15
BRANCH  14  25
HETATM   25  C   UNK N   1      26.593  23.986  -5.453  0.00  0.00     0.039 C 
BRANCH  25  26
HETATM   26  C   UNK N   1      25.856  25.179  -4.860  0.00  0.00    -0.012 C 
HETATM   27  C   UNK N   1      26.779  25.937  -3.912  0.00  0.00     0.005 C 
HETATM   28  C   UNK N   1      26.046  27.135  -3.312  0.00  0.00     0.000 C 
HETATM   29  C   UNK N   1      25.561  28.062  -4.423  0.00  0.00     0.000 C 
HETATM   30  C   UNK N   1      24.611  27.308  -5.343  0.00  0.00     0.000 C 
HETATM   31  C   UNK N   1      25.322  26.103  -5.939  0.00  0.00     0.005 C 
ENDBRANCH  25  26
ENDBRANCH  14  25
ENDBRANCH  11  14
ENDBRANCH   9  10
TORSDOF 5
ENDMDL
