MODEL 1
REMARK VINA RESULT:      -7.1      0.000      0.000
REMARK  9 active torsions:
REMARK  status: ('A' for Active; 'I' for Inactive)
REMARK    1  A    between atoms: C_4  and  C_5 
REMARK    2  A    between atoms: C_5  and  C_6 
REMARK    3  A    between atoms: C_6  and  N_7 
REMARK       I    between atoms: N_7  and  C_8 
REMARK    4  A    between atoms: C_8  and  C_10 
REMARK    5  A    between atoms: C_11  and  C_12 
REMARK    6  A    between atoms: C_14  and  O_15 
REMARK    7  A    between atoms: O_15  and  C_16 
REMARK    8  A    between atoms: C_19  and  O_20 
REMARK    9  A    between atoms: O_20  and  C_21 
ROOT
HETATM    1  C   UNK N   1      33.598  16.690   5.211  0.00  0.00    -0.033 A 
HETATM    2  C   UNK N   1      32.840  17.464   6.083  0.00  0.00     0.051 A 
HETATM    3  C   UNK N   1      32.958  17.346   7.469  0.00  0.00     0.113 A 
HETATM    4  C   UNK N   1      33.889  16.446   8.012  0.00  0.00     0.113 A 
HETATM    5  C   UNK N   1      34.665  15.656   7.132  0.00  0.00     0.041 A 
HETATM    6  C   UNK N   1      34.512  15.769   5.738  0.00  0.00     0.014 A 
ENDROOT
BRANCH   1   7
HETATM    7  C   UNK N   1      33.336  16.911   3.775  0.00  0.00     0.017 C 
HETATM    8  C   UNK N   1      32.227  16.855   3.020  0.00  0.00     0.075 C 
BRANCH   8   9
HETATM    9  C   UNK N   1      30.836  16.497   3.344  0.00  0.00     0.241 C 
HETATM   10  N   UNK N   1      30.035  17.308   4.073  0.00  0.00    -0.357 N 
HETATM   11  H   UNK N   1      30.377  18.179   4.380  0.00  0.00     0.162 HD
HETATM   12  O   UNK N   1      30.434  15.399   2.989  0.00  0.00    -0.269 OA
BRANCH  10  13
HETATM   13  C   UNK N   1      28.683  16.916   4.406  0.00  0.00     0.127 C 
BRANCH  13  14
HETATM   14  C   UNK N   1      27.674  17.937   3.885  0.00  0.00     0.058 C 
BRANCH  14  15
HETATM   15  C   UNK N   1      27.437  19.053   4.860  0.00  0.00    -0.057 A 
HETATM   16  C   UNK N   1      27.792  18.917   6.209  0.00  0.00     0.007 A 
HETATM   17  C   UNK N   1      27.572  19.968   7.105  0.00  0.00     0.001 A 
HETATM   18  C   UNK N   1      27.006  21.164   6.655  0.00  0.00     0.000 A 
HETATM   19  C   UNK N   1      26.663  21.309   5.308  0.00  0.00     0.001 A 
HETATM   20  C   UNK N   1      26.881  20.256   4.411  0.00  0.00     0.007 A 
ENDBRANCH  14  15
ENDBRANCH  13  14
ENDBRANCH  10  13
ENDBRANCH   8   9
ENDBRANCH   1   7
BRANCH   3  21
HETATM   21  O   UNK N   1      32.181  18.086   8.314  0.00  0.00    -0.276 OA
BRANCH  21  22
HETATM   22  C   UNK N   1      30.852  17.911   8.570  0.00  0.00     0.260 C 
HETATM   23  O   UNK N   1      30.222  16.982   8.088  0.00  0.00    -0.265 OA
HETATM   24  C   UNK N   1      30.159  18.856   9.487  0.00  0.00     0.126 C 
ENDBRANCH  21  22
ENDBRANCH   3  21
BRANCH   4  25
HETATM   25  O   UNK N   1      33.992  16.368   9.366  0.00  0.00    -0.276 OA
BRANCH  25  26
HETATM   26  C   UNK N   1      35.033  16.688  10.185  0.00  0.00     0.260 C 
HETATM   27  O   UNK N   1      35.533  17.795  10.096  0.00  0.00    -0.265 OA
HETATM   28  C   UNK N   1      35.604  15.727  11.178  0.00  0.00     0.126 C 
ENDBRANCH  25  26
ENDBRANCH   4  25
TORSDOF 9
ENDMDL
MODEL 2
REMARK VINA RESULT:      -6.9      4.589      7.327
REMARK  9 active torsions:
REMARK  status: ('A' for Active; 'I' for Inactive)
REMARK    1  A    between atoms: C_4  and  C_5 
REMARK    2  A    between atoms: C_5  and  C_6 
REMARK    3  A    between atoms: C_6  and  N_7 
REMARK       I    between atoms: N_7  and  C_8 
REMARK    4  A    between atoms: C_8  and  C_10 
REMARK    5  A    between atoms: C_11  and  C_12 
REMARK    6  A    between atoms: C_14  and  O_15 
REMARK    7  A    between atoms: O_15  and  C_16 
REMARK    8  A    between atoms: C_19  and  O_20 
REMARK    9  A    between atoms: O_20  and  C_21 
ROOT
HETATM    1  C   UNK N   1      26.991  19.952   4.299  0.00  0.00    -0.033 A 
HETATM    2  C   UNK N   1      27.570  18.698   4.139  0.00  0.00     0.051 A 
HETATM    3  C   UNK N   1      28.174  18.022   5.200  0.00  0.00     0.113 A 
HETATM    4  C   UNK N   1      28.176  18.599   6.480  0.00  0.00     0.113 A 
HETATM    5  C   UNK N   1      27.588  19.874   6.651  0.00  0.00     0.041 A 
HETATM    6  C   UNK N   1      27.008  20.553   5.564  0.00  0.00     0.014 A 
ENDROOT
BRANCH   1   7
HETATM    7  C   UNK N   1      26.420  20.548   3.075  0.00  0.00     0.017 C 
HETATM    8  C   UNK N   1      25.165  20.701   2.621  0.00  0.00     0.075 C 
BRANCH   8   9
HETATM    9  C   UNK N   1      23.866  20.277   3.169  0.00  0.00     0.241 C 
HETATM   10  N   UNK N   1      23.699  19.085   3.786  0.00  0.00    -0.357 N 
HETATM   11  H   UNK N   1      24.471  18.485   3.899  0.00  0.00     0.162 HD
HETATM   12  O   UNK N   1      22.907  21.014   2.991  0.00  0.00    -0.269 OA
BRANCH  10  13
HETATM   13  C   UNK N   1      22.403  18.680   4.284  0.00  0.00     0.127 C 
BRANCH  13  14
HETATM   14  C   UNK N   1      22.256  17.160   4.253  0.00  0.00     0.058 C 
BRANCH  14  15
HETATM   15  C   UNK N   1      21.544  16.682   3.022  0.00  0.00    -0.057 A 
HETATM   16  C   UNK N   1      20.547  17.461   2.420  0.00  0.00     0.007 A 
HETATM   17  C   UNK N   1      19.896  17.006   1.268  0.00  0.00     0.001 A 
HETATM   18  C   UNK N   1      20.246  15.775   0.707  0.00  0.00     0.000 A 
HETATM   19  C   UNK N   1      21.249  15.000   1.296  0.00  0.00     0.001 A 
HETATM   20  C   UNK N   1      21.899  15.455   2.451  0.00  0.00     0.007 A 
ENDBRANCH  14  15
ENDBRANCH  13  14
ENDBRANCH  10  13
ENDBRANCH   8   9
ENDBRANCH   1   7
BRANCH   3  21
HETATM   21  O   UNK N   1      28.771  16.806   5.021  0.00  0.00    -0.276 OA
BRANCH  21  22
HETATM   22  C   UNK N   1      29.970  16.563   4.417  0.00  0.00     0.260 C 
HETATM   23  O   UNK N   1      31.023  16.612   5.035  0.00  0.00    -0.265 OA
HETATM   24  C   UNK N   1      29.995  16.198   2.975  0.00  0.00     0.126 C 
ENDBRANCH  21  22
ENDBRANCH   3  21
BRANCH   4  25
HETATM   25  O   UNK N   1      28.756  17.907   7.496  0.00  0.00    -0.276 OA
BRANCH  25  26
HETATM   26  C   UNK N   1      28.638  18.065   8.845  0.00  0.00     0.260 C 
HETATM   27  O   UNK N   1      27.635  17.652   9.399  0.00  0.00    -0.265 OA
HETATM   28  C   UNK N   1      29.680  18.744   9.673  0.00  0.00     0.126 C 
ENDBRANCH  25  26
ENDBRANCH   4  25
TORSDOF 9
ENDMDL
MODEL 3
REMARK VINA RESULT:      -6.9     11.596     15.706
REMARK  9 active torsions:
REMARK  status: ('A' for Active; 'I' for Inactive)
REMARK    1  A    between atoms: C_4  and  C_5 
REMARK    2  A    between atoms: C_5  and  C_6 
REMARK    3  A    between atoms: C_6  and  N_7 
REMARK       I    between atoms: N_7  and  C_8 
REMARK    4  A    between atoms: C_8  and  C_10 
REMARK    5  A    between atoms: C_11  and  C_12 
REMARK    6  A    between atoms: C_14  and  O_15 
REMARK    7  A    between atoms: O_15  and  C_16 
REMARK    8  A    between atoms: C_19  and  O_20 
REMARK    9  A    between atoms: O_20  and  C_21 
ROOT
HETATM    1  C   UNK N   1      27.383  24.225  -4.401  0.00  0.00    -0.033 A 
HETATM    2  C   UNK N   1      26.331  23.663  -5.116  0.00  0.00     0.051 A 
HETATM    3  C   UNK N   1      26.179  23.865  -6.488  0.00  0.00     0.113 A 
HETATM    4  C   UNK N   1      27.127  24.630  -7.186  0.00  0.00     0.113 A 
HETATM    5  C   UNK N   1      28.201  25.204  -6.467  0.00  0.00     0.041 A 
HETATM    6  C   UNK N   1      28.322  25.012  -5.078  0.00  0.00     0.014 A 
ENDROOT
BRANCH   1   7
HETATM    7  C   UNK N   1      27.388  23.942  -2.951  0.00  0.00     0.017 C 
HETATM    8  C   UNK N   1      28.286  23.385  -2.123  0.00  0.00     0.075 C 
BRANCH   8   9
HETATM    9  C   UNK N   1      29.612  22.794  -2.367  0.00  0.00     0.241 C 
HETATM   10  N   UNK N   1      29.824  21.879  -3.340  0.00  0.00    -0.357 N 
HETATM   11  H   UNK N   1      29.078  21.611  -3.925  0.00  0.00     0.162 HD
HETATM   12  O   UNK N   1      30.522  23.107  -1.613  0.00  0.00    -0.269 OA
BRANCH  10  13
HETATM   13  C   UNK N   1      31.130  21.289  -3.536  0.00  0.00     0.127 C 
BRANCH  13  14
HETATM   14  C   UNK N   1      31.640  21.549  -4.952  0.00  0.00     0.058 C 
BRANCH  14  15
HETATM   15  C   UNK N   1      30.699  21.034  -6.001  0.00  0.00    -0.057 A 
HETATM   16  C   UNK N   1      30.838  19.740  -6.519  0.00  0.00     0.007 A 
HETATM   17  C   UNK N   1      29.949  19.270  -7.491  0.00  0.00     0.001 A 
HETATM   18  C   UNK N   1      28.909  20.088  -7.942  0.00  0.00     0.000 A 
HETATM   19  C   UNK N   1      28.757  21.375  -7.417  0.00  0.00     0.001 A 
HETATM   20  C   UNK N   1      29.649  21.846  -6.446  0.00  0.00     0.007 A 
ENDBRANCH  14  15
ENDBRANCH  13  14
ENDBRANCH  10  13
ENDBRANCH   8   9
ENDBRANCH   1   7
BRANCH   3  21
HETATM   21  O   UNK N   1      25.120  23.338  -7.172  0.00  0.00    -0.276 OA
BRANCH  21  22
HETATM   22  C   UNK N   1      24.860  22.015  -7.385  0.00  0.00     0.260 C 
HETATM   23  O   UNK N   1      24.145  21.372  -6.632  0.00  0.00    -0.265 OA
HETATM   24  C   UNK N   1      25.435  21.347  -8.584  0.00  0.00     0.126 C 
ENDBRANCH  21  22
ENDBRANCH   3  21
BRANCH   4  25
HETATM   25  O   UNK N   1      26.960  24.793  -8.526  0.00  0.00    -0.276 OA
BRANCH  25  26
HETATM   26  C   UNK N   1      26.650  25.911  -9.242  0.00  0.00     0.260 C 
HETATM   27  O   UNK N   1      25.479  26.152  -9.476  0.00  0.00    -0.265 OA
HETATM   28  C   UNK N   1      27.688  26.845  -9.772  0.00  0.00     0.126 C 
ENDBRANCH  25  26
ENDBRANCH   4  25
TORSDOF 9
ENDMDL
MODEL 4
REMARK VINA RESULT:      -6.8      1.978      3.641
REMARK  9 active torsions:
REMARK  status: ('A' for Active; 'I' for Inactive)
REMARK    1  A    between atoms: C_4  and  C_5 
REMARK    2  A    between atoms: C_5  and  C_6 
REMARK    3  A    between atoms: C_6  and  N_7 
REMARK       I    between atoms: N_7  and  C_8 
REMARK    4  A    between atoms: C_8  and  C_10 
REMARK    5  A    between atoms: C_11  and  C_12 
REMARK    6  A    between atoms: C_14  and  O_15 
REMARK    7  A    between atoms: O_15  and  C_16 
REMARK    8  A    between atoms: C_19  and  O_20 
REMARK    9  A    between atoms: O_20  and  C_21 
ROOT
HETATM    1  C   UNK N   1      31.649  16.258   4.055  0.00  0.00    -0.033 A 
HETATM    2  C   UNK N   1      32.157  15.383   5.009  0.00  0.00     0.051 A 
HETATM    3  C   UNK N   1      33.167  15.761   5.895  0.00  0.00     0.113 A 
HETATM    4  C   UNK N   1      33.671  17.071   5.854  0.00  0.00     0.113 A 
HETATM    5  C   UNK N   1      33.159  17.968   4.888  0.00  0.00     0.041 A 
HETATM    6  C   UNK N   1      32.160  17.560   3.985  0.00  0.00     0.014 A 
ENDROOT
BRANCH   1   7
HETATM    7  C   UNK N   1      30.605  15.698   3.173  0.00  0.00     0.017 C 
HETATM    8  C   UNK N   1      29.263  15.726   3.199  0.00  0.00     0.075 C 
BRANCH   8   9
HETATM    9  C   UNK N   1      28.312  16.300   4.165  0.00  0.00     0.241 C 
HETATM   10  N   UNK N   1      28.069  17.629   4.233  0.00  0.00    -0.357 N 
HETATM   11  H   UNK N   1      28.519  18.238   3.603  0.00  0.00     0.162 HD
HETATM   12  O   UNK N   1      27.786  15.540   4.965  0.00  0.00    -0.269 OA
BRANCH  10  13
HETATM   13  C   UNK N   1      27.155  18.170   5.215  0.00  0.00     0.127 C 
BRANCH  13  14
HETATM   14  C   UNK N   1      27.868  19.151   6.144  0.00  0.00     0.058 C 
BRANCH  14  15
HETATM   15  C   UNK N   1      28.599  18.455   7.254  0.00  0.00    -0.057 A 
HETATM   16  C   UNK N   1      28.114  18.491   8.568  0.00  0.00     0.007 A 
HETATM   17  C   UNK N   1      28.802  17.832   9.592  0.00  0.00     0.001 A 
HETATM   18  C   UNK N   1      29.973  17.125   9.305  0.00  0.00     0.000 A 
HETATM   19  C   UNK N   1      30.454  17.074   7.993  0.00  0.00     0.001 A 
HETATM   20  C   UNK N   1      29.766  17.736   6.969  0.00  0.00     0.007 A 
ENDBRANCH  14  15
ENDBRANCH  13  14
ENDBRANCH  10  13
ENDBRANCH   8   9
ENDBRANCH   1   7
BRANCH   3  21
HETATM   21  O   UNK N   1      33.683  14.881   6.803  0.00  0.00    -0.276 OA
BRANCH  21  22
HETATM   22  C   UNK N   1      33.068  13.775   7.313  0.00  0.00     0.260 C 
HETATM   23  O   UNK N   1      32.261  13.852   8.227  0.00  0.00    -0.265 OA
HETATM   24  C   UNK N   1      33.361  12.442   6.719  0.00  0.00     0.126 C 
ENDBRANCH  21  22
ENDBRANCH   3  21
BRANCH   4  25
HETATM   25  O   UNK N   1      34.642  17.414   6.743  0.00  0.00    -0.276 OA
BRANCH  25  26
HETATM   26  C   UNK N   1      34.538  17.949   7.992  0.00  0.00     0.260 C 
HETATM   27  O   UNK N   1      34.947  19.081   8.182  0.00  0.00    -0.265 OA
HETATM   28  C   UNK N   1      33.961  17.197   9.148  0.00  0.00     0.126 C 
ENDBRANCH  25  26
ENDBRANCH   4  25
TORSDOF 9
ENDMDL
MODEL 5
REMARK VINA RESULT:      -6.8     12.527     16.351
REMARK  9 active torsions:
REMARK  status: ('A' for Active; 'I' for Inactive)
REMARK    1  A    between atoms: C_4  and  C_5 
REMARK    2  A    between atoms: C_5  and  C_6 
REMARK    3  A    between atoms: C_6  and  N_7 
REMARK       I    between atoms: N_7  and  C_8 
REMARK    4  A    between atoms: C_8  and  C_10 
REMARK    5  A    between atoms: C_11  and  C_12 
REMARK    6  A    between atoms: C_14  and  O_15 
REMARK    7  A    between atoms: O_15  and  C_16 
REMARK    8  A    between atoms: C_19  and  O_20 
REMARK    9  A    between atoms: O_20  and  C_21 
ROOT
HETATM    1  C   UNK N   1      26.018  27.738  -4.074  0.00  0.00    -0.033 A 
HETATM    2  C   UNK N   1      26.378  26.563  -3.424  0.00  0.00     0.051 A 
HETATM    3  C   UNK N   1      26.129  25.306  -3.978  0.00  0.00     0.113 A 
HETATM    4  C   UNK N   1      25.528  25.212  -5.243  0.00  0.00     0.113 A 
HETATM    5  C   UNK N   1      25.160  26.403  -5.912  0.00  0.00     0.041 A 
HETATM    6  C   UNK N   1      25.394  27.660  -5.325  0.00  0.00     0.014 A 
ENDROOT
BRANCH   1   7
HETATM    7  C   UNK N   1      26.323  28.985  -3.344  0.00  0.00     0.017 C 
HETATM    8  C   UNK N   1      27.450  29.687  -3.145  0.00  0.00     0.075 C 
BRANCH   8   9
HETATM    9  C   UNK N   1      28.843  29.440  -3.553  0.00  0.00     0.241 C 
HETATM   10  N   UNK N   1      29.375  29.991  -4.668  0.00  0.00    -0.357 N 
HETATM   11  H   UNK N   1      28.828  30.597  -5.218  0.00  0.00     0.162 HD
HETATM   12  O   UNK N   1      29.502  28.658  -2.882  0.00  0.00    -0.269 OA
BRANCH  10  13
HETATM   13  C   UNK N   1      30.737  29.704  -5.063  0.00  0.00     0.127 C 
BRANCH  13  14
HETATM   14  C   UNK N   1      30.819  29.395  -6.557  0.00  0.00     0.058 C 
BRANCH  14  15
HETATM   15  C   UNK N   1      29.865  28.313  -6.968  0.00  0.00    -0.057 A 
HETATM   16  C   UNK N   1      29.936  27.036  -6.396  0.00  0.00     0.007 A 
HETATM   17  C   UNK N   1      29.035  26.038  -6.783  0.00  0.00     0.001 A 
HETATM   18  C   UNK N   1      28.052  26.316  -7.736  0.00  0.00     0.000 A 
HETATM   19  C   UNK N   1      27.968  27.593  -8.300  0.00  0.00     0.001 A 
HETATM   20  C   UNK N   1      28.871  28.590  -7.914  0.00  0.00     0.007 A 
ENDBRANCH  14  15
ENDBRANCH  13  14
ENDBRANCH  10  13
ENDBRANCH   8   9
ENDBRANCH   1   7
BRANCH   3  21
HETATM   21  O   UNK N   1      26.454  24.158  -3.312  0.00  0.00    -0.276 OA
BRANCH  21  22
HETATM   22  C   UNK N   1      27.696  23.774  -2.899  0.00  0.00     0.260 C 
HETATM   23  O   UNK N   1      27.886  23.291  -1.794  0.00  0.00    -0.265 OA
HETATM   24  C   UNK N   1      28.847  23.919  -3.832  0.00  0.00     0.126 C 
ENDBRANCH  21  22
ENDBRANCH   3  21
BRANCH   4  25
HETATM   25  O   UNK N   1      25.316  23.973  -5.763  0.00  0.00    -0.276 OA
BRANCH  25  26
HETATM   26  C   UNK N   1      25.808  23.403  -6.899  0.00  0.00     0.260 C 
HETATM   27  O   UNK N   1      25.148  23.463  -7.921  0.00  0.00    -0.265 OA
HETATM   28  C   UNK N   1      27.119  22.685  -6.939  0.00  0.00     0.126 C 
ENDBRANCH  25  26
ENDBRANCH   4  25
TORSDOF 9
ENDMDL
MODEL 6
REMARK VINA RESULT:      -6.8     11.417     14.665
REMARK  9 active torsions:
REMARK  status: ('A' for Active; 'I' for Inactive)
REMARK    1  A    between atoms: C_4  and  C_5 
REMARK    2  A    between atoms: C_5  and  C_6 
REMARK    3  A    between atoms: C_6  and  N_7 
REMARK       I    between atoms: N_7  and  C_8 
REMARK    4  A    between atoms: C_8  and  C_10 
REMARK    5  A    between atoms: C_11  and  C_12 
REMARK    6  A    between atoms: C_14  and  O_15 
REMARK    7  A    between atoms: O_15  and  C_16 
REMARK    8  A    between atoms: C_19  and  O_20 
REMARK    9  A    between atoms: O_20  and  C_21 
ROOT
HETATM    1  C   UNK N   1      30.322  26.384  -4.578  0.00  0.00    -0.033 A 
HETATM    2  C   UNK N   1      30.321  25.231  -3.800  0.00  0.00     0.051 A 
HETATM    3  C   UNK N   1      29.719  24.048  -4.233  0.00  0.00     0.113 A 
HETATM    4  C   UNK N   1      29.123  23.998  -5.503  0.00  0.00     0.113 A 
HETATM    5  C   UNK N   1      29.121  25.166  -6.301  0.00  0.00     0.041 A 
HETATM    6  C   UNK N   1      29.708  26.357  -5.836  0.00  0.00     0.014 A 
ENDROOT
BRANCH   1   7
HETATM    7  C   UNK N   1      30.972  27.561  -3.967  0.00  0.00     0.017 C 
HETATM    8  C   UNK N   1      30.511  28.734  -3.504  0.00  0.00     0.075 C 
BRANCH   8   9
HETATM    9  C   UNK N   1      29.159  29.314  -3.477  0.00  0.00     0.241 C 
HETATM   10  N   UNK N   1      28.354  29.315  -4.564  0.00  0.00    -0.357 N 
HETATM   11  H   UNK N   1      28.665  28.894  -5.398  0.00  0.00     0.162 HD
HETATM   12  O   UNK N   1      28.797  29.866  -2.447  0.00  0.00    -0.269 OA
BRANCH  10  13
HETATM   13  C   UNK N   1      27.042  29.923  -4.519  0.00  0.00     0.127 C 
BRANCH  13  14
HETATM   14  C   UNK N   1      26.083  29.092  -3.668  0.00  0.00     0.058 C 
BRANCH  14  15
HETATM   15  C   UNK N   1      25.929  27.692  -4.186  0.00  0.00    -0.057 A 
HETATM   16  C   UNK N   1      25.344  27.448  -5.436  0.00  0.00     0.007 A 
HETATM   17  C   UNK N   1      25.213  26.138  -5.909  0.00  0.00     0.001 A 
HETATM   18  C   UNK N   1      25.676  25.067  -5.140  0.00  0.00     0.000 A 
HETATM   19  C   UNK N   1      26.273  25.307  -3.899  0.00  0.00     0.001 A 
HETATM   20  C   UNK N   1      26.402  26.618  -3.424  0.00  0.00     0.007 A 
ENDBRANCH  14  15
ENDBRANCH  13  14
ENDBRANCH  10  13
ENDBRANCH   8   9
ENDBRANCH   1   7
BRANCH   3  21
HETATM   21  O   UNK N   1      29.693  22.933  -3.444  0.00  0.00    -0.276 OA
BRANCH  21  22
HETATM   22  C   UNK N   1      30.608  22.580  -2.496  0.00  0.00     0.260 C 
HETATM   23  O   UNK N   1      30.501  22.940  -1.333  0.00  0.00    -0.265 OA
HETATM   24  C   UNK N   1      31.749  21.705  -2.879  0.00  0.00     0.126 C 
ENDBRANCH  21  22
ENDBRANCH   3  21
BRANCH   4  25
HETATM   25  O   UNK N   1      28.562  22.825  -5.903  0.00  0.00    -0.276 OA
BRANCH  25  26
HETATM   26  C   UNK N   1      29.077  21.823  -6.671  0.00  0.00     0.260 C 
HETATM   27  O   UNK N   1      28.405  21.379  -7.585  0.00  0.00    -0.265 OA
HETATM   28  C   UNK N   1      30.426  21.230  -6.425  0.00  0.00     0.126 C 
ENDBRANCH  25  26
ENDBRANCH   4  25
TORSDOF 9
ENDMDL
MODEL 7
REMARK VINA RESULT:      -6.8     11.417     14.118
REMARK  9 active torsions:
REMARK  status: ('A' for Active; 'I' for Inactive)
REMARK    1  A    between atoms: C_4  and  C_5 
REMARK    2  A    between atoms: C_5  and  C_6 
REMARK    3  A    between atoms: C_6  and  N_7 
REMARK       I    between atoms: N_7  and  C_8 
REMARK    4  A    between atoms: C_8  and  C_10 
REMARK    5  A    between atoms: C_11  and  C_12 
REMARK    6  A    between atoms: C_14  and  O_15 
REMARK    7  A    between atoms: O_15  and  C_16 
REMARK    8  A    between atoms: C_19  and  O_20 
REMARK    9  A    between atoms: O_20  and  C_21 
ROOT
HETATM    1  C   UNK N   1      28.867  21.706  -7.162  0.00  0.00    -0.033 A 
HETATM    2  C   UNK N   1      29.266  22.920  -6.613  0.00  0.00     0.051 A 
HETATM    3  C   UNK N   1      30.339  23.013  -5.726  0.00  0.00     0.113 A 
HETATM    4  C   UNK N   1      31.067  21.859  -5.395  0.00  0.00     0.113 A 
HETATM    5  C   UNK N   1      30.669  20.621  -5.951  0.00  0.00     0.041 A 
HETATM    6  C   UNK N   1      29.567  20.543  -6.821  0.00  0.00     0.014 A 
ENDROOT
BRANCH   1   7
HETATM    7  C   UNK N   1      27.696  21.770  -8.060  0.00  0.00     0.017 C 
HETATM    8  C   UNK N   1      26.511  22.396  -7.987  0.00  0.00     0.075 C 
BRANCH   8   9
HETATM    9  C   UNK N   1      25.906  23.233  -6.937  0.00  0.00     0.241 C 
HETATM   10  N   UNK N   1      26.142  24.562  -6.852  0.00  0.00    -0.357 N 
HETATM   11  H   UNK N   1      26.715  24.997  -7.524  0.00  0.00     0.162 HD
HETATM   12  O   UNK N   1      25.225  22.676  -6.088  0.00  0.00    -0.269 OA
BRANCH  10  13
HETATM   13  C   UNK N   1      25.562  25.355  -5.790  0.00  0.00     0.127 C 
BRANCH  13  14
HETATM   14  C   UNK N   1      25.238  26.766  -6.275  0.00  0.00     0.058 C 
BRANCH  14  15
HETATM   15  C   UNK N   1      26.013  27.816  -5.535  0.00  0.00    -0.057 A 
HETATM   16  C   UNK N   1      27.141  28.417  -6.110  0.00  0.00     0.007 A 
HETATM   17  C   UNK N   1      27.850  29.399  -5.412  0.00  0.00     0.001 A 
HETATM   18  C   UNK N   1      27.430  29.792  -4.138  0.00  0.00     0.000 A 
HETATM   19  C   UNK N   1      26.298  29.205  -3.565  0.00  0.00     0.001 A 
HETATM   20  C   UNK N   1      25.589  28.220  -4.264  0.00  0.00     0.007 A 
ENDBRANCH  14  15
ENDBRANCH  13  14
ENDBRANCH  10  13
ENDBRANCH   8   9
ENDBRANCH   1   7
BRANCH   3  21
HETATM   21  O   UNK N   1      30.697  24.206  -5.165  0.00  0.00    -0.276 OA
BRANCH  21  22
HETATM   22  C   UNK N   1      30.123  24.807  -4.083  0.00  0.00     0.260 C 
HETATM   23  O   UNK N   1      30.591  24.695  -2.961  0.00  0.00    -0.265 OA
HETATM   24  C   UNK N   1      28.912  25.650  -4.280  0.00  0.00     0.126 C 
ENDBRANCH  21  22
ENDBRANCH   3  21
BRANCH   4  25
HETATM   25  O   UNK N   1      32.119  21.986  -4.542  0.00  0.00    -0.276 OA
BRANCH  25  26
HETATM   26  C   UNK N   1      32.278  21.524  -3.270  0.00  0.00     0.260 C 
HETATM   27  O   UNK N   1      31.332  21.576  -2.504  0.00  0.00    -0.265 OA
HETATM   28  C   UNK N   1      33.572  20.973  -2.766  0.00  0.00     0.126 C 
ENDBRANCH  25  26
ENDBRANCH   4  25
TORSDOF 9
ENDMDL
MODEL 8
REMARK VINA RESULT:      -6.7     11.236     13.754
REMARK  9 active torsions:
REMARK  status: ('A' for Active; 'I' for Inactive)
REMARK    1  A    between atoms: C_4  and  C_5 
REMARK    2  A    between atoms: C_5  and  C_6 
REMARK    3  A    between atoms: C_6  and  N_7 
REMARK       I    between atoms: N_7  and  C_8 
REMARK    4  A    between atoms: C_8  and  C_10 
REMARK    5  A    between atoms: C_11  and  C_12 
REMARK    6  A    between atoms: C_14  and  O_15 
REMARK    7  A    between atoms: O_15  and  C_16 
REMARK    8  A    between atoms: C_19  and  O_20 
REMARK    9  A    between atoms: O_20  and  C_21 
ROOT
HETATM    1  C   UNK N   1      29.684  21.486  -6.928  0.00  0.00    -0.033 A 
HETATM    2  C   UNK N   1      29.407  21.657  -5.576  0.00  0.00     0.051 A 
HETATM    3  C   UNK N   1      30.420  21.797  -4.626  0.00  0.00     0.113 A 
HETATM    4  C   UNK N   1      31.762  21.800  -5.038  0.00  0.00     0.113 A 
HETATM    5  C   UNK N   1      32.052  21.628  -6.412  0.00  0.00     0.041 A 
HETATM    6  C   UNK N   1      31.019  21.460  -7.351  0.00  0.00     0.014 A 
ENDROOT
BRANCH   1   7
HETATM    7  C   UNK N   1      28.505  21.322  -7.802  0.00  0.00     0.017 C 
HETATM    8  C   UNK N   1      27.572  22.171  -8.262  0.00  0.00     0.075 C 
BRANCH   8   9
HETATM    9  C   UNK N   1      27.348  23.606  -8.021  0.00  0.00     0.241 C 
HETATM   10  N   UNK N   1      26.119  24.108  -7.757  0.00  0.00    -0.357 N 
HETATM   11  H   UNK N   1      25.348  23.499  -7.699  0.00  0.00     0.162 HD
HETATM   12  O   UNK N   1      28.305  24.358  -8.131  0.00  0.00    -0.269 OA
BRANCH  10  13
HETATM   13  C   UNK N   1      25.922  25.528  -7.558  0.00  0.00     0.127 C 
BRANCH  13  14
HETATM   14  C   UNK N   1      25.513  25.826  -6.117  0.00  0.00     0.058 C 
BRANCH  14  15
HETATM   15  C   UNK N   1      26.034  27.149  -5.639  0.00  0.00    -0.057 A 
HETATM   16  C   UNK N   1      25.536  27.739  -4.470  0.00  0.00     0.007 A 
HETATM   17  C   UNK N   1      26.036  28.970  -4.032  0.00  0.00     0.001 A 
HETATM   18  C   UNK N   1      27.043  29.613  -4.757  0.00  0.00     0.000 A 
HETATM   19  C   UNK N   1      27.553  29.022  -5.917  0.00  0.00     0.001 A 
HETATM   20  C   UNK N   1      27.051  27.791  -6.356  0.00  0.00     0.007 A 
ENDBRANCH  14  15
ENDBRANCH  13  14
ENDBRANCH  10  13
ENDBRANCH   8   9
ENDBRANCH   1   7
BRANCH   3  21
HETATM   21  O   UNK N   1      30.134  21.928  -3.297  0.00  0.00    -0.276 OA
BRANCH  21  22
HETATM   22  C   UNK N   1      30.184  23.074  -2.557  0.00  0.00     0.260 C 
HETATM   23  O   UNK N   1      30.414  23.055  -1.358  0.00  0.00    -0.265 OA
HETATM   24  C   UNK N   1      29.985  24.384  -3.234  0.00  0.00     0.126 C 
ENDBRANCH  21  22
ENDBRANCH   3  21
BRANCH   4  25
HETATM   25  O   UNK N   1      32.724  21.957  -4.090  0.00  0.00    -0.276 OA
BRANCH  25  26
HETATM   26  C   UNK N   1      33.311  21.036  -3.274  0.00  0.00     0.260 C 
HETATM   27  O   UNK N   1      33.187  21.156  -2.068  0.00  0.00    -0.265 OA
HETATM   28  C   UNK N   1      34.119  19.893  -3.796  0.00  0.00     0.126 C 
ENDBRANCH  25  26
ENDBRANCH   4  25
TORSDOF 9
ENDMDL
MODEL 9
REMARK VINA RESULT:      -6.7      5.199      9.913
REMARK  9 active torsions:
REMARK  status: ('A' for Active; 'I' for Inactive)
REMARK    1  A    between atoms: C_4  and  C_5 
REMARK    2  A    between atoms: C_5  and  C_6 
REMARK    3  A    between atoms: C_6  and  N_7 
REMARK       I    between atoms: N_7  and  C_8 
REMARK    4  A    between atoms: C_8  and  C_10 
REMARK    5  A    between atoms: C_11  and  C_12 
REMARK    6  A    between atoms: C_14  and  O_15 
REMARK    7  A    between atoms: O_15  and  C_16 
REMARK    8  A    between atoms: C_19  and  O_20 
REMARK    9  A    between atoms: O_20  and  C_21 
ROOT
HETATM    1  C   UNK N   1      24.966  19.040   3.784  0.00  0.00    -0.033 A 
HETATM    2  C   UNK N   1      23.617  19.377   3.782  0.00  0.00     0.051 A 
HETATM    3  C   UNK N   1      22.613  18.406   3.770  0.00  0.00     0.113 A 
HETATM    4  C   UNK N   1      22.962  17.047   3.793  0.00  0.00     0.113 A 
HETATM    5  C   UNK N   1      24.333  16.696   3.797  0.00  0.00     0.041 A 
HETATM    6  C   UNK N   1      25.330  17.688   3.781  0.00  0.00     0.014 A 
ENDROOT
BRANCH   1   7
HETATM    7  C   UNK N   1      25.904  20.181   3.767  0.00  0.00     0.017 C 
HETATM    8  C   UNK N   1      26.767  20.679   4.666  0.00  0.00     0.075 C 
BRANCH   8   9
HETATM    9  C   UNK N   1      27.072  20.291   6.054  0.00  0.00     0.241 C 
HETATM   10  N   UNK N   1      27.955  19.310   6.350  0.00  0.00    -0.357 N 
HETATM   11  H   UNK N   1      28.433  18.851   5.621  0.00  0.00     0.162 HD
HETATM   12  O   UNK N   1      26.446  20.842   6.948  0.00  0.00    -0.269 OA
BRANCH  10  13
HETATM   13  C   UNK N   1      28.209  18.926   7.721  0.00  0.00     0.127 C 
BRANCH  13  14
HETATM   14  C   UNK N   1      28.807  17.522   7.793  0.00  0.00     0.058 C 
BRANCH  14  15
HETATM   15  C   UNK N   1      30.285  17.519   7.537  0.00  0.00    -0.057 A 
HETATM   16  C   UNK N   1      31.189  17.911   8.534  0.00  0.00     0.007 A 
HETATM   17  C   UNK N   1      32.565  17.896   8.284  0.00  0.00     0.001 A 
HETATM   18  C   UNK N   1      33.045  17.479   7.039  0.00  0.00     0.000 A 
HETATM   19  C   UNK N   1      32.149  17.074   6.046  0.00  0.00     0.001 A 
HETATM   20  C   UNK N   1      30.771  17.091   6.296  0.00  0.00     0.007 A 
ENDBRANCH  14  15
ENDBRANCH  13  14
ENDBRANCH  10  13
ENDBRANCH   8   9
ENDBRANCH   1   7
BRANCH   3  21
HETATM   21  O   UNK N   1      21.292  18.750   3.730  0.00  0.00    -0.276 OA
BRANCH  21  22
HETATM   22  C   UNK N   1      20.755  19.877   3.179  0.00  0.00     0.260 C 
HETATM   23  O   UNK N   1      20.288  20.771   3.868  0.00  0.00    -0.265 OA
HETATM   24  C   UNK N   1      20.767  20.037   1.699  0.00  0.00     0.126 C 
ENDBRANCH  21  22
ENDBRANCH   3  21
BRANCH   4  25
HETATM   25  O   UNK N   1      21.961  16.126   3.799  0.00  0.00    -0.276 OA
BRANCH  25  26
HETATM   26  C   UNK N   1      21.236  15.612   2.766  0.00  0.00     0.260 C 
HETATM   27  O   UNK N   1      20.020  15.661   2.820  0.00  0.00    -0.265 OA
HETATM   28  C   UNK N   1      21.870  14.970   1.575  0.00  0.00     0.126 C 
ENDBRANCH  25  26
ENDBRANCH   4  25
TORSDOF 9
ENDMDL
