REMARK  9 active torsions:
REMARK  status: ('A' for Active; 'I' for Inactive)
REMARK       I    between atoms: N_8  and  C_1 
REMARK       I    between atoms: N_9  and  C_1 
REMARK    1  A    between atoms: C_10  and  N_9 
REMARK    2  A    between atoms: C_10  and  C_18 
REMARK    3  A    between atoms: C_11  and  C_10 
REMARK    4  A    between atoms: C_12  and  C_11 
REMARK       I    between atoms: C_18  and  N_22 
REMARK    5  A    between atoms: C_20  and  O_23 
REMARK    6  A    between atoms: C_33  and  C_20 
REMARK    7  A    between atoms: C_33  and  N_22 
REMARK    8  A    between atoms: O_23  and  C_24 
REMARK    9  A    between atoms: C_24  and  C_25 
ROOT
HETATM    1  C   UNK N   1       0.748   2.597  -1.324  0.00  0.00     0.057 C 
HETATM    2  C   UNK N   1       1.983   0.546  -1.099  0.00  0.00     0.092 C 
HETATM    3  N   UNK N   1       2.386  -0.348  -1.715  0.00  0.00    -0.194 NA
HETATM    4  C   UNK N   1       1.483   1.693  -0.337  0.00  0.00     0.140 C 
ENDROOT
BRANCH   4   5
HETATM    5  N   UNK N   1       0.685   1.263   0.791  0.00  0.00    -0.336 N 
HETATM    6  C   UNK N   1      -0.644   1.481   0.838  0.00  0.00     0.242 C 
HETATM    7  O   UNK N   1      -1.056   2.497   1.375  0.00  0.00    -0.271 OA
HETATM    8  H   UNK N   1       1.123   0.801   1.541  0.00  0.00     0.164 HD
BRANCH   6   9
HETATM    9  C   UNK N   1      -1.584   0.649   0.003  0.00  0.00     0.178 C 
BRANCH   9  10
HETATM   10  N   UNK N   1      -2.690   0.121   0.774  0.00  0.00    -0.330 N 
HETATM   11  C   UNK N   1      -3.998   0.235   0.428  0.00  0.00     0.319 C 
HETATM   12  O   UNK N   1      -4.763  -0.642   0.802  0.00  0.00    -0.247 OA
HETATM   13  N   UNK N   1      -4.480   1.256  -0.345  0.00  0.00    -0.330 N 
HETATM   14  C   UNK N   1      -5.847   1.212  -0.810  0.00  0.00     0.153 C 
HETATM   15  C   UNK N   1      -3.794   2.527  -0.470  0.00  0.00     0.153 C 
HETATM   16  C   UNK N   1      -6.583   2.441  -0.274  0.00  0.00     0.187 C 
HETATM   17  O   UNK N   1      -5.830   3.055   0.749  0.00  0.00    -0.388 OA
HETATM   18  C   UNK N   1      -4.692   3.621   0.131  0.00  0.00     0.187 C 
HETATM   19  H   UNK N   1      -2.479  -0.356   1.609  0.00  0.00     0.165 HD
ENDBRANCH   9  10
BRANCH   9  20
HETATM   20  C   UNK N   1      -0.978  -0.528  -0.755  0.00  0.00     0.039 C 
BRANCH  20  21
HETATM   21  C   UNK N   1      -0.832  -1.800   0.059  0.00  0.00    -0.012 C 
HETATM   22  C   UNK N   1       0.615  -1.892   0.518  0.00  0.00     0.005 C 
HETATM   23  C   UNK N   1       0.903  -3.234   1.169  0.00  0.00     0.000 C 
HETATM   24  C   UNK N   1       0.584  -4.358   0.192  0.00  0.00     0.000 C 
HETATM   25  C   UNK N   1      -0.895  -4.308  -0.173  0.00  0.00     0.000 C 
HETATM   26  C   UNK N   1      -1.207  -2.977  -0.846  0.00  0.00     0.005 C 
ENDBRANCH  20  21
ENDBRANCH   9  20
ENDBRANCH   6   9
ENDBRANCH   4   5
BRANCH   4  27
HETATM   27  C   UNK N   1       2.625   2.591   0.136  0.00  0.00     0.214 C 
BRANCH  27  28
HETATM   28  O   UNK N   1       3.389   1.969   1.127  0.00  0.00    -0.383 OA
BRANCH  28  29
HETATM   29  C   UNK N   1       4.638   1.785   0.533  0.00  0.00     0.206 C 
BRANCH  29  30
HETATM   30  C   UNK N   1       4.968   0.334   0.375  0.00  0.00    -0.035 A 
HETATM   31  C   UNK N   1       6.167  -0.018  -0.248  0.00  0.00     0.009 A 
HETATM   32  C   UNK N   1       6.511  -1.363  -0.400  0.00  0.00     0.001 A 
HETATM   33  C   UNK N   1       5.652  -2.363   0.067  0.00  0.00     0.000 A 
HETATM   34  C   UNK N   1       4.449  -2.017   0.688  0.00  0.00     0.001 A 
HETATM   35  C   UNK N   1       4.109  -0.672   0.847  0.00  0.00     0.009 A 
ENDBRANCH  29  30
ENDBRANCH  28  29
ENDBRANCH  27  28
ENDBRANCH   4  27
TORSDOF 9
