MODEL 1
REMARK VINA RESULT:      -7.9      0.000      0.000
REMARK  9 active torsions:
REMARK  status: ('A' for Active; 'I' for Inactive)
REMARK       I    between atoms: N_8  and  C_1 
REMARK       I    between atoms: N_9  and  C_1 
REMARK    1  A    between atoms: C_10  and  N_9 
REMARK    2  A    between atoms: C_10  and  C_18 
REMARK    3  A    between atoms: C_11  and  C_10 
REMARK    4  A    between atoms: C_12  and  C_11 
REMARK       I    between atoms: C_18  and  N_22 
REMARK    5  A    between atoms: C_20  and  O_23 
REMARK    6  A    between atoms: C_33  and  C_20 
REMARK    7  A    between atoms: C_33  and  N_22 
REMARK    8  A    between atoms: O_23  and  C_24 
REMARK    9  A    between atoms: C_24  and  C_25 
ROOT
HETATM    1  C   UNK N   1      35.522  14.674   8.506  0.00  0.00     0.057 C 
HETATM    2  C   UNK N   1      33.394  13.825   9.235  0.00  0.00     0.092 C 
HETATM    3  N   UNK N   1      32.521  13.143   8.899  0.00  0.00    -0.194 NA
HETATM    4  C   UNK N   1      34.515  14.670   9.653  0.00  0.00     0.140 C 
ENDROOT
BRANCH   4   5
HETATM    5  N   UNK N   1      34.058  15.983  10.054  0.00  0.00    -0.336 N 
HETATM    6  C   UNK N   1      34.152  17.044   9.229  0.00  0.00     0.242 C 
HETATM    7  O   UNK N   1      35.146  17.751   9.289  0.00  0.00    -0.271 OA
HETATM    8  H   UNK N   1      33.670  16.104  10.950  0.00  0.00     0.164 HD
BRANCH   6   9
HETATM    9  C   UNK N   1      33.202  17.195   8.068  0.00  0.00     0.178 C 
BRANCH   9  10
HETATM   10  N   UNK N   1      33.865  17.660   6.868  0.00  0.00    -0.330 N 
HETATM   11  C   UNK N   1      33.453  17.388   5.603  0.00  0.00     0.319 C 
HETATM   12  O   UNK N   1      33.713  18.206   4.732  0.00  0.00    -0.247 OA
HETATM   13  N   UNK N   1      32.735  16.270   5.275  0.00  0.00    -0.330 N 
HETATM   14  C   UNK N   1      32.189  16.140   3.944  0.00  0.00     0.153 C 
HETATM   15  C   UNK N   1      32.748  15.071   6.090  0.00  0.00     0.153 C 
HETATM   16  C   UNK N   1      32.774  14.883   3.299  0.00  0.00     0.187 C 
HETATM   17  O   UNK N   1      33.884  14.424   4.040  0.00  0.00    -0.388 OA
HETATM   18  C   UNK N   1      33.379  13.936   5.266  0.00  0.00     0.187 C 
HETATM   19  H   UNK N   1      34.671  18.214   6.975  0.00  0.00     0.165 HD
ENDBRANCH   9  10
BRANCH   9  20
HETATM   20  C   UNK N   1      31.992  18.100   8.278  0.00  0.00     0.039 C 
BRANCH  20  21
HETATM   21  C   UNK N   1      30.665  17.371   8.375  0.00  0.00    -0.012 C 
HETATM   22  C   UNK N   1      30.002  17.432   7.008  0.00  0.00     0.005 C 
HETATM   23  C   UNK N   1      28.579  16.905   7.060  0.00  0.00     0.000 C 
HETATM   24  C   UNK N   1      27.772  17.703   8.076  0.00  0.00     0.000 C 
HETATM   25  C   UNK N   1      28.396  17.543   9.458  0.00  0.00     0.000 C 
HETATM   26  C   UNK N   1      29.821  18.083   9.437  0.00  0.00     0.005 C 
ENDBRANCH  20  21
ENDBRANCH   9  20
ENDBRANCH   6   9
ENDBRANCH   4   5
BRANCH   4  27
HETATM   27  C   UNK N   1      35.314  14.021  10.783  0.00  0.00     0.214 C 
BRANCH  27  28
HETATM   28  O   UNK N   1      34.578  13.975  11.970  0.00  0.00    -0.383 OA
BRANCH  28  29
HETATM   29  C   UNK N   1      35.073  12.855  12.638  0.00  0.00     0.206 C 
BRANCH  29  30
HETATM   30  C   UNK N   1      35.397  13.160  14.066  0.00  0.00    -0.035 A 
HETATM   31  C   UNK N   1      34.633  12.561  15.071  0.00  0.00     0.009 A 
HETATM   32  C   UNK N   1      34.918  12.814  16.414  0.00  0.00     0.001 A 
HETATM   33  C   UNK N   1      35.966  13.674  16.759  0.00  0.00     0.000 A 
HETATM   34  C   UNK N   1      36.731  14.279  15.758  0.00  0.00     0.001 A 
HETATM   35  C   UNK N   1      36.451  14.019  14.415  0.00  0.00     0.009 A 
ENDBRANCH  29  30
ENDBRANCH  28  29
ENDBRANCH  27  28
ENDBRANCH   4  27
TORSDOF 9
ENDMDL
MODEL 2
REMARK VINA RESULT:      -7.8      2.670      8.393
REMARK  9 active torsions:
REMARK  status: ('A' for Active; 'I' for Inactive)
REMARK       I    between atoms: N_8  and  C_1 
REMARK       I    between atoms: N_9  and  C_1 
REMARK    1  A    between atoms: C_10  and  N_9 
REMARK    2  A    between atoms: C_10  and  C_18 
REMARK    3  A    between atoms: C_11  and  C_10 
REMARK    4  A    between atoms: C_12  and  C_11 
REMARK       I    between atoms: C_18  and  N_22 
REMARK    5  A    between atoms: C_20  and  O_23 
REMARK    6  A    between atoms: C_33  and  C_20 
REMARK    7  A    between atoms: C_33  and  N_22 
REMARK    8  A    between atoms: O_23  and  C_24 
REMARK    9  A    between atoms: C_24  and  C_25 
ROOT
HETATM    1  C   UNK N   1      30.786  18.742   9.024  0.00  0.00     0.057 C 
HETATM    2  C   UNK N   1      28.855  17.323   9.220  0.00  0.00     0.092 C 
HETATM    3  N   UNK N   1      27.777  17.303   9.643  0.00  0.00    -0.194 NA
HETATM    4  C   UNK N   1      30.214  17.370   8.675  0.00  0.00     0.140 C 
ENDROOT
BRANCH   4   5
HETATM    5  N   UNK N   1      31.005  16.254   9.145  0.00  0.00    -0.336 N 
HETATM    6  C   UNK N   1      31.930  15.666   8.360  0.00  0.00     0.242 C 
HETATM    7  O   UNK N   1      31.604  14.704   7.683  0.00  0.00    -0.271 OA
HETATM    8  H   UNK N   1      30.864  15.916  10.058  0.00  0.00     0.164 HD
BRANCH   6   9
HETATM    9  C   UNK N   1      33.251  16.343   8.099  0.00  0.00     0.178 C 
BRANCH   9  10
HETATM   10  N   UNK N   1      33.819  16.930   9.296  0.00  0.00    -0.330 N 
HETATM   11  C   UNK N   1      34.990  16.545   9.865  0.00  0.00     0.319 C 
HETATM   12  O   UNK N   1      35.622  17.385  10.489  0.00  0.00    -0.247 OA
HETATM   13  N   UNK N   1      35.504  15.283   9.736  0.00  0.00    -0.330 N 
HETATM   14  C   UNK N   1      36.834  15.003  10.225  0.00  0.00     0.153 C 
HETATM   15  C   UNK N   1      34.678  14.136   9.414  0.00  0.00     0.153 C 
HETATM   16  C   UNK N   1      36.741  13.909  11.290  0.00  0.00     0.187 C 
HETATM   17  O   UNK N   1      35.402  13.739  11.701  0.00  0.00    -0.388 OA
HETATM   18  C   UNK N   1      34.711  13.167  10.608  0.00  0.00     0.187 C 
HETATM   19  H   UNK N   1      33.321  17.661   9.727  0.00  0.00     0.165 HD
ENDBRANCH   9  10
BRANCH   9  20
HETATM   20  C   UNK N   1      33.272  17.429   7.028  0.00  0.00     0.039 C 
BRANCH  20  21
HETATM   21  C   UNK N   1      33.823  16.986   5.686  0.00  0.00    -0.012 C 
HETATM   22  C   UNK N   1      32.722  17.168   4.651  0.00  0.00     0.005 C 
HETATM   23  C   UNK N   1      33.115  16.562   3.315  0.00  0.00     0.000 C 
HETATM   24  C   UNK N   1      33.434  15.084   3.496  0.00  0.00     0.000 C 
HETATM   25  C   UNK N   1      34.607  14.931   4.457  0.00  0.00     0.000 C 
HETATM   26  C   UNK N   1      34.232  15.516   5.813  0.00  0.00     0.005 C 
ENDBRANCH  20  21
ENDBRANCH   9  20
ENDBRANCH   6   9
ENDBRANCH   4   5
BRANCH   4  27
HETATM   27  C   UNK N   1      30.202  17.403   7.147  0.00  0.00     0.214 C 
BRANCH  27  28
HETATM   28  O   UNK N   1      28.945  17.068   6.637  0.00  0.00    -0.383 OA
BRANCH  28  29
HETATM   29  C   UNK N   1      28.911  17.675   5.381  0.00  0.00     0.206 C 
BRANCH  29  30
HETATM   30  C   UNK N   1      28.045  18.895   5.378  0.00  0.00    -0.035 A 
HETATM   31  C   UNK N   1      27.533  19.352   4.162  0.00  0.00     0.009 A 
HETATM   32  C   UNK N   1      26.711  20.481   4.126  0.00  0.00     0.001 A 
HETATM   33  C   UNK N   1      26.403  21.161   5.309  0.00  0.00     0.000 A 
HETATM   34  C   UNK N   1      26.916  20.711   6.528  0.00  0.00     0.001 A 
HETATM   35  C   UNK N   1      27.731  19.577   6.565  0.00  0.00     0.009 A 
ENDBRANCH  29  30
ENDBRANCH  28  29
ENDBRANCH  27  28
ENDBRANCH   4  27
TORSDOF 9
ENDMDL
MODEL 3
REMARK VINA RESULT:      -7.5      1.914      2.699
REMARK  9 active torsions:
REMARK  status: ('A' for Active; 'I' for Inactive)
REMARK       I    between atoms: N_8  and  C_1 
REMARK       I    between atoms: N_9  and  C_1 
REMARK    1  A    between atoms: C_10  and  N_9 
REMARK    2  A    between atoms: C_10  and  C_18 
REMARK    3  A    between atoms: C_11  and  C_10 
REMARK    4  A    between atoms: C_12  and  C_11 
REMARK       I    between atoms: C_18  and  N_22 
REMARK    5  A    between atoms: C_20  and  O_23 
REMARK    6  A    between atoms: C_33  and  C_20 
REMARK    7  A    between atoms: C_33  and  N_22 
REMARK    8  A    between atoms: O_23  and  C_24 
REMARK    9  A    between atoms: C_24  and  C_25 
ROOT
HETATM    1  C   UNK N   1      36.741  14.581  10.795  0.00  0.00     0.057 C 
HETATM    2  C   UNK N   1      34.960  12.993  11.097  0.00  0.00     0.092 C 
HETATM    3  N   UNK N   1      34.604  11.946  10.754  0.00  0.00    -0.194 NA
HETATM    4  C   UNK N   1      35.433  14.309  11.535  0.00  0.00     0.140 C 
ENDROOT
BRANCH   4   5
HETATM    5  N   UNK N   1      34.415  15.320  11.346  0.00  0.00    -0.336 N 
HETATM    6  C   UNK N   1      34.402  16.111  10.255  0.00  0.00     0.242 C 
HETATM    7  O   UNK N   1      34.975  17.188  10.301  0.00  0.00    -0.271 OA
HETATM    8  H   UNK N   1      33.717  15.433  12.030  0.00  0.00     0.164 HD
BRANCH   6   9
HETATM    9  C   UNK N   1      33.947  15.568   8.924  0.00  0.00     0.178 C 
BRANCH   9  10
HETATM   10  N   UNK N   1      34.401  16.376   7.812  0.00  0.00    -0.330 N 
HETATM   11  C   UNK N   1      34.752  15.889   6.594  0.00  0.00     0.319 C 
HETATM   12  O   UNK N   1      34.599  16.617   5.625  0.00  0.00    -0.247 OA
HETATM   13  N   UNK N   1      35.226  14.619   6.406  0.00  0.00    -0.330 N 
HETATM   14  C   UNK N   1      35.414  14.121   5.063  0.00  0.00     0.153 C 
HETATM   15  C   UNK N   1      35.841  13.853   7.473  0.00  0.00     0.153 C 
HETATM   16  C   UNK N   1      36.888  13.757   4.881  0.00  0.00     0.187 C 
HETATM   17  O   UNK N   1      37.661  14.306   5.926  0.00  0.00    -0.388 OA
HETATM   18  C   UNK N   1      37.312  13.602   7.101  0.00  0.00     0.187 C 
HETATM   19  H   UNK N   1      34.458  17.350   7.947  0.00  0.00     0.165 HD
ENDBRANCH   9  10
BRANCH   9  20
HETATM   20  C   UNK N   1      32.447  15.367   8.735  0.00  0.00     0.039 C 
BRANCH  20  21
HETATM   21  C   UNK N   1      31.730  16.526   8.067  0.00  0.00    -0.012 C 
HETATM   22  C   UNK N   1      30.714  17.074   9.057  0.00  0.00     0.005 C 
HETATM   23  C   UNK N   1      29.810  18.106   8.404  0.00  0.00     0.000 C 
HETATM   24  C   UNK N   1      29.102  17.485   7.207  0.00  0.00     0.000 C 
HETATM   25  C   UNK N   1      30.138  17.037   6.182  0.00  0.00     0.000 C 
HETATM   26  C   UNK N   1      31.048  15.986   6.807  0.00  0.00     0.005 C 
ENDBRANCH  20  21
ENDBRANCH   9  20
ENDBRANCH   6   9
ENDBRANCH   4   5
BRANCH   4  27
HETATM   27  C   UNK N   1      35.886  14.282  12.994  0.00  0.00     0.214 C 
BRANCH  27  28
HETATM   28  O   UNK N   1      35.093  13.425  13.762  0.00  0.00    -0.383 OA
BRANCH  28  29
HETATM   29  C   UNK N   1      36.011  12.617  14.433  0.00  0.00     0.206 C 
BRANCH  29  30
HETATM   30  C   UNK N   1      35.719  12.547  15.899  0.00  0.00    -0.035 A 
HETATM   31  C   UNK N   1      35.673  11.296  16.516  0.00  0.00     0.009 A 
HETATM   32  C   UNK N   1      35.415  11.196  17.885  0.00  0.00     0.001 A 
HETATM   33  C   UNK N   1      35.197  12.351  18.643  0.00  0.00     0.000 A 
HETATM   34  C   UNK N   1      35.238  13.607  18.030  0.00  0.00     0.001 A 
HETATM   35  C   UNK N   1      35.503  13.706  16.663  0.00  0.00     0.009 A 
ENDBRANCH  29  30
ENDBRANCH  28  29
ENDBRANCH  27  28
ENDBRANCH   4  27
TORSDOF 9
ENDMDL
MODEL 4
REMARK VINA RESULT:      -7.3     10.379     12.424
REMARK  9 active torsions:
REMARK  status: ('A' for Active; 'I' for Inactive)
REMARK       I    between atoms: N_8  and  C_1 
REMARK       I    between atoms: N_9  and  C_1 
REMARK    1  A    between atoms: C_10  and  N_9 
REMARK    2  A    between atoms: C_10  and  C_18 
REMARK    3  A    between atoms: C_11  and  C_10 
REMARK    4  A    between atoms: C_12  and  C_11 
REMARK       I    between atoms: C_18  and  N_22 
REMARK    5  A    between atoms: C_20  and  O_23 
REMARK    6  A    between atoms: C_33  and  C_20 
REMARK    7  A    between atoms: C_33  and  N_22 
REMARK    8  A    between atoms: O_23  and  C_24 
REMARK    9  A    between atoms: C_24  and  C_25 
ROOT
HETATM    1  C   UNK N   1      19.763  15.877   6.091  0.00  0.00     0.057 C 
HETATM    2  C   UNK N   1      20.625  17.623   7.503  0.00  0.00     0.092 C 
HETATM    3  N   UNK N   1      20.530  18.758   7.711  0.00  0.00    -0.194 NA
HETATM    4  C   UNK N   1      20.719  16.184   7.242  0.00  0.00     0.140 C 
ENDROOT
BRANCH   4   5
HETATM    5  N   UNK N   1      22.090  15.785   7.004  0.00  0.00    -0.336 N 
HETATM    6  C   UNK N   1      22.441  15.086   5.907  0.00  0.00     0.242 C 
HETATM    7  O   UNK N   1      22.460  13.867   5.967  0.00  0.00    -0.271 OA
HETATM    8  H   UNK N   1      22.782  16.031   7.660  0.00  0.00     0.164 HD
BRANCH   6   9
HETATM    9  C   UNK N   1      22.527  15.765   4.564  0.00  0.00     0.178 C 
BRANCH   9  10
HETATM   10  N   UNK N   1      23.400  15.066   3.645  0.00  0.00    -0.330 N 
HETATM   11  C   UNK N   1      23.025  14.601   2.425  0.00  0.00     0.319 C 
HETATM   12  O   UNK N   1      23.883  14.528   1.557  0.00  0.00    -0.247 OA
HETATM   13  N   UNK N   1      21.737  14.255   2.121  0.00  0.00    -0.330 N 
HETATM   14  C   UNK N   1      21.389  13.935   0.756  0.00  0.00     0.153 C 
HETATM   15  C   UNK N   1      20.768  13.893   3.137  0.00  0.00     0.153 C 
HETATM   16  C   UNK N   1      20.857  12.502   0.712  0.00  0.00     0.187 C 
HETATM   17  O   UNK N   1      21.163  11.830   1.914  0.00  0.00    -0.388 OA
HETATM   18  C   UNK N   1      20.372  12.423   2.924  0.00  0.00     0.187 C 
HETATM   19  H   UNK N   1      24.332  14.916   3.923  0.00  0.00     0.165 HD
ENDBRANCH   9  10
BRANCH   9  20
HETATM   20  C   UNK N   1      22.965  17.227   4.555  0.00  0.00     0.039 C 
BRANCH  20  21
HETATM   21  C   UNK N   1      21.881  18.212   4.159  0.00  0.00    -0.012 C 
HETATM   22  C   UNK N   1      20.922  17.493   3.222  0.00  0.00     0.005 C 
HETATM   23  C   UNK N   1      19.918  18.456   2.614  0.00  0.00     0.000 C 
HETATM   24  C   UNK N   1      20.654  19.565   1.872  0.00  0.00     0.000 C 
HETATM   25  C   UNK N   1      21.529  20.337   2.853  0.00  0.00     0.000 C 
HETATM   26  C   UNK N   1      22.559  19.395   3.464  0.00  0.00     0.005 C 
ENDBRANCH  20  21
ENDBRANCH   9  20
ENDBRANCH   6   9
ENDBRANCH   4   5
BRANCH   4  27
HETATM   27  C   UNK N   1      20.122  15.367   8.386  0.00  0.00     0.214 C 
BRANCH  27  28
HETATM   28  O   UNK N   1      21.064  15.126   9.389  0.00  0.00    -0.383 OA
BRANCH  28  29
HETATM   29  C   UNK N   1      20.919  13.769   9.679  0.00  0.00     0.206 C 
BRANCH  29  30
HETATM   30  C   UNK N   1      22.203  13.162  10.150  0.00  0.00    -0.035 A 
HETATM   31  C   UNK N   1      22.192  12.382  11.309  0.00  0.00     0.009 A 
HETATM   32  C   UNK N   1      23.370  11.791  11.769  0.00  0.00     0.001 A 
HETATM   33  C   UNK N   1      24.568  11.983  11.073  0.00  0.00     0.000 A 
HETATM   34  C   UNK N   1      24.586  12.765   9.915  0.00  0.00     0.001 A 
HETATM   35  C   UNK N   1      23.406  13.349   9.451  0.00  0.00     0.009 A 
ENDBRANCH  29  30
ENDBRANCH  28  29
ENDBRANCH  27  28
ENDBRANCH   4  27
TORSDOF 9
ENDMDL
MODEL 5
REMARK VINA RESULT:      -7.3     15.616     19.900
REMARK  9 active torsions:
REMARK  status: ('A' for Active; 'I' for Inactive)
REMARK       I    between atoms: N_8  and  C_1 
REMARK       I    between atoms: N_9  and  C_1 
REMARK    1  A    between atoms: C_10  and  N_9 
REMARK    2  A    between atoms: C_10  and  C_18 
REMARK    3  A    between atoms: C_11  and  C_10 
REMARK    4  A    between atoms: C_12  and  C_11 
REMARK       I    between atoms: C_18  and  N_22 
REMARK    5  A    between atoms: C_20  and  O_23 
REMARK    6  A    between atoms: C_33  and  C_20 
REMARK    7  A    between atoms: C_33  and  N_22 
REMARK    8  A    between atoms: O_23  and  C_24 
REMARK    9  A    between atoms: C_24  and  C_25 
ROOT
HETATM    1  C   UNK N   1      27.488  24.988  -8.457  0.00  0.00     0.057 C 
HETATM    2  C   UNK N   1      25.591  25.489  -9.848  0.00  0.00     0.092 C 
HETATM    3  N   UNK N   1      25.169  26.302 -10.557  0.00  0.00    -0.194 NA
HETATM    4  C   UNK N   1      26.147  24.461  -8.964  0.00  0.00     0.140 C 
ENDROOT
BRANCH   4   5
HETATM    5  N   UNK N   1      25.209  24.106  -7.921  0.00  0.00    -0.336 N 
HETATM    6  C   UNK N   1      25.626  23.653  -6.722  0.00  0.00     0.242 C 
HETATM    7  O   UNK N   1      25.739  22.449  -6.554  0.00  0.00    -0.271 OA
HETATM    8  H   UNK N   1      24.245  24.198  -8.091  0.00  0.00     0.164 HD
BRANCH   6   9
HETATM    9  C   UNK N   1      26.216  24.603  -5.710  0.00  0.00     0.178 C 
BRANCH   9  10
HETATM   10  N   UNK N   1      26.228  24.049  -4.373  0.00  0.00    -0.330 N 
HETATM   11  C   UNK N   1      27.317  24.009  -3.562  0.00  0.00     0.319 C 
HETATM   12  O   UNK N   1      27.128  24.036  -2.355  0.00  0.00    -0.247 OA
HETATM   13  N   UNK N   1      28.600  23.980  -4.037  0.00  0.00    -0.330 N 
HETATM   14  C   UNK N   1      29.703  24.112  -3.113  0.00  0.00     0.153 C 
HETATM   15  C   UNK N   1      28.926  23.519  -5.372  0.00  0.00     0.153 C 
HETATM   16  C   UNK N   1      30.571  22.857  -3.209  0.00  0.00     0.187 C 
HETATM   17  O   UNK N   1      29.883  21.837  -3.900  0.00  0.00    -0.388 OA
HETATM   18  C   UNK N   1      29.789  22.252  -5.247  0.00  0.00     0.187 C 
HETATM   19  H   UNK N   1      25.387  23.675  -4.024  0.00  0.00     0.165 HD
ENDBRANCH   9  10
BRANCH   9  20
HETATM   20  C   UNK N   1      25.578  25.985  -5.605  0.00  0.00     0.039 C 
BRANCH  20  21
HETATM   21  C   UNK N   1      26.463  27.047  -4.981  0.00  0.00    -0.012 C 
HETATM   22  C   UNK N   1      25.621  27.819  -3.977  0.00  0.00     0.005 C 
HETATM   23  C   UNK N   1      26.367  29.033  -3.449  0.00  0.00     0.000 C 
HETATM   24  C   UNK N   1      26.769  29.934  -4.610  0.00  0.00     0.000 C 
HETATM   25  C   UNK N   1      27.696  29.169  -5.547  0.00  0.00     0.000 C 
HETATM   26  C   UNK N   1      26.964  27.955  -6.107  0.00  0.00     0.005 C 
ENDBRANCH  20  21
ENDBRANCH   9  20
ENDBRANCH   6   9
ENDBRANCH   4   5
BRANCH   4  27
HETATM   27  C   UNK N   1      26.563  23.216  -9.746  0.00  0.00     0.214 C 
BRANCH  27  28
HETATM   28  O   UNK N   1      27.722  22.642  -9.215  0.00  0.00    -0.383 OA
BRANCH  28  29
HETATM   29  C   UNK N   1      28.158  21.767 -10.211  0.00  0.00     0.206 C 
BRANCH  29  30
HETATM   30  C   UNK N   1      28.806  20.548  -9.632  0.00  0.00    -0.035 A 
HETATM   31  C   UNK N   1      28.632  20.276  -8.274  0.00  0.00     0.009 A 
HETATM   32  C   UNK N   1      29.213  19.140  -7.705  0.00  0.00     0.001 A 
HETATM   33  C   UNK N   1      29.977  18.274  -8.495  0.00  0.00     0.000 A 
HETATM   34  C   UNK N   1      30.158  18.544  -9.854  0.00  0.00     0.001 A 
HETATM   35  C   UNK N   1      29.570  19.675 -10.424  0.00  0.00     0.009 A 
ENDBRANCH  29  30
ENDBRANCH  28  29
ENDBRANCH  27  28
ENDBRANCH   4  27
TORSDOF 9
ENDMDL
MODEL 6
REMARK VINA RESULT:      -7.2      8.687     11.381
REMARK  9 active torsions:
REMARK  status: ('A' for Active; 'I' for Inactive)
REMARK       I    between atoms: N_8  and  C_1 
REMARK       I    between atoms: N_9  and  C_1 
REMARK    1  A    between atoms: C_10  and  N_9 
REMARK    2  A    between atoms: C_10  and  C_18 
REMARK    3  A    between atoms: C_11  and  C_10 
REMARK    4  A    between atoms: C_12  and  C_11 
REMARK       I    between atoms: C_18  and  N_22 
REMARK    5  A    between atoms: C_20  and  O_23 
REMARK    6  A    between atoms: C_33  and  C_20 
REMARK    7  A    between atoms: C_33  and  N_22 
REMARK    8  A    between atoms: O_23  and  C_24 
REMARK    9  A    between atoms: C_24  and  C_25 
ROOT
HETATM    1  C   UNK N   1      27.097  16.791   5.779  0.00  0.00     0.057 C 
HETATM    2  C   UNK N   1      25.843  16.587   3.738  0.00  0.00     0.092 C 
HETATM    3  N   UNK N   1      25.972  16.376   2.606  0.00  0.00    -0.194 NA
HETATM    4  C   UNK N   1      25.696  16.834   5.174  0.00  0.00     0.140 C 
ENDROOT
BRANCH   4   5
HETATM    5  N   UNK N   1      24.973  18.063   5.421  0.00  0.00    -0.336 N 
HETATM    6  C   UNK N   1      23.926  18.431   4.657  0.00  0.00     0.242 C 
HETATM    7  O   UNK N   1      24.126  19.148   3.689  0.00  0.00    -0.271 OA
HETATM    8  H   UNK N   1      25.253  18.644   6.165  0.00  0.00     0.164 HD
BRANCH   6   9
HETATM    9  C   UNK N   1      22.591  17.750   4.812  0.00  0.00     0.178 C 
BRANCH   9  10
HETATM   10  N   UNK N   1      21.668  18.091   3.750  0.00  0.00    -0.330 N 
HETATM   11  C   UNK N   1      20.841  17.209   3.131  0.00  0.00     0.319 C 
HETATM   12  O   UNK N   1      19.789  17.638   2.679  0.00  0.00    -0.247 OA
HETATM   13  N   UNK N   1      21.115  15.872   3.031  0.00  0.00    -0.330 N 
HETATM   14  C   UNK N   1      20.107  14.977   2.511  0.00  0.00     0.153 C 
HETATM   15  C   UNK N   1      22.462  15.345   3.128  0.00  0.00     0.153 C 
HETATM   16  C   UNK N   1      20.664  14.291   1.262  0.00  0.00     0.187 C 
HETATM   17  O   UNK N   1      21.824  14.956   0.814  0.00  0.00    -0.388 OA
HETATM   18  C   UNK N   1      22.830  14.710   1.777  0.00  0.00     0.187 C 
HETATM   19  H   UNK N   1      21.636  19.029   3.456  0.00  0.00     0.165 HD
ENDBRANCH   9  10
BRANCH   9  20
HETATM   20  C   UNK N   1      21.848  17.975   6.126  0.00  0.00     0.039 C 
BRANCH  20  21
HETATM   21  C   UNK N   1      21.088  16.767   6.641  0.00  0.00    -0.012 C 
HETATM   22  C   UNK N   1      20.332  17.193   7.889  0.00  0.00     0.005 C 
HETATM   23  C   UNK N   1      19.703  16.000   8.588  0.00  0.00     0.000 C 
HETATM   24  C   UNK N   1      20.783  14.986   8.943  0.00  0.00     0.000 C 
HETATM   25  C   UNK N   1      21.457  14.495   7.667  0.00  0.00     0.000 C 
HETATM   26  C   UNK N   1      22.112  15.672   6.955  0.00  0.00     0.005 C 
ENDBRANCH  20  21
ENDBRANCH   9  20
ENDBRANCH   6   9
ENDBRANCH   4   5
BRANCH   4  27
HETATM   27  C   UNK N   1      25.005  15.665   5.874  0.00  0.00     0.214 C 
BRANCH  27  28
HETATM   28  O   UNK N   1      25.899  14.942   6.668  0.00  0.00    -0.383 OA
BRANCH  28  29
HETATM   29  C   UNK N   1      25.589  13.607   6.406  0.00  0.00     0.206 C 
BRANCH  29  30
HETATM   30  C   UNK N   1      24.852  12.976   7.545  0.00  0.00    -0.035 A 
HETATM   31  C   UNK N   1      24.045  11.866   7.288  0.00  0.00     0.009 A 
HETATM   32  C   UNK N   1      23.352  11.245   8.330  0.00  0.00     0.001 A 
HETATM   33  C   UNK N   1      23.461  11.738   9.635  0.00  0.00     0.000 A 
HETATM   34  C   UNK N   1      24.264  12.851   9.897  0.00  0.00     0.001 A 
HETATM   35  C   UNK N   1      24.962  13.466   8.856  0.00  0.00     0.009 A 
ENDBRANCH  29  30
ENDBRANCH  28  29
ENDBRANCH  27  28
ENDBRANCH   4  27
TORSDOF 9
ENDMDL
MODEL 7
REMARK VINA RESULT:      -7.2      2.543      8.602
REMARK  9 active torsions:
REMARK  status: ('A' for Active; 'I' for Inactive)
REMARK       I    between atoms: N_8  and  C_1 
REMARK       I    between atoms: N_9  and  C_1 
REMARK    1  A    between atoms: C_10  and  N_9 
REMARK    2  A    between atoms: C_10  and  C_18 
REMARK    3  A    between atoms: C_11  and  C_10 
REMARK    4  A    between atoms: C_12  and  C_11 
REMARK       I    between atoms: C_18  and  N_22 
REMARK    5  A    between atoms: C_20  and  O_23 
REMARK    6  A    between atoms: C_33  and  C_20 
REMARK    7  A    between atoms: C_33  and  N_22 
REMARK    8  A    between atoms: O_23  and  C_24 
REMARK    9  A    between atoms: C_24  and  C_25 
ROOT
HETATM    1  C   UNK N   1      31.870  16.994   6.649  0.00  0.00     0.057 C 
HETATM    2  C   UNK N   1      33.335  18.101   8.202  0.00  0.00     0.092 C 
HETATM    3  N   UNK N   1      34.297  18.746   8.248  0.00  0.00    -0.194 NA
HETATM    4  C   UNK N   1      32.110  17.301   8.126  0.00  0.00     0.140 C 
ENDROOT
BRANCH   4   5
HETATM    5  N   UNK N   1      32.196  16.133   8.975  0.00  0.00    -0.336 N 
HETATM    6  C   UNK N   1      32.771  14.992   8.548  0.00  0.00     0.242 C 
HETATM    7  O   UNK N   1      32.070  14.137   8.028  0.00  0.00    -0.271 OA
HETATM    8  H   UNK N   1      31.825  16.173   9.885  0.00  0.00     0.164 HD
BRANCH   6   9
HETATM    9  C   UNK N   1      34.271  14.885   8.446  0.00  0.00     0.178 C 
BRANCH   9  10
HETATM   10  N   UNK N   1      34.952  15.640   9.476  0.00  0.00    -0.330 N 
HETATM   11  C   UNK N   1      36.010  15.187  10.195  0.00  0.00     0.319 C 
HETATM   12  O   UNK N   1      36.809  16.013  10.612  0.00  0.00    -0.247 OA
HETATM   13  N   UNK N   1      36.237  13.859  10.435  0.00  0.00    -0.330 N 
HETATM   14  C   UNK N   1      37.474  13.450  11.060  0.00  0.00     0.153 C 
HETATM   15  C   UNK N   1      35.181  12.868  10.379  0.00  0.00     0.153 C 
HETATM   16  C   UNK N   1      37.143  12.730  12.368  0.00  0.00     0.187 C 
HETATM   17  O   UNK N   1      35.799  12.962  12.729  0.00  0.00    -0.388 OA
HETATM   18  C   UNK N   1      35.002  12.274  11.786  0.00  0.00     0.187 C 
HETATM   19  H   UNK N   1      34.625  16.549   9.669  0.00  0.00     0.165 HD
ENDBRANCH   9  10
BRANCH   9  20
HETATM   20  C   UNK N   1      34.904  15.287   7.117  0.00  0.00     0.039 C 
BRANCH  20  21
HETATM   21  C   UNK N   1      35.168  14.137   6.165  0.00  0.00    -0.012 C 
HETATM   22  C   UNK N   1      36.551  14.339   5.565  0.00  0.00     0.005 C 
HETATM   23  C   UNK N   1      36.819  13.345   4.448  0.00  0.00     0.000 C 
HETATM   24  C   UNK N   1      35.750  13.481   3.372  0.00  0.00     0.000 C 
HETATM   25  C   UNK N   1      34.384  13.171   3.973  0.00  0.00     0.000 C 
HETATM   26  C   UNK N   1      34.081  14.168   5.086  0.00  0.00     0.005 C 
ENDBRANCH  20  21
ENDBRANCH   9  20
ENDBRANCH   6   9
ENDBRANCH   4   5
BRANCH   4  27
HETATM   27  C   UNK N   1      30.878  18.129   8.489  0.00  0.00     0.214 C 
BRANCH  27  28
HETATM   28  O   UNK N   1      29.700  17.502   8.076  0.00  0.00    -0.383 OA
BRANCH  28  29
HETATM   29  C   UNK N   1      28.719  18.484   8.220  0.00  0.00     0.206 C 
BRANCH  29  30
HETATM   30  C   UNK N   1      28.254  19.000   6.895  0.00  0.00    -0.035 A 
HETATM   31  C   UNK N   1      27.610  20.238   6.845  0.00  0.00     0.009 A 
HETATM   32  C   UNK N   1      27.175  20.754   5.622  0.00  0.00     0.001 A 
HETATM   33  C   UNK N   1      27.377  20.029   4.443  0.00  0.00     0.000 A 
HETATM   34  C   UNK N   1      28.017  18.788   4.488  0.00  0.00     0.001 A 
HETATM   35  C   UNK N   1      28.460  18.276   5.709  0.00  0.00     0.009 A 
ENDBRANCH  29  30
ENDBRANCH  28  29
ENDBRANCH  27  28
ENDBRANCH   4  27
TORSDOF 9
ENDMDL
MODEL 8
REMARK VINA RESULT:      -7.2      9.873     12.455
REMARK  9 active torsions:
REMARK  status: ('A' for Active; 'I' for Inactive)
REMARK       I    between atoms: N_8  and  C_1 
REMARK       I    between atoms: N_9  and  C_1 
REMARK    1  A    between atoms: C_10  and  N_9 
REMARK    2  A    between atoms: C_10  and  C_18 
REMARK    3  A    between atoms: C_11  and  C_10 
REMARK    4  A    between atoms: C_12  and  C_11 
REMARK       I    between atoms: C_18  and  N_22 
REMARK    5  A    between atoms: C_20  and  O_23 
REMARK    6  A    between atoms: C_33  and  C_20 
REMARK    7  A    between atoms: C_33  and  N_22 
REMARK    8  A    between atoms: O_23  and  C_24 
REMARK    9  A    between atoms: C_24  and  C_25 
ROOT
HETATM    1  C   UNK N   1      22.278  15.419   5.632  0.00  0.00     0.057 C 
HETATM    2  C   UNK N   1      20.057  14.525   5.856  0.00  0.00     0.092 C 
HETATM    3  N   UNK N   1      19.339  13.741   5.396  0.00  0.00    -0.194 NA
HETATM    4  C   UNK N   1      20.983  15.499   6.438  0.00  0.00     0.140 C 
ENDROOT
BRANCH   4   5
HETATM    5  N   UNK N   1      20.390  16.818   6.490  0.00  0.00    -0.336 N 
HETATM    6  C   UNK N   1      21.034  17.899   6.009  0.00  0.00     0.242 C 
HETATM    7  O   UNK N   1      21.727  18.559   6.768  0.00  0.00    -0.271 OA
HETATM    8  H   UNK N   1      19.496  16.927   6.885  0.00  0.00     0.164 HD
BRANCH   6   9
HETATM    9  C   UNK N   1      21.136  18.129   4.522  0.00  0.00     0.178 C 
BRANCH   9  10
HETATM   10  N   UNK N   1      21.292  19.529   4.188  0.00  0.00    -0.330 N 
HETATM   11  C   UNK N   1      22.299  20.036   3.432  0.00  0.00     0.319 C 
HETATM   12  O   UNK N   1      22.071  21.048   2.785  0.00  0.00    -0.247 OA
HETATM   13  N   UNK N   1      23.530  19.446   3.335  0.00  0.00    -0.330 N 
HETATM   14  C   UNK N   1      24.488  19.951   2.379  0.00  0.00     0.153 C 
HETATM   15  C   UNK N   1      24.040  18.541   4.346  0.00  0.00     0.153 C 
HETATM   16  C   UNK N   1      25.737  20.406   3.135  0.00  0.00     0.187 C 
HETATM   17  O   UNK N   1      25.464  20.503   4.516  0.00  0.00    -0.388 OA
HETATM   18  C   UNK N   1      25.281  19.184   4.988  0.00  0.00     0.187 C 
HETATM   19  H   UNK N   1      20.618  20.160   4.532  0.00  0.00     0.165 HD
ENDBRANCH   9  10
BRANCH   9  20
HETATM   20  C   UNK N   1      19.994  17.598   3.661  0.00  0.00     0.039 C 
BRANCH  20  21
HETATM   21  C   UNK N   1      20.430  16.926   2.372  0.00  0.00    -0.012 C 
HETATM   22  C   UNK N   1      19.769  17.665   1.219  0.00  0.00     0.005 C 
HETATM   23  C   UNK N   1      19.986  16.939  -0.098  0.00  0.00     0.000 C 
HETATM   24  C   UNK N   1      19.445  15.519   0.003  0.00  0.00     0.000 C 
HETATM   25  C   UNK N   1      20.195  14.767   1.097  0.00  0.00     0.000 C 
HETATM   26  C   UNK N   1      19.977  15.465   2.433  0.00  0.00     0.005 C 
ENDBRANCH  20  21
ENDBRANCH   9  20
ENDBRANCH   6   9
ENDBRANCH   4   5
BRANCH   4  27
HETATM   27  C   UNK N   1      21.442  15.071   7.831  0.00  0.00     0.214 C 
BRANCH  27  28
HETATM   28  O   UNK N   1      21.715  13.702   7.883  0.00  0.00    -0.383 OA
BRANCH  28  29
HETATM   29  C   UNK N   1      21.257  13.307   9.140  0.00  0.00     0.206 C 
BRANCH  29  30
HETATM   30  C   UNK N   1      22.377  12.845  10.018  0.00  0.00    -0.035 A 
HETATM   31  C   UNK N   1      22.073  12.317  11.274  0.00  0.00     0.009 A 
HETATM   32  C   UNK N   1      23.094  11.865  12.113  0.00  0.00     0.001 A 
HETATM   33  C   UNK N   1      24.427  11.946  11.699  0.00  0.00     0.000 A 
HETATM   34  C   UNK N   1      24.739  12.477  10.445  0.00  0.00     0.001 A 
HETATM   35  C   UNK N   1      23.717  12.922   9.603  0.00  0.00     0.009 A 
ENDBRANCH  29  30
ENDBRANCH  28  29
ENDBRANCH  27  28
ENDBRANCH   4  27
TORSDOF 9
ENDMDL
MODEL 9
REMARK VINA RESULT:      -7.2      3.946     10.319
REMARK  9 active torsions:
REMARK  status: ('A' for Active; 'I' for Inactive)
REMARK       I    between atoms: N_8  and  C_1 
REMARK       I    between atoms: N_9  and  C_1 
REMARK    1  A    between atoms: C_10  and  N_9 
REMARK    2  A    between atoms: C_10  and  C_18 
REMARK    3  A    between atoms: C_11  and  C_10 
REMARK    4  A    between atoms: C_12  and  C_11 
REMARK       I    between atoms: C_18  and  N_22 
REMARK    5  A    between atoms: C_20  and  O_23 
REMARK    6  A    between atoms: C_33  and  C_20 
REMARK    7  A    between atoms: C_33  and  N_22 
REMARK    8  A    between atoms: O_23  and  C_24 
REMARK    9  A    between atoms: C_24  and  C_25 
ROOT
HETATM    1  C   UNK N   1      37.074  12.450  12.078  0.00  0.00     0.057 C 
HETATM    2  C   UNK N   1      36.413  14.002  13.792  0.00  0.00     0.092 C 
HETATM    3  N   UNK N   1      36.810  14.539  14.738  0.00  0.00    -0.194 NA
HETATM    4  C   UNK N   1      35.932  13.329  12.583  0.00  0.00     0.140 C 
ENDROOT
BRANCH   4   5
HETATM    5  N   UNK N   1      34.697  12.619  12.836  0.00  0.00    -0.336 N 
HETATM    6  C   UNK N   1      34.677  11.286  13.028  0.00  0.00     0.242 C 
HETATM    7  O   UNK N   1      34.497  10.554  12.067  0.00  0.00    -0.271 OA
HETATM    8  H   UNK N   1      33.852  13.122  12.869  0.00  0.00     0.164 HD
BRANCH   6   9
HETATM    9  C   UNK N   1      35.149  10.695  14.332  0.00  0.00     0.178 C 
BRANCH   9  10
HETATM   10  N   UNK N   1      35.196   9.248  14.300  0.00  0.00    -0.330 N 
HETATM   11  C   UNK N   1      35.999   8.483  15.083  0.00  0.00     0.319 C 
HETATM   12  O   UNK N   1      35.611   7.360  15.369  0.00  0.00    -0.247 OA
HETATM   13  N   UNK N   1      37.190   8.926  15.591  0.00  0.00    -0.330 N 
HETATM   14  C   UNK N   1      37.900   8.115  16.552  0.00  0.00     0.153 C 
HETATM   15  C   UNK N   1      37.932  10.019  14.992  0.00  0.00     0.153 C 
HETATM   16  C   UNK N   1      39.276   7.773  15.979  0.00  0.00     0.187 C 
HETATM   17  O   UNK N   1      39.315   8.059  14.598  0.00  0.00    -0.388 OA
HETATM   18  C   UNK N   1      39.270   9.466  14.474  0.00  0.00     0.187 C 
HETATM   19  H   UNK N   1      34.603   8.785  13.665  0.00  0.00     0.165 HD
ENDBRANCH   9  10
BRANCH   9  20
HETATM   20  C   UNK N   1      34.372  11.079  15.587  0.00  0.00     0.039 C 
BRANCH  20  21
HETATM   21  C   UNK N   1      35.208  11.720  16.680  0.00  0.00    -0.012 C 
HETATM   22  C   UNK N   1      35.108  10.839  17.915  0.00  0.00     0.005 C 
HETATM   23  C   UNK N   1      35.748  11.506  19.121  0.00  0.00     0.000 C 
HETATM   24  C   UNK N   1      35.085  12.853  19.375  0.00  0.00     0.000 C 
HETATM   25  C   UNK N   1      35.288  13.755  18.163  0.00  0.00     0.000 C 
HETATM   26  C   UNK N   1      34.638  13.117  16.942  0.00  0.00     0.005 C 
ENDBRANCH  20  21
ENDBRANCH   9  20
ENDBRANCH   6   9
ENDBRANCH   4   5
BRANCH   4  27
HETATM   27  C   UNK N   1      35.748  14.315  11.430  0.00  0.00     0.214 C 
BRANCH  27  28
HETATM   28  O   UNK N   1      34.405  14.421  11.056  0.00  0.00    -0.383 OA
BRANCH  28  29
HETATM   29  C   UNK N   1      34.438  14.451   9.662  0.00  0.00     0.206 C 
BRANCH  29  30
HETATM   30  C   UNK N   1      33.832  15.708   9.121  0.00  0.00    -0.035 A 
HETATM   31  C   UNK N   1      32.453  15.750   8.907  0.00  0.00     0.009 A 
HETATM   32  C   UNK N   1      31.853  16.911   8.415  0.00  0.00     0.001 A 
HETATM   33  C   UNK N   1      32.634  18.035   8.128  0.00  0.00     0.000 A 
HETATM   34  C   UNK N   1      34.016  17.998   8.336  0.00  0.00     0.001 A 
HETATM   35  C   UNK N   1      34.614  16.839   8.836  0.00  0.00     0.009 A 
ENDBRANCH  29  30
ENDBRANCH  28  29
ENDBRANCH  27  28
ENDBRANCH   4  27
TORSDOF 9
ENDMDL
