MODEL 1
REMARK VINA RESULT:      -6.0      0.000      0.000
REMARK  4 active torsions:
REMARK  status: ('A' for Active; 'I' for Inactive)
REMARK    1  A    between atoms: C_3  and  C_2 
REMARK       I    between atoms: C_2  and  N_12 
REMARK    2  A    between atoms: C_6  and  C_9 
REMARK    3  A    between atoms: C_9  and  N_11 
REMARK    4  A    between atoms: N_12  and  C_13 
ROOT
HETATM    1  C   UNK N   1      35.061  12.209  16.202  0.00  0.00     0.078 C 
HETATM    2  C   UNK N   1      36.129  11.155  16.514  0.00  0.00     0.014 C 
HETATM    3  C   UNK N   1      36.155  10.726  17.993  0.00  0.00     0.007 C 
HETATM    4  C   UNK N   1      35.221  11.543  18.908  0.00  0.00     0.007 C 
HETATM    5  C   UNK N   1      35.396  13.041  18.627  0.00  0.00     0.007 C 
HETATM    6  C   UNK N   1      35.234  13.412  17.145  0.00  0.00     0.014 C 
ENDROOT
BRANCH   1   7
HETATM    7  C   UNK N   1      35.139  12.628  14.753  0.00  0.00     0.226 C 
HETATM    8  O   UNK N   1      34.221  12.336  13.998  0.00  0.00    -0.273 OA
HETATM    9  N   UNK N   1      36.214  13.338  14.305  0.00  0.00    -0.327 N 
HETATM   10  H   UNK N   1      36.933  13.507  14.955  0.00  0.00     0.169 HD
BRANCH   9  11
HETATM   11  C   UNK N   1      36.402  13.859  12.992  0.00  0.00     0.037 A 
HETATM   12  C   UNK N   1      37.109  13.094  12.061  0.00  0.00     0.046 A 
HETATM   13  C   UNK N   1      37.329  13.595  10.776  0.00  0.00     0.090 A 
HETATM   14  N   UNK N   1      36.861  14.824  10.433  0.00  0.00    -0.375 N 
HETATM   15  C   UNK N   1      36.172  15.592  11.320  0.00  0.00     0.090 A 
ATOM     16  HN  UNK N   1      37.031  15.179   9.492  1.00  0.00     0.164 HD
HETATM   17  C   UNK N   1      35.931  15.125  12.613  0.00  0.00     0.046 A 
ENDBRANCH   9  11
ENDBRANCH   1   7
BRANCH   4  18
HETATM   18  C   UNK N   1      35.476  11.244  20.396  0.00  0.00     0.073 C 
HETATM   19  C   UNK N   1      36.649  10.294  20.594  0.00  0.00     0.032 C 
BRANCH  18  20
HETATM   20  N   UNK N   1      34.290  10.662  21.002  0.00  0.00    -0.426 N 
HETATM   21  H   UNK N   1      33.371  10.829  20.590  0.00  0.00     0.150 HD
HETATM   22  H   UNK N   1      34.375  10.086  21.840  0.00  0.00     0.150 HD
ENDBRANCH  18  20
ENDBRANCH   4  18
TORSDOF 4
ENDMDL
MODEL 2
REMARK VINA RESULT:      -5.8      0.915      1.519
REMARK  4 active torsions:
REMARK  status: ('A' for Active; 'I' for Inactive)
REMARK    1  A    between atoms: C_3  and  C_2 
REMARK       I    between atoms: C_2  and  N_12 
REMARK    2  A    between atoms: C_6  and  C_9 
REMARK    3  A    between atoms: C_9  and  N_11 
REMARK    4  A    between atoms: N_12  and  C_13 
ROOT
HETATM    1  C   UNK N   1      35.707  11.985  16.267  0.00  0.00     0.078 C 
HETATM    2  C   UNK N   1      35.167  12.925  17.350  0.00  0.00     0.014 C 
HETATM    3  C   UNK N   1      35.295  12.357  18.776  0.00  0.00     0.007 C 
HETATM    4  C   UNK N   1      35.789  10.898  18.836  0.00  0.00     0.007 C 
HETATM    5  C   UNK N   1      35.014  10.042  17.826  0.00  0.00     0.007 C 
HETATM    6  C   UNK N   1      35.033  10.608  16.398  0.00  0.00     0.014 C 
ENDROOT
BRANCH   1   7
HETATM    7  C   UNK N   1      35.488  12.577  14.895  0.00  0.00     0.226 C 
HETATM    8  O   UNK N   1      34.357  12.600  14.429  0.00  0.00    -0.273 OA
HETATM    9  N   UNK N   1      36.541  13.092  14.199  0.00  0.00    -0.327 N 
HETATM   10  H   UNK N   1      37.429  13.008  14.615  0.00  0.00     0.169 HD
BRANCH   9  11
HETATM   11  C   UNK N   1      36.488  13.739  12.930  0.00  0.00     0.037 A 
HETATM   12  C   UNK N   1      37.030  13.087  11.820  0.00  0.00     0.046 A 
HETATM   13  C   UNK N   1      37.014  13.712  10.572  0.00  0.00     0.090 A 
HETATM   14  N   UNK N   1      36.476  14.953  10.437  0.00  0.00    -0.375 N 
HETATM   15  C   UNK N   1      35.944  15.613  11.500  0.00  0.00     0.090 A 
ATOM     16  HN  UNK N   1      36.472  15.399   9.519  1.00  0.00     0.164 HD
HETATM   17  C   UNK N   1      35.940  15.020  12.764  0.00  0.00     0.046 A 
ENDBRANCH   9  11
ENDBRANCH   1   7
BRANCH   4  18
HETATM   18  C   UNK N   1      35.655  10.309  20.252  0.00  0.00     0.073 C 
HETATM   19  C   UNK N   1      34.244  10.462  20.802  0.00  0.00     0.032 C 
BRANCH  18  20
HETATM   20  N   UNK N   1      36.589  10.958  21.158  0.00  0.00    -0.426 N 
HETATM   21  H   UNK N   1      37.405  10.450  21.500  0.00  0.00     0.150 HD
HETATM   22  H   UNK N   1      36.428  11.921  21.451  0.00  0.00     0.150 HD
ENDBRANCH  18  20
ENDBRANCH   4  18
TORSDOF 4
ENDMDL
MODEL 3
REMARK VINA RESULT:      -5.8      7.027     11.875
REMARK  4 active torsions:
REMARK  status: ('A' for Active; 'I' for Inactive)
REMARK    1  A    between atoms: C_3  and  C_2 
REMARK       I    between atoms: C_2  and  N_12 
REMARK    2  A    between atoms: C_6  and  C_9 
REMARK    3  A    between atoms: C_9  and  N_11 
REMARK    4  A    between atoms: N_12  and  C_13 
ROOT
HETATM    1  C   UNK N   1      32.364  17.440   6.505  0.00  0.00     0.078 C 
HETATM    2  C   UNK N   1      32.398  16.741   5.142  0.00  0.00     0.014 C 
HETATM    3  C   UNK N   1      31.100  16.914   4.331  0.00  0.00     0.007 C 
HETATM    4  C   UNK N   1      29.961  17.614   5.098  0.00  0.00     0.007 C 
HETATM    5  C   UNK N   1      29.817  16.998   6.496  0.00  0.00     0.007 C 
HETATM    6  C   UNK N   1      31.130  16.972   7.294  0.00  0.00     0.014 C 
ENDROOT
BRANCH   1   7
HETATM    7  C   UNK N   1      33.640  17.172   7.269  0.00  0.00     0.226 C 
HETATM    8  O   UNK N   1      34.619  17.876   7.059  0.00  0.00    -0.273 OA
HETATM    9  N   UNK N   1      33.685  16.168   8.191  0.00  0.00    -0.327 N 
HETATM   10  H   UNK N   1      32.875  15.617   8.283  0.00  0.00     0.169 HD
BRANCH   9  11
HETATM   11  C   UNK N   1      34.786  15.835   9.033  0.00  0.00     0.037 A 
HETATM   12  C   UNK N   1      35.630  14.789   8.652  0.00  0.00     0.046 A 
HETATM   13  C   UNK N   1      36.699  14.427   9.474  0.00  0.00     0.090 A 
HETATM   14  N   UNK N   1      36.916  15.086  10.642  0.00  0.00    -0.375 N 
HETATM   15  C   UNK N   1      36.109  16.106  11.039  0.00  0.00     0.090 A 
ATOM     16  HN  UNK N   1      37.700  14.809  11.234  1.00  0.00     0.164 HD
HETATM   17  C   UNK N   1      35.031  16.498  10.244  0.00  0.00     0.046 A 
ENDBRANCH   9  11
ENDBRANCH   1   7
BRANCH   4  18
HETATM   18  C   UNK N   1      28.626  17.531   4.336  0.00  0.00     0.073 C 
HETATM   19  C   UNK N   1      28.715  16.609   3.129  0.00  0.00     0.032 C 
BRANCH  18  20
HETATM   20  N   UNK N   1      28.217  18.854   3.892  0.00  0.00    -0.426 N 
HETATM   21  H   UNK N   1      28.485  19.186   2.965  0.00  0.00     0.150 HD
HETATM   22  H   UNK N   1      27.663  19.449   4.507  0.00  0.00     0.150 HD
ENDBRANCH  18  20
ENDBRANCH   4  18
TORSDOF 4
ENDMDL
MODEL 4
REMARK VINA RESULT:      -5.6      6.327     10.736
REMARK  4 active torsions:
REMARK  status: ('A' for Active; 'I' for Inactive)
REMARK    1  A    between atoms: C_3  and  C_2 
REMARK       I    between atoms: C_2  and  N_12 
REMARK    2  A    between atoms: C_6  and  C_9 
REMARK    3  A    between atoms: C_9  and  N_11 
REMARK    4  A    between atoms: N_12  and  C_13 
ROOT
HETATM    1  C   UNK N   1      32.055  17.402   7.914  0.00  0.00     0.078 C 
HETATM    2  C   UNK N   1      31.501  16.134   7.256  0.00  0.00     0.014 C 
HETATM    3  C   UNK N   1      30.150  16.350   6.548  0.00  0.00     0.007 C 
HETATM    4  C   UNK N   1      29.533  17.746   6.768  0.00  0.00     0.007 C 
HETATM    5  C   UNK N   1      29.593  18.113   8.256  0.00  0.00     0.007 C 
HETATM    6  C   UNK N   1      30.999  17.993   8.864  0.00  0.00     0.014 C 
ENDROOT
BRANCH   1   7
HETATM    7  C   UNK N   1      33.344  17.101   8.642  0.00  0.00     0.226 C 
HETATM    8  O   UNK N   1      34.165  17.995   8.794  0.00  0.00    -0.273 OA
HETATM    9  N   UNK N   1      33.572  15.851   9.135  0.00  0.00    -0.327 N 
HETATM   10  H   UNK N   1      32.887  15.169   8.946  0.00  0.00     0.169 HD
BRANCH   9  11
HETATM   11  C   UNK N   1      34.701  15.429   9.896  0.00  0.00     0.037 A 
HETATM   12  C   UNK N   1      35.823  14.943   9.220  0.00  0.00     0.046 A 
HETATM   13  C   UNK N   1      36.931  14.499   9.944  0.00  0.00     0.090 A 
HETATM   14  N   UNK N   1      36.918  14.536  11.303  0.00  0.00    -0.375 N 
HETATM   15  C   UNK N   1      35.839  15.002  11.987  0.00  0.00     0.090 A 
ATOM     16  HN  UNK N   1      37.734  14.206  11.819  1.00  0.00     0.164 HD
HETATM   17  C   UNK N   1      34.713  15.455  11.298  0.00  0.00     0.046 A 
ENDBRANCH   9  11
ENDBRANCH   1   7
BRANCH   4  18
HETATM   18  C   UNK N   1      28.084  17.815   6.256  0.00  0.00     0.073 C 
HETATM   19  C   UNK N   1      27.582  19.248   6.155  0.00  0.00     0.032 C 
BRANCH  18  20
HETATM   20  N   UNK N   1      27.202  17.067   7.138  0.00  0.00    -0.426 N 
HETATM   21  H   UNK N   1      26.568  16.367   6.752  0.00  0.00     0.150 HD
HETATM   22  H   UNK N   1      27.218  17.242   8.143  0.00  0.00     0.150 HD
ENDBRANCH  18  20
ENDBRANCH   4  18
TORSDOF 4
ENDMDL
MODEL 5
REMARK VINA RESULT:      -5.5     10.477     13.560
REMARK  4 active torsions:
REMARK  status: ('A' for Active; 'I' for Inactive)
REMARK    1  A    between atoms: C_3  and  C_2 
REMARK       I    between atoms: C_2  and  N_12 
REMARK    2  A    between atoms: C_6  and  C_9 
REMARK    3  A    between atoms: C_9  and  N_11 
REMARK    4  A    between atoms: N_12  and  C_13 
ROOT
HETATM    1  C   UNK N   1      28.842  17.810   7.036  0.00  0.00     0.078 C 
HETATM    2  C   UNK N   1      29.987  17.493   6.068  0.00  0.00     0.014 C 
HETATM    3  C   UNK N   1      31.111  16.650   6.702  0.00  0.00     0.007 C 
HETATM    4  C   UNK N   1      30.954  16.420   8.218  0.00  0.00     0.007 C 
HETATM    5  C   UNK N   1      30.617  17.745   8.914  0.00  0.00     0.007 C 
HETATM    6  C   UNK N   1      29.407  18.470   8.305  0.00  0.00     0.014 C 
ENDROOT
BRANCH   1   7
HETATM    7  C   UNK N   1      27.813  18.691   6.368  0.00  0.00     0.226 C 
HETATM    8  O   UNK N   1      27.557  19.784   6.856  0.00  0.00    -0.273 OA
HETATM    9  N   UNK N   1      27.195  18.273   5.226  0.00  0.00    -0.327 N 
HETATM   10  H   UNK N   1      27.420  17.369   4.908  0.00  0.00     0.169 HD
BRANCH   9  11
HETATM   11  C   UNK N   1      26.257  19.011   4.447  0.00  0.00     0.037 A 
HETATM   12  C   UNK N   1      24.896  18.736   4.597  0.00  0.00     0.046 A 
HETATM   13  C   UNK N   1      23.959  19.427   3.825  0.00  0.00     0.090 A 
HETATM   14  N   UNK N   1      24.370  20.362   2.929  0.00  0.00    -0.375 N 
HETATM   15  C   UNK N   1      25.688  20.649   2.760  0.00  0.00     0.090 A 
ATOM     16  HN  UNK N   1      23.675  20.858   2.370  1.00  0.00     0.164 HD
HETATM   17  C   UNK N   1      26.654  19.980   3.514  0.00  0.00     0.046 A 
ENDBRANCH   9  11
ENDBRANCH   1   7
BRANCH   4  18
HETATM   18  C   UNK N   1      32.220  15.799   8.833  0.00  0.00     0.073 C 
HETATM   19  C   UNK N   1      32.781  14.676   7.971  0.00  0.00     0.032 C 
BRANCH  18  20
HETATM   20  N   UNK N   1      31.931  15.277  10.159  0.00  0.00    -0.426 N 
HETATM   21  H   UNK N   1      30.966  15.103  10.440  0.00  0.00     0.150 HD
HETATM   22  H   UNK N   1      32.694  15.085  10.809  0.00  0.00     0.150 HD
ENDBRANCH  18  20
ENDBRANCH   4  18
TORSDOF 4
ENDMDL
MODEL 6
REMARK VINA RESULT:      -5.4      1.872      7.718
REMARK  4 active torsions:
REMARK  status: ('A' for Active; 'I' for Inactive)
REMARK    1  A    between atoms: C_3  and  C_2 
REMARK       I    between atoms: C_2  and  N_12 
REMARK    2  A    between atoms: C_6  and  C_9 
REMARK    3  A    between atoms: C_9  and  N_11 
REMARK    4  A    between atoms: N_12  and  C_13 
ROOT
HETATM    1  C   UNK N   1      35.322  13.621  13.803  0.00  0.00     0.078 C 
HETATM    2  C   UNK N   1      36.255  14.720  13.285  0.00  0.00     0.014 C 
HETATM    3  C   UNK N   1      35.824  15.301  11.925  0.00  0.00     0.007 C 
HETATM    4  C   UNK N   1      34.638  14.566  11.268  0.00  0.00     0.007 C 
HETATM    5  C   UNK N   1      34.869  13.051  11.323  0.00  0.00     0.007 C 
HETATM    6  C   UNK N   1      35.173  12.525  12.734  0.00  0.00     0.014 C 
ENDROOT
BRANCH   1   7
HETATM    7  C   UNK N   1      35.842  13.054  15.104  0.00  0.00     0.226 C 
HETATM    8  O   UNK N   1      37.043  13.088  15.330  0.00  0.00    -0.273 OA
HETATM    9  N   UNK N   1      34.973  12.529  16.014  0.00  0.00    -0.327 N 
HETATM   10  H   UNK N   1      34.024  12.500  15.753  0.00  0.00     0.169 HD
BRANCH   9  11
HETATM   11  C   UNK N   1      35.298  12.020  17.305  0.00  0.00     0.037 A 
HETATM   12  C   UNK N   1      35.125  12.848  18.417  0.00  0.00     0.046 A 
HETATM   13  C   UNK N   1      35.461  12.380  19.689  0.00  0.00     0.090 A 
HETATM   14  N   UNK N   1      35.959  11.125  19.845  0.00  0.00    -0.375 N 
HETATM   15  C   UNK N   1      36.141  10.298  18.781  0.00  0.00     0.090 A 
ATOM     16  HN  UNK N   1      36.203  10.797  20.780  1.00  0.00     0.164 HD
HETATM   17  C   UNK N   1      35.815  10.730  17.494  0.00  0.00     0.046 A 
ENDBRANCH   9  11
ENDBRANCH   1   7
BRANCH   4  18
HETATM   18  C   UNK N   1      34.420  15.023   9.815  0.00  0.00     0.073 C 
HETATM   19  C   UNK N   1      35.672  14.845   8.967  0.00  0.00     0.032 C 
BRANCH  18  20
HETATM   20  N   UNK N   1      34.022  16.421   9.781  0.00  0.00    -0.426 N 
HETATM   21  H   UNK N   1      33.046  16.678   9.935  0.00  0.00     0.150 HD
HETATM   22  H   UNK N   1      34.718  17.145   9.604  0.00  0.00     0.150 HD
ENDBRANCH  18  20
ENDBRANCH   4  18
TORSDOF 4
ENDMDL
MODEL 7
REMARK VINA RESULT:      -5.3      3.287      8.038
REMARK  4 active torsions:
REMARK  status: ('A' for Active; 'I' for Inactive)
REMARK    1  A    between atoms: C_3  and  C_2 
REMARK       I    between atoms: C_2  and  N_12 
REMARK    2  A    between atoms: C_6  and  C_9 
REMARK    3  A    between atoms: C_9  and  N_11 
REMARK    4  A    between atoms: N_12  and  C_13 
ROOT
HETATM    1  C   UNK N   1      35.424  11.040  17.822  0.00  0.00     0.078 C 
HETATM    2  C   UNK N   1      34.820  10.656  16.468  0.00  0.00     0.014 C 
HETATM    3  C   UNK N   1      35.251  11.586  15.317  0.00  0.00     0.007 C 
HETATM    4  C   UNK N   1      36.073  12.811  15.765  0.00  0.00     0.007 C 
HETATM    5  C   UNK N   1      35.397  13.480  16.969  0.00  0.00     0.007 C 
HETATM    6  C   UNK N   1      35.109  12.514  18.129  0.00  0.00     0.014 C 
ENDROOT
BRANCH   1   7
HETATM    7  C   UNK N   1      34.907  10.128  18.911  0.00  0.00     0.226 C 
HETATM    8  O   UNK N   1      35.366  10.228  20.040  0.00  0.00    -0.273 OA
HETATM    9  N   UNK N   1      33.928   9.221  18.631  0.00  0.00    -0.327 N 
HETATM   10  H   UNK N   1      33.629   9.168  17.695  0.00  0.00     0.169 HD
BRANCH   9  11
HETATM   11  C   UNK N   1      33.293   8.342  19.557  0.00  0.00     0.037 A 
HETATM   12  C   UNK N   1      33.827   7.064  19.743  0.00  0.00     0.046 A 
HETATM   13  C   UNK N   1      33.207   6.176  20.624  0.00  0.00     0.090 A 
HETATM   14  N   UNK N   1      32.087   6.551  21.296  0.00  0.00    -0.375 N 
HETATM   15  C   UNK N   1      31.544   7.787  21.133  0.00  0.00     0.090 A 
ATOM     16  HN  UNK N   1      31.643   5.891  21.936  1.00  0.00     0.164 HD
HETATM   17  C   UNK N   1      32.136   8.703  20.262  0.00  0.00     0.046 A 
ENDBRANCH   9  11
ENDBRANCH   1   7
BRANCH   4  18
HETATM   18  C   UNK N   1      36.254  13.824  14.621  0.00  0.00     0.073 C 
HETATM   19  C   UNK N   1      36.640  13.145  13.314  0.00  0.00     0.032 C 
BRANCH  18  20
HETATM   20  N   UNK N   1      37.277  14.797  14.968  0.00  0.00    -0.426 N 
HETATM   21  H   UNK N   1      37.023  15.644  15.477  0.00  0.00     0.150 HD
HETATM   22  H   UNK N   1      38.248  14.633  14.702  0.00  0.00     0.150 HD
ENDBRANCH  18  20
ENDBRANCH   4  18
TORSDOF 4
ENDMDL
MODEL 8
REMARK VINA RESULT:      -5.2      9.956     13.193
REMARK  4 active torsions:
REMARK  status: ('A' for Active; 'I' for Inactive)
REMARK    1  A    between atoms: C_3  and  C_2 
REMARK       I    between atoms: C_2  and  N_12 
REMARK    2  A    between atoms: C_6  and  C_9 
REMARK    3  A    between atoms: C_9  and  N_11 
REMARK    4  A    between atoms: N_12  and  C_13 
ROOT
HETATM    1  C   UNK N   1      30.124  17.349   6.081  0.00  0.00     0.078 C 
HETATM    2  C   UNK N   1      29.697  17.615   7.529  0.00  0.00     0.014 C 
HETATM    3  C   UNK N   1      30.771  17.234   8.566  0.00  0.00     0.007 C 
HETATM    4  C   UNK N   1      31.999  16.515   7.973  0.00  0.00     0.007 C 
HETATM    5  C   UNK N   1      31.542  15.402   7.021  0.00  0.00     0.007 C 
HETATM    6  C   UNK N   1      30.566  15.883   5.936  0.00  0.00     0.014 C 
ENDROOT
BRANCH   1   7
HETATM    7  C   UNK N   1      29.001  17.683   5.128  0.00  0.00     0.226 C 
HETATM    8  O   UNK N   1      28.898  17.053   4.084  0.00  0.00    -0.273 OA
HETATM    9  N   UNK N   1      28.108  18.663   5.444  0.00  0.00    -0.327 N 
HETATM   10  H   UNK N   1      28.270  19.155   6.281  0.00  0.00     0.169 HD
BRANCH   9  11
HETATM   11  C   UNK N   1      26.964  19.049   4.686  0.00  0.00     0.037 A 
HETATM   12  C   UNK N   1      27.092  20.086   3.758  0.00  0.00     0.046 A 
HETATM   13  C   UNK N   1      25.979  20.499   3.023  0.00  0.00     0.090 A 
HETATM   14  N   UNK N   1      24.774  19.898   3.211  0.00  0.00    -0.375 N 
HETATM   15  C   UNK N   1      24.620  18.889   4.109  0.00  0.00     0.090 A 
ATOM     16  HN  UNK N   1      23.969  20.212   2.668  1.00  0.00     0.164 HD
HETATM   17  C   UNK N   1      25.710  18.447   4.862  0.00  0.00     0.046 A 
ENDBRANCH   9  11
ENDBRANCH   1   7
BRANCH   4  18
HETATM   18  C   UNK N   1      32.908  15.939   9.074  0.00  0.00     0.073 C 
HETATM   19  C   UNK N   1      34.071  15.144   8.496  0.00  0.00     0.032 C 
BRANCH  18  20
HETATM   20  N   UNK N   1      32.141  15.077   9.959  0.00  0.00    -0.426 N 
HETATM   21  H   UNK N   1      31.146  15.251  10.104  0.00  0.00     0.150 HD
HETATM   22  H   UNK N   1      32.598  14.300  10.436  0.00  0.00     0.150 HD
ENDBRANCH  18  20
ENDBRANCH   4  18
TORSDOF 4
ENDMDL
MODEL 9
REMARK VINA RESULT:      -5.2      8.431     12.741
REMARK  4 active torsions:
REMARK  status: ('A' for Active; 'I' for Inactive)
REMARK    1  A    between atoms: C_3  and  C_2 
REMARK       I    between atoms: C_2  and  N_12 
REMARK    2  A    between atoms: C_6  and  C_9 
REMARK    3  A    between atoms: C_9  and  N_11 
REMARK    4  A    between atoms: N_12  and  C_13 
ROOT
HETATM    1  C   UNK N   1      29.495  17.110   6.606  0.00  0.00     0.078 C 
HETATM    2  C   UNK N   1      29.063  18.226   7.563  0.00  0.00     0.014 C 
HETATM    3  C   UNK N   1      27.824  19.004   7.079  0.00  0.00     0.007 C 
HETATM    4  C   UNK N   1      27.351  18.626   5.661  0.00  0.00     0.007 C 
HETATM    5  C   UNK N   1      28.550  18.585   4.705  0.00  0.00     0.007 C 
HETATM    6  C   UNK N   1      29.698  17.690   5.196  0.00  0.00     0.014 C 
ENDROOT
BRANCH   1   7
HETATM    7  C   UNK N   1      30.750  16.436   7.111  0.00  0.00     0.226 C 
HETATM    8  O   UNK N   1      31.204  15.484   6.492  0.00  0.00    -0.273 OA
HETATM    9  N   UNK N   1      31.370  16.902   8.232  0.00  0.00    -0.327 N 
HETATM   10  H   UNK N   1      30.931  17.648   8.702  0.00  0.00     0.169 HD
BRANCH   9  11
HETATM   11  C   UNK N   1      32.587  16.420   8.794  0.00  0.00     0.037 A 
HETATM   12  C   UNK N   1      32.608  15.139   9.353  0.00  0.00     0.046 A 
HETATM   13  C   UNK N   1      33.783  14.655   9.933  0.00  0.00     0.090 A 
HETATM   14  N   UNK N   1      34.901  15.427   9.958  0.00  0.00    -0.375 N 
HETATM   15  C   UNK N   1      34.909  16.678   9.424  0.00  0.00     0.090 A 
ATOM     16  HN  UNK N   1      35.751  15.062  10.386  1.00  0.00     0.164 HD
HETATM   17  C   UNK N   1      33.755  17.196   8.834  0.00  0.00     0.046 A 
ENDBRANCH   9  11
ENDBRANCH   1   7
BRANCH   4  18
HETATM   18  C   UNK N   1      26.282  19.603   5.139  0.00  0.00     0.073 C 
HETATM   19  C   UNK N   1      26.386  20.970   5.801  0.00  0.00     0.032 C 
BRANCH  18  20
HETATM   20  N   UNK N   1      24.952  19.065   5.372  0.00  0.00    -0.426 N 
HETATM   21  H   UNK N   1      24.294  19.570   5.967  0.00  0.00     0.150 HD
HETATM   22  H   UNK N   1      24.676  18.182   4.942  0.00  0.00     0.150 HD
ENDBRANCH  18  20
ENDBRANCH   4  18
TORSDOF 4
ENDMDL
