MODEL 1
REMARK VINA RESULT:      -6.4      0.000      0.000
REMARK  3 active torsions:
REMARK  status: ('A' for Active; 'I' for Inactive)
REMARK    1  A    between atoms: C_7  and  C_8 
REMARK    2  A    between atoms: C_12  and  C_13 
REMARK       I    between atoms: C_13  and  N_15 
REMARK    3  A    between atoms: N_15  and  N_16 
ROOT
HETATM    1  C   UNK N   1      32.103  17.279   7.671  0.00  0.00     0.088 A 
HETATM    2  O   UNK N   1      32.587  16.943   8.839  0.00  0.00    -0.304 OA
HETATM    3  C   UNK N   1      33.137  17.668   6.836  0.00  0.00     0.041 A 
HETATM    4  C   UNK N   1      34.296  17.540   7.589  0.00  0.00     0.046 A 
HETATM    5  C   UNK N   1      33.885  17.086   8.832  0.00  0.00     0.145 A 
ENDROOT
BRANCH   1   6
HETATM    6  C   UNK N   1      30.652  17.206   7.381  0.00  0.00     0.019 A 
HETATM    7  C   UNK N   1      29.646  17.851   8.143  0.00  0.00     0.047 A 
HETATM    8 Cl   UNK N   1      29.991  18.811   9.574  0.00  0.00    -0.083 Cl
HETATM    9  C   UNK N   1      28.303  17.716   7.768  0.00  0.00     0.025 A 
HETATM   10  C   UNK N   1      27.947  16.958   6.651  0.00  0.00     0.002 A 
HETATM   11  C   UNK N   1      28.932  16.319   5.902  0.00  0.00     0.001 A 
HETATM   12  C   UNK N   1      30.271  16.441   6.267  0.00  0.00     0.016 A 
ENDBRANCH   1   6
BRANCH   5  13
HETATM   13  C   UNK N   1      34.714  16.794  10.026  0.00  0.00     0.293 C 
HETATM   14  O   UNK N   1      35.692  17.496  10.235  0.00  0.00    -0.264 OA
HETATM   15  N   UNK N   1      34.438  15.790  10.893  0.00  0.00    -0.271 N 
HETATM   16  H   UNK N   1      35.037  15.647  11.661  0.00  0.00     0.189 HD
BRANCH  15  17
HETATM   17  N   UNK N   1      33.340  14.954  10.739  0.00  0.00    -0.342 N 
HETATM   18  H   UNK N   1      33.155  14.186  11.385  0.00  0.00     0.176 HD
HETATM   19  H   UNK N   1      32.703  15.111   9.959  0.00  0.00     0.176 HD
ENDBRANCH  15  17
ENDBRANCH   5  13
TORSDOF 3
ENDMDL
MODEL 2
REMARK VINA RESULT:      -6.3     10.860     12.012
REMARK  3 active torsions:
REMARK  status: ('A' for Active; 'I' for Inactive)
REMARK    1  A    between atoms: C_7  and  C_8 
REMARK    2  A    between atoms: C_12  and  C_13 
REMARK       I    between atoms: C_13  and  N_15 
REMARK    3  A    between atoms: N_15  and  N_16 
ROOT
HETATM    1  C   UNK N   1      21.382  14.761   8.568  0.00  0.00     0.088 A 
HETATM    2  O   UNK N   1      20.865  15.823   9.131  0.00  0.00    -0.304 OA
HETATM    3  C   UNK N   1      21.273  14.867   7.192  0.00  0.00     0.041 A 
HETATM    4  C   UNK N   1      20.648  16.084   6.957  0.00  0.00     0.046 A 
HETATM    5  C   UNK N   1      20.416  16.631   8.209  0.00  0.00     0.145 A 
ENDROOT
BRANCH   1   6
HETATM    6  C   UNK N   1      21.984  13.671   9.371  0.00  0.00     0.019 A 
HETATM    7  C   UNK N   1      23.313  13.200   9.220  0.00  0.00     0.047 A 
HETATM    8 Cl   UNK N   1      24.428  13.837   8.019  0.00  0.00    -0.083 Cl
HETATM    9  C   UNK N   1      23.776  12.166  10.043  0.00  0.00     0.025 A 
HETATM   10  C   UNK N   1      22.946  11.599  11.011  0.00  0.00     0.002 A 
HETATM   11  C   UNK N   1      21.639  12.055  11.160  0.00  0.00     0.001 A 
HETATM   12  C   UNK N   1      21.164  13.080  10.345  0.00  0.00     0.016 A 
ENDBRANCH   1   6
BRANCH   5  13
HETATM   13  C   UNK N   1      19.758  17.917   8.545  0.00  0.00     0.293 C 
HETATM   14  O   UNK N   1      20.351  18.953   8.283  0.00  0.00    -0.264 OA
HETATM   15  N   UNK N   1      18.537  17.996   9.126  0.00  0.00    -0.271 N 
HETATM   16  H   UNK N   1      18.165  18.885   9.330  0.00  0.00     0.189 HD
BRANCH  15  17
HETATM   17  N   UNK N   1      17.790  16.871   9.446  0.00  0.00    -0.342 N 
HETATM   18  H   UNK N   1      16.827  16.758   9.130  0.00  0.00     0.176 HD
HETATM   19  H   UNK N   1      18.216  16.137  10.012  0.00  0.00     0.176 HD
ENDBRANCH  15  17
ENDBRANCH   5  13
TORSDOF 3
ENDMDL
MODEL 3
REMARK VINA RESULT:      -6.3      5.467      8.089
REMARK  3 active torsions:
REMARK  status: ('A' for Active; 'I' for Inactive)
REMARK    1  A    between atoms: C_7  and  C_8 
REMARK    2  A    between atoms: C_12  and  C_13 
REMARK       I    between atoms: C_13  and  N_15 
REMARK    3  A    between atoms: N_15  and  N_16 
ROOT
HETATM    1  C   UNK N   1      35.788  13.605  12.805  0.00  0.00     0.088 A 
HETATM    2  O   UNK N   1      35.078  14.620  12.385  0.00  0.00    -0.304 OA
HETATM    3  C   UNK N   1      36.824  13.365  11.917  0.00  0.00     0.041 A 
HETATM    4  C   UNK N   1      36.691  14.320  10.919  0.00  0.00     0.046 A 
HETATM    5  C   UNK N   1      35.579  15.071  11.267  0.00  0.00     0.145 A 
ENDROOT
BRANCH   1   6
HETATM    6  C   UNK N   1      35.460  12.894  14.063  0.00  0.00     0.019 A 
HETATM    7  C   UNK N   1      35.965  13.246  15.341  0.00  0.00     0.047 A 
HETATM    8 Cl   UNK N   1      37.088  14.573  15.598  0.00  0.00    -0.083 Cl
HETATM    9  C   UNK N   1      35.578  12.504  16.463  0.00  0.00     0.025 A 
HETATM   10  C   UNK N   1      34.699  11.427  16.339  0.00  0.00     0.002 A 
HETATM   11  C   UNK N   1      34.204  11.074  15.085  0.00  0.00     0.001 A 
HETATM   12  C   UNK N   1      34.585  11.802  13.959  0.00  0.00     0.016 A 
ENDBRANCH   1   6
BRANCH   5  13
HETATM   13  C   UNK N   1      34.976  16.214  10.541  0.00  0.00     0.293 C 
HETATM   14  O   UNK N   1      35.659  17.212  10.368  0.00  0.00    -0.264 OA
HETATM   15  N   UNK N   1      33.708  16.204  10.063  0.00  0.00    -0.271 N 
HETATM   16  H   UNK N   1      33.369  17.003   9.599  0.00  0.00     0.189 HD
BRANCH  15  17
HETATM   17  N   UNK N   1      32.868  15.108  10.204  0.00  0.00    -0.342 N 
HETATM   18  H   UNK N   1      32.194  15.042  10.967  0.00  0.00     0.176 HD
HETATM   19  H   UNK N   1      32.927  14.347   9.527  0.00  0.00     0.176 HD
ENDBRANCH  15  17
ENDBRANCH   5  13
TORSDOF 3
ENDMDL
MODEL 4
REMARK VINA RESULT:      -6.1     16.553     17.767
REMARK  3 active torsions:
REMARK  status: ('A' for Active; 'I' for Inactive)
REMARK    1  A    between atoms: C_7  and  C_8 
REMARK    2  A    between atoms: C_12  and  C_13 
REMARK       I    between atoms: C_13  and  N_15 
REMARK    3  A    between atoms: N_15  and  N_16 
ROOT
HETATM    1  C   UNK N   1      26.447  24.505  -6.070  0.00  0.00     0.088 A 
HETATM    2  O   UNK N   1      25.467  23.948  -6.735  0.00  0.00    -0.304 OA
HETATM    3  C   UNK N   1      27.636  23.862  -6.371  0.00  0.00     0.041 A 
HETATM    4  C   UNK N   1      27.304  22.865  -7.279  0.00  0.00     0.046 A 
HETATM    5  C   UNK N   1      25.934  22.970  -7.462  0.00  0.00     0.145 A 
ENDROOT
BRANCH   1   6
HETATM    6  C   UNK N   1      26.217  25.657  -5.167  0.00  0.00     0.019 A 
HETATM    7  C   UNK N   1      26.529  25.668  -3.783  0.00  0.00     0.047 A 
HETATM    8 Cl   UNK N   1      27.209  24.284  -2.940  0.00  0.00    -0.083 Cl
HETATM    9  C   UNK N   1      26.274  26.820  -3.028  0.00  0.00     0.025 A 
HETATM   10  C   UNK N   1      25.722  27.956  -3.623  0.00  0.00     0.002 A 
HETATM   11  C   UNK N   1      25.410  27.947  -4.981  0.00  0.00     0.001 A 
HETATM   12  C   UNK N   1      25.655  26.806  -5.742  0.00  0.00     0.016 A 
ENDBRANCH   1   6
BRANCH   5  13
HETATM   13  C   UNK N   1      25.053  22.138  -8.318  0.00  0.00     0.293 C 
HETATM   14  O   UNK N   1      25.288  22.096  -9.516  0.00  0.00    -0.264 OA
HETATM   15  N   UNK N   1      24.006  21.427  -7.834  0.00  0.00    -0.271 N 
HETATM   16  H   UNK N   1      23.457  20.905  -8.463  0.00  0.00     0.189 HD
BRANCH  15  17
HETATM   17  N   UNK N   1      23.677  21.409  -6.486  0.00  0.00    -0.342 N 
HETATM   18  H   UNK N   1      24.383  21.270  -5.763  0.00  0.00     0.176 HD
HETATM   19  H   UNK N   1      22.704  21.538  -6.211  0.00  0.00     0.176 HD
ENDBRANCH  15  17
ENDBRANCH   5  13
TORSDOF 3
ENDMDL
MODEL 5
REMARK VINA RESULT:      -6.1      7.442     10.169
REMARK  3 active torsions:
REMARK  status: ('A' for Active; 'I' for Inactive)
REMARK    1  A    between atoms: C_7  and  C_8 
REMARK    2  A    between atoms: C_12  and  C_13 
REMARK       I    between atoms: C_13  and  N_15 
REMARK    3  A    between atoms: N_15  and  N_16 
ROOT
HETATM    1  C   UNK N   1      35.803  13.345  15.406  0.00  0.00     0.088 A 
HETATM    2  O   UNK N   1      35.020  13.065  14.396  0.00  0.00    -0.304 OA
HETATM    3  C   UNK N   1      36.742  14.286  15.018  0.00  0.00     0.041 A 
HETATM    4  C   UNK N   1      36.468  14.562  13.685  0.00  0.00     0.046 A 
HETATM    5  C   UNK N   1      35.383  13.764  13.355  0.00  0.00     0.145 A 
ENDROOT
BRANCH   1   6
HETATM    6  C   UNK N   1      35.620  12.707  16.731  0.00  0.00     0.019 A 
HETATM    7  C   UNK N   1      35.780  11.322  16.986  0.00  0.00     0.047 A 
HETATM    8 Cl   UNK N   1      36.193  10.156  15.736  0.00  0.00    -0.083 Cl
HETATM    9  C   UNK N   1      35.588  10.832  18.284  0.00  0.00     0.025 A 
HETATM   10  C   UNK N   1      35.246  11.693  19.328  0.00  0.00     0.002 A 
HETATM   11  C   UNK N   1      35.082  13.054  19.081  0.00  0.00     0.001 A 
HETATM   12  C   UNK N   1      35.266  13.554  17.793  0.00  0.00     0.016 A 
ENDBRANCH   1   6
BRANCH   5  13
HETATM   13  C   UNK N   1      34.688  13.650  12.051  0.00  0.00     0.293 C 
HETATM   14  O   UNK N   1      34.271  14.672  11.528  0.00  0.00    -0.264 OA
HETATM   15  N   UNK N   1      34.495  12.469  11.414  0.00  0.00    -0.271 N 
HETATM   16  H   UNK N   1      34.016  12.466  10.554  0.00  0.00     0.189 HD
BRANCH  15  17
HETATM   17  N   UNK N   1      34.947  11.262  11.931  0.00  0.00    -0.342 N 
HETATM   18  H   UNK N   1      34.349  10.437  11.972  0.00  0.00     0.176 HD
HETATM   19  H   UNK N   1      35.904  11.199  12.278  0.00  0.00     0.176 HD
ENDBRANCH  15  17
ENDBRANCH   5  13
TORSDOF 3
ENDMDL
MODEL 6
REMARK VINA RESULT:      -6.1      5.793      8.443
REMARK  3 active torsions:
REMARK  status: ('A' for Active; 'I' for Inactive)
REMARK    1  A    between atoms: C_7  and  C_8 
REMARK    2  A    between atoms: C_12  and  C_13 
REMARK       I    between atoms: C_13  and  N_15 
REMARK    3  A    between atoms: N_15  and  N_16 
ROOT
HETATM    1  C   UNK N   1      35.830  13.048  13.038  0.00  0.00     0.088 A 
HETATM    2  O   UNK N   1      35.229  14.148  12.663  0.00  0.00    -0.304 OA
HETATM    3  C   UNK N   1      36.857  12.757  12.155  0.00  0.00     0.041 A 
HETATM    4  C   UNK N   1      36.837  13.773  11.209  0.00  0.00     0.046 A 
HETATM    5  C   UNK N   1      35.796  14.608  11.581  0.00  0.00     0.145 A 
ENDROOT
BRANCH   1   6
HETATM    6  C   UNK N   1      35.409  12.305  14.249  0.00  0.00     0.019 A 
HETATM    7  C   UNK N   1      34.582  11.153  14.238  0.00  0.00     0.047 A 
HETATM    8 Cl   UNK N   1      33.911  10.464  12.767  0.00  0.00    -0.083 Cl
HETATM    9  C   UNK N   1      34.254  10.529  15.448  0.00  0.00     0.025 A 
HETATM   10  C   UNK N   1      34.737  11.024  16.661  0.00  0.00     0.002 A 
HETATM   11  C   UNK N   1      35.546  12.158  16.676  0.00  0.00     0.001 A 
HETATM   12  C   UNK N   1      35.875  12.792  15.480  0.00  0.00     0.016 A 
ENDBRANCH   1   6
BRANCH   5  13
HETATM   13  C   UNK N   1      35.320  15.842  10.910  0.00  0.00     0.293 C 
HETATM   14  O   UNK N   1      36.126  16.739  10.716  0.00  0.00    -0.264 OA
HETATM   15  N   UNK N   1      34.039  16.020  10.505  0.00  0.00    -0.271 N 
HETATM   16  H   UNK N   1      33.792  16.870  10.075  0.00  0.00     0.189 HD
BRANCH  15  17
HETATM   17  N   UNK N   1      33.063  15.048  10.675  0.00  0.00    -0.342 N 
HETATM   18  H   UNK N   1      33.090  14.390  11.454  0.00  0.00     0.176 HD
HETATM   19  H   UNK N   1      32.298  14.991  10.004  0.00  0.00     0.176 HD
ENDBRANCH  15  17
ENDBRANCH   5  13
TORSDOF 3
ENDMDL
MODEL 7
REMARK VINA RESULT:      -6.0      8.418     10.538
REMARK  3 active torsions:
REMARK  status: ('A' for Active; 'I' for Inactive)
REMARK    1  A    between atoms: C_7  and  C_8 
REMARK    2  A    between atoms: C_12  and  C_13 
REMARK       I    between atoms: C_13  and  N_15 
REMARK    3  A    between atoms: N_15  and  N_16 
ROOT
HETATM    1  C   UNK N   1      35.148  11.991  15.335  0.00  0.00     0.088 A 
HETATM    2  O   UNK N   1      36.122  12.441  14.586  0.00  0.00    -0.304 OA
HETATM    3  C   UNK N   1      34.159  11.447  14.533  0.00  0.00     0.041 A 
HETATM    4  C   UNK N   1      34.610  11.598  13.228  0.00  0.00     0.046 A 
HETATM    5  C   UNK N   1      35.839  12.229  13.330  0.00  0.00     0.145 A 
ENDROOT
BRANCH   1   6
HETATM    6  C   UNK N   1      35.197  12.083  16.813  0.00  0.00     0.019 A 
HETATM    7  C   UNK N   1      35.340  10.973  17.684  0.00  0.00     0.047 A 
HETATM    8 Cl   UNK N   1      35.445   9.313  17.116  0.00  0.00    -0.083 Cl
HETATM    9  C   UNK N   1      35.382  11.183  19.068  0.00  0.00     0.025 A 
HETATM   10  C   UNK N   1      35.291  12.472  19.597  0.00  0.00     0.002 A 
HETATM   11  C   UNK N   1      35.146  13.565  18.746  0.00  0.00     0.001 A 
HETATM   12  C   UNK N   1      35.098  13.369  17.367  0.00  0.00     0.016 A 
ENDBRANCH   1   6
BRANCH   5  13
HETATM   13  C   UNK N   1      36.753  12.647  12.239  0.00  0.00     0.293 C 
HETATM   14  O   UNK N   1      37.253  11.778  11.541  0.00  0.00    -0.264 OA
HETATM   15  N   UNK N   1      37.057  13.942  11.981  0.00  0.00    -0.271 N 
HETATM   16  H   UNK N   1      37.680  14.146  11.246  0.00  0.00     0.189 HD
BRANCH  15  17
HETATM   17  N   UNK N   1      36.524  14.992  12.715  0.00  0.00    -0.342 N 
HETATM   18  H   UNK N   1      36.820  15.183  13.673  0.00  0.00     0.176 HD
HETATM   19  H   UNK N   1      35.818  15.590  12.286  0.00  0.00     0.176 HD
ENDBRANCH  15  17
ENDBRANCH   5  13
TORSDOF 3
ENDMDL
MODEL 8
REMARK VINA RESULT:      -5.9     14.705     15.481
REMARK  3 active torsions:
REMARK  status: ('A' for Active; 'I' for Inactive)
REMARK    1  A    between atoms: C_7  and  C_8 
REMARK    2  A    between atoms: C_12  and  C_13 
REMARK       I    between atoms: C_13  and  N_15 
REMARK    3  A    between atoms: N_15  and  N_16 
ROOT
HETATM    1  C   UNK N   1      28.550  25.595  -4.159  0.00  0.00     0.088 A 
HETATM    2  O   UNK N   1      28.654  24.404  -3.627  0.00  0.00    -0.304 OA
HETATM    3  C   UNK N   1      29.782  26.226  -4.127  0.00  0.00     0.041 A 
HETATM    4  C   UNK N   1      30.652  25.321  -3.533  0.00  0.00     0.046 A 
HETATM    5  C   UNK N   1      29.885  24.204  -3.241  0.00  0.00     0.145 A 
ENDROOT
BRANCH   1   6
HETATM    6  C   UNK N   1      27.265  26.095  -4.699  0.00  0.00     0.019 A 
HETATM    7  C   UNK N   1      26.558  25.499  -5.774  0.00  0.00     0.047 A 
HETATM    8 Cl   UNK N   1      27.140  24.085  -6.641  0.00  0.00    -0.083 Cl
HETATM    9  C   UNK N   1      25.344  26.057  -6.196  0.00  0.00     0.025 A 
HETATM   10  C   UNK N   1      24.822  27.189  -5.567  0.00  0.00     0.002 A 
HETATM   11  C   UNK N   1      25.515  27.780  -4.513  0.00  0.00     0.001 A 
HETATM   12  C   UNK N   1      26.726  27.238  -4.087  0.00  0.00     0.016 A 
ENDBRANCH   1   6
BRANCH   5  13
HETATM   13  C   UNK N   1      30.307  22.943  -2.585  0.00  0.00     0.293 C 
HETATM   14  O   UNK N   1      30.550  22.969  -1.388  0.00  0.00    -0.264 OA
HETATM   15  N   UNK N   1      30.435  21.768  -3.249  0.00  0.00    -0.271 N 
HETATM   16  H   UNK N   1      30.729  20.972  -2.751  0.00  0.00     0.189 HD
BRANCH  15  17
HETATM   17  N   UNK N   1      30.167  21.647  -4.605  0.00  0.00    -0.342 N 
HETATM   18  H   UNK N   1      30.853  21.265  -5.256  0.00  0.00     0.176 HD
HETATM   19  H   UNK N   1      29.260  21.948  -4.961  0.00  0.00     0.176 HD
ENDBRANCH  15  17
ENDBRANCH   5  13
TORSDOF 3
ENDMDL
MODEL 9
REMARK VINA RESULT:      -5.8      8.351     10.921
REMARK  3 active torsions:
REMARK  status: ('A' for Active; 'I' for Inactive)
REMARK    1  A    between atoms: C_7  and  C_8 
REMARK    2  A    between atoms: C_12  and  C_13 
REMARK       I    between atoms: C_13  and  N_15 
REMARK    3  A    between atoms: N_15  and  N_16 
ROOT
HETATM    1  C   UNK N   1      35.030  11.478  15.865  0.00  0.00     0.088 A 
HETATM    2  O   UNK N   1      35.867  12.144  15.112  0.00  0.00    -0.304 OA
HETATM    3  C   UNK N   1      34.028  10.935  15.078  0.00  0.00     0.041 A 
HETATM    4  C   UNK N   1      34.323  11.321  13.777  0.00  0.00     0.046 A 
HETATM    5  C   UNK N   1      35.481  12.077  13.867  0.00  0.00     0.145 A 
ENDROOT
BRANCH   1   6
HETATM    6  C   UNK N   1      35.221  11.369  17.331  0.00  0.00     0.019 A 
HETATM    7  C   UNK N   1      35.242  12.471  18.223  0.00  0.00     0.047 A 
HETATM    8 Cl   UNK N   1      35.075  14.139  17.695  0.00  0.00    -0.083 Cl
HETATM    9  C   UNK N   1      35.423  12.245  19.593  0.00  0.00     0.025 A 
HETATM   10  C   UNK N   1      35.576  10.949  20.089  0.00  0.00     0.002 A 
HETATM   11  C   UNK N   1      35.561   9.864  19.216  0.00  0.00     0.001 A 
HETATM   12  C   UNK N   1      35.386  10.076  17.849  0.00  0.00     0.016 A 
ENDBRANCH   1   6
BRANCH   5  13
HETATM   13  C   UNK N   1      36.228  12.750  12.776  0.00  0.00     0.293 C 
HETATM   14  O   UNK N   1      36.303  12.186  11.696  0.00  0.00    -0.264 OA
HETATM   15  N   UNK N   1      36.827  13.957  12.923  0.00  0.00    -0.271 N 
HETATM   16  H   UNK N   1      37.314  14.341  12.159  0.00  0.00     0.189 HD
BRANCH  15  17
HETATM   17  N   UNK N   1      36.779  14.672  14.112  0.00  0.00    -0.342 N 
HETATM   18  H   UNK N   1      37.447  14.506  14.865  0.00  0.00     0.176 HD
HETATM   19  H   UNK N   1      36.058  15.382  14.235  0.00  0.00     0.176 HD
ENDBRANCH  15  17
ENDBRANCH   5  13
TORSDOF 3
ENDMDL
