MODEL 1
REMARK VINA RESULT:      -6.8      0.000      0.000
REMARK  2 active torsions:
REMARK  status: ('A' for Active; 'I' for Inactive)
REMARK    1  A    between atoms: C_14  and  C_15 
REMARK       I    between atoms: C_15  and  N_17 
REMARK    2  A    between atoms: N_17  and  N_18 
ROOT
HETATM    1  C   UNK N   1      36.961  13.226  11.838  0.00  0.00     0.133 A 
HETATM    2  N   UNK N   1      36.939  12.454  12.938  0.00  0.00    -0.316 N 
HETATM    3  C   UNK N   1      37.530  11.253  13.168  0.00  0.00     0.099 A 
HETATM    4  C   UNK N   1      37.355  10.652  14.429  0.00  0.00     0.030 A 
HETATM    5  C   UNK N   1      36.579  11.308  15.408  0.00  0.00    -0.021 A 
HETATM    6  C   UNK N   1      36.393  10.738  16.671  0.00  0.00     0.012 A 
HETATM    7  C   UNK N   1      35.622  11.405  17.633  0.00  0.00     0.001 A 
HETATM    8  C   UNK N   1      35.035  12.641  17.336  0.00  0.00     0.001 A 
HETATM    9  C   UNK N   1      35.215  13.219  16.078  0.00  0.00     0.016 A 
HETATM   10  C   UNK N   1      35.984  12.557  15.115  0.00  0.00     0.019 A 
HETATM   11  C   UNK N   1      36.197  13.094  13.853  0.00  0.00     0.123 A 
HETATM   12  N   UNK N   1      35.721  14.266  13.399  0.00  0.00    -0.336 N 
ATOM     13  HN  UNK N   1      35.134  14.936  13.895  1.00  0.00     0.168 HD
HETATM   14  C   UNK N   1      36.200  14.353  12.139  0.00  0.00     0.120 A 
ENDROOT
BRANCH  14  15
HETATM   15  C   UNK N   1      35.931  15.504  11.268  0.00  0.00     0.287 C 
HETATM   16  O   UNK N   1      36.854  16.160  10.809  0.00  0.00    -0.264 OA
HETATM   17  N   UNK N   1      34.648  15.833  10.988  0.00  0.00    -0.271 N 
HETATM   18  H   UNK N   1      33.917  15.292  11.367  0.00  0.00     0.189 HD
BRANCH  17  19
HETATM   19  N   UNK N   1      34.341  16.916  10.179  0.00  0.00    -0.342 N 
HETATM   20  H   UNK N   1      34.355  17.861  10.564  0.00  0.00     0.176 HD
HETATM   21  H   UNK N   1      34.100  16.768   9.200  0.00  0.00     0.176 HD
ENDBRANCH  17  19
ENDBRANCH  14  15
TORSDOF 2
ENDMDL
MODEL 2
REMARK VINA RESULT:      -6.7      1.828      2.349
REMARK  2 active torsions:
REMARK  status: ('A' for Active; 'I' for Inactive)
REMARK    1  A    between atoms: C_14  and  C_15 
REMARK       I    between atoms: C_15  and  N_17 
REMARK    2  A    between atoms: N_17  and  N_18 
ROOT
HETATM    1  C   UNK N   1      35.313  11.822  13.337  0.00  0.00     0.133 A 
HETATM    2  N   UNK N   1      35.279  11.340  14.590  0.00  0.00    -0.316 N 
HETATM    3  C   UNK N   1      35.259  10.054  15.026  0.00  0.00     0.099 A 
HETATM    4  C   UNK N   1      35.235   9.818  16.414  0.00  0.00     0.030 A 
HETATM    5  C   UNK N   1      35.234  10.913  17.303  0.00  0.00    -0.021 A 
HETATM    6  C   UNK N   1      35.216  10.708  18.686  0.00  0.00     0.012 A 
HETATM    7  C   UNK N   1      35.217  11.808  19.556  0.00  0.00     0.001 A 
HETATM    8  C   UNK N   1      35.236  13.112  19.047  0.00  0.00     0.001 A 
HETATM    9  C   UNK N   1      35.254  13.327  17.668  0.00  0.00     0.016 A 
HETATM   10  C   UNK N   1      35.253  12.233  16.796  0.00  0.00     0.019 A 
HETATM   11  C   UNK N   1      35.277  12.395  15.418  0.00  0.00     0.123 A 
HETATM   12  N   UNK N   1      35.305  13.565  14.757  0.00  0.00    -0.336 N 
ATOM     13  HN  UNK N   1      35.308  14.505  15.151  1.00  0.00     0.168 HD
HETATM   14  C   UNK N   1      35.330  13.210  13.455  0.00  0.00     0.120 A 
ENDROOT
BRANCH  14  15
HETATM   15  C   UNK N   1      35.383  14.195  12.367  0.00  0.00     0.287 C 
HETATM   16  O   UNK N   1      34.374  14.473  11.735  0.00  0.00    -0.264 OA
HETATM   17  N   UNK N   1      36.564  14.785  12.069  0.00  0.00    -0.271 N 
HETATM   18  H   UNK N   1      37.367  14.549  12.589  0.00  0.00     0.189 HD
BRANCH  17  19
HETATM   19  N   UNK N   1      36.669  15.714  11.045  0.00  0.00    -0.342 N 
HETATM   20  H   UNK N   1      37.116  15.456  10.165  0.00  0.00     0.176 HD
HETATM   21  H   UNK N   1      36.300  16.656  11.172  0.00  0.00     0.176 HD
ENDBRANCH  17  19
ENDBRANCH  14  15
TORSDOF 2
ENDMDL
MODEL 3
REMARK VINA RESULT:      -6.6     15.376     16.512
REMARK  2 active torsions:
REMARK  status: ('A' for Active; 'I' for Inactive)
REMARK    1  A    between atoms: C_14  and  C_15 
REMARK       I    between atoms: C_15  and  N_17 
REMARK    2  A    between atoms: N_17  and  N_18 
ROOT
HETATM    1  C   UNK N   1      20.199  16.383   7.653  0.00  0.00     0.133 A 
HETATM    2  N   UNK N   1      21.157  15.456   7.829  0.00  0.00    -0.316 N 
HETATM    3  C   UNK N   1      22.279  15.219   7.103  0.00  0.00     0.099 A 
HETATM    4  C   UNK N   1      23.134  14.178   7.513  0.00  0.00     0.030 A 
HETATM    5  C   UNK N   1      22.803  13.420   8.656  0.00  0.00    -0.021 A 
HETATM    6  C   UNK N   1      23.636  12.384   9.090  0.00  0.00     0.012 A 
HETATM    7  C   UNK N   1      23.294  11.642  10.229  0.00  0.00     0.001 A 
HETATM    8  C   UNK N   1      22.120  11.932  10.936  0.00  0.00     0.001 A 
HETATM    9  C   UNK N   1      21.282  12.964  10.511  0.00  0.00     0.016 A 
HETATM   10  C   UNK N   1      21.620  13.708   9.375  0.00  0.00     0.019 A 
HETATM   11  C   UNK N   1      20.822  14.747   8.917  0.00  0.00     0.123 A 
HETATM   12  N   UNK N   1      19.673  15.168   9.471  0.00  0.00    -0.336 N 
ATOM     13  HN  UNK N   1      19.204  14.798  10.297  1.00  0.00     0.168 HD
HETATM   14  C   UNK N   1      19.281  16.193   8.684  0.00  0.00     0.120 A 
ENDROOT
BRANCH  14  15
HETATM   15  C   UNK N   1      18.060  16.967   8.941  0.00  0.00     0.287 C 
HETATM   16  O   UNK N   1      17.057  16.781   8.268  0.00  0.00    -0.264 OA
HETATM   17  N   UNK N   1      18.062  17.893   9.929  0.00  0.00    -0.271 N 
HETATM   18  H   UNK N   1      18.879  18.029  10.462  0.00  0.00     0.189 HD
BRANCH  17  19
HETATM   19  N   UNK N   1      16.938  18.656  10.205  0.00  0.00    -0.342 N 
HETATM   20  H   UNK N   1      16.147  18.241  10.697  0.00  0.00     0.176 HD
HETATM   21  H   UNK N   1      16.901  19.633   9.915  0.00  0.00     0.176 HD
ENDBRANCH  17  19
ENDBRANCH  14  15
TORSDOF 2
ENDMDL
MODEL 4
REMARK VINA RESULT:      -6.5      5.889      9.033
REMARK  2 active torsions:
REMARK  status: ('A' for Active; 'I' for Inactive)
REMARK    1  A    between atoms: C_14  and  C_15 
REMARK       I    between atoms: C_15  and  N_17 
REMARK    2  A    between atoms: N_17  and  N_18 
ROOT
HETATM    1  C   UNK N   1      33.905  15.958   7.663  0.00  0.00     0.133 A 
HETATM    2  N   UNK N   1      32.666  16.262   7.243  0.00  0.00    -0.316 N 
HETATM    3  C   UNK N   1      32.036  15.934   6.086  0.00  0.00     0.099 A 
HETATM    4  C   UNK N   1      30.713  16.378   5.895  0.00  0.00     0.030 A 
HETATM    5  C   UNK N   1      30.087  17.143   6.902  0.00  0.00    -0.021 A 
HETATM    6  C   UNK N   1      28.773  17.593   6.742  0.00  0.00     0.012 A 
HETATM    7  C   UNK N   1      28.164  18.349   7.753  0.00  0.00     0.001 A 
HETATM    8  C   UNK N   1      28.867  18.659   8.924  0.00  0.00     0.001 A 
HETATM    9  C   UNK N   1      30.179  18.215   9.093  0.00  0.00     0.016 A 
HETATM   10  C   UNK N   1      30.790  17.459   8.087  0.00  0.00     0.019 A 
HETATM   11  C   UNK N   1      32.090  16.990   8.212  0.00  0.00     0.123 A 
HETATM   12  N   UNK N   1      32.905  17.182   9.262  0.00  0.00    -0.336 N 
ATOM     13  HN  UNK N   1      32.710  17.698  10.120  1.00  0.00     0.168 HD
HETATM   14  C   UNK N   1      34.042  16.535   8.924  0.00  0.00     0.120 A 
ENDROOT
BRANCH  14  15
HETATM   15  C   UNK N   1      35.212  16.475   9.808  0.00  0.00     0.287 C 
HETATM   16  O   UNK N   1      35.588  17.473  10.405  0.00  0.00    -0.264 OA
HETATM   17  N   UNK N   1      35.873  15.301   9.947  0.00  0.00    -0.271 N 
HETATM   18  H   UNK N   1      35.555  14.507   9.458  0.00  0.00     0.189 HD
BRANCH  17  19
HETATM   19  N   UNK N   1      36.989  15.194  10.762  0.00  0.00    -0.342 N 
HETATM   20  H   UNK N   1      37.158  14.335  11.286  0.00  0.00     0.176 HD
HETATM   21  H   UNK N   1      37.641  15.974  10.838  0.00  0.00     0.176 HD
ENDBRANCH  17  19
ENDBRANCH  14  15
TORSDOF 2
ENDMDL
MODEL 5
REMARK VINA RESULT:      -6.3     25.966     26.729
REMARK  2 active torsions:
REMARK  status: ('A' for Active; 'I' for Inactive)
REMARK    1  A    between atoms: C_14  and  C_15 
REMARK       I    between atoms: C_15  and  N_17 
REMARK    2  A    between atoms: N_17  and  N_18 
ROOT
HETATM    1  C   UNK N   1      26.992  25.606  -8.759  0.00  0.00     0.133 A 
HETATM    2  N   UNK N   1      27.283  26.685  -8.013  0.00  0.00    -0.316 N 
HETATM    3  C   UNK N   1      28.187  27.674  -8.232  0.00  0.00     0.099 A 
HETATM    4  C   UNK N   1      28.287  28.710  -7.284  0.00  0.00     0.030 A 
HETATM    5  C   UNK N   1      27.453  28.692  -6.146  0.00  0.00    -0.021 A 
HETATM    6  C   UNK N   1      27.527  29.711  -5.192  0.00  0.00     0.012 A 
HETATM    7  C   UNK N   1      26.689  29.678  -4.068  0.00  0.00     0.001 A 
HETATM    8  C   UNK N   1      25.778  28.630  -3.896  0.00  0.00     0.001 A 
HETATM    9  C   UNK N   1      25.696  27.607  -4.843  0.00  0.00     0.016 A 
HETATM   10  C   UNK N   1      26.529  27.636  -5.966  0.00  0.00     0.019 A 
HETATM   11  C   UNK N   1      26.482  26.647  -6.938  0.00  0.00     0.123 A 
HETATM   12  N   UNK N   1      25.669  25.577  -6.942  0.00  0.00    -0.336 N 
ATOM     13  HN  UNK N   1      24.973  25.318  -6.243  1.00  0.00     0.168 HD
HETATM   14  C   UNK N   1      25.984  24.924  -8.081  0.00  0.00     0.120 A 
ENDROOT
BRANCH  14  15
HETATM   15  C   UNK N   1      25.312  23.686  -8.496  0.00  0.00     0.287 C 
HETATM   16  O   UNK N   1      25.196  23.413  -9.682  0.00  0.00    -0.264 OA
HETATM   17  N   UNK N   1      24.817  22.856  -7.548  0.00  0.00    -0.271 N 
HETATM   18  H   UNK N   1      24.921  23.092  -6.597  0.00  0.00     0.189 HD
BRANCH  17  19
HETATM   19  N   UNK N   1      24.166  21.680  -7.888  0.00  0.00    -0.342 N 
HETATM   20  H   UNK N   1      24.595  21.031  -8.547  0.00  0.00     0.176 HD
HETATM   21  H   UNK N   1      23.257  21.464  -7.478  0.00  0.00     0.176 HD
ENDBRANCH  17  19
ENDBRANCH  14  15
TORSDOF 2
ENDMDL
MODEL 6
REMARK VINA RESULT:      -6.3      1.728      2.278
REMARK  2 active torsions:
REMARK  status: ('A' for Active; 'I' for Inactive)
REMARK    1  A    between atoms: C_14  and  C_15 
REMARK       I    between atoms: C_15  and  N_17 
REMARK    2  A    between atoms: N_17  and  N_18 
ROOT
HETATM    1  C   UNK N   1      35.900  15.211  12.405  0.00  0.00     0.133 A 
HETATM    2  N   UNK N   1      36.003  14.409  13.478  0.00  0.00    -0.316 N 
HETATM    3  C   UNK N   1      36.768  14.543  14.591  0.00  0.00     0.099 A 
HETATM    4  C   UNK N   1      36.681  13.551  15.587  0.00  0.00     0.030 A 
HETATM    5  C   UNK N   1      35.808  12.458  15.401  0.00  0.00    -0.021 A 
HETATM    6  C   UNK N   1      35.696  11.461  16.374  0.00  0.00     0.012 A 
HETATM    7  C   UNK N   1      34.823  10.383  16.175  0.00  0.00     0.001 A 
HETATM    8  C   UNK N   1      34.061  10.298  15.003  0.00  0.00     0.001 A 
HETATM    9  C   UNK N   1      34.165  11.288  14.025  0.00  0.00     0.016 A 
HETATM   10  C   UNK N   1      35.035  12.366  14.220  0.00  0.00     0.019 A 
HETATM   11  C   UNK N   1      35.169  13.378  13.280  0.00  0.00     0.123 A 
HETATM   12  N   UNK N   1      34.515  13.465  12.109  0.00  0.00    -0.336 N 
ATOM     13  HN  UNK N   1      33.832  12.812  11.725  1.00  0.00     0.168 HD
HETATM   14  C   UNK N   1      34.968  14.612  11.560  0.00  0.00     0.120 A 
ENDROOT
BRANCH  14  15
HETATM   15  C   UNK N   1      34.495  15.109  10.261  0.00  0.00     0.287 C 
HETATM   16  O   UNK N   1      34.504  14.380   9.280  0.00  0.00    -0.264 OA
HETATM   17  N   UNK N   1      34.057  16.386  10.165  0.00  0.00    -0.271 N 
HETATM   18  H   UNK N   1      34.056  16.959  10.967  0.00  0.00     0.189 HD
BRANCH  17  19
HETATM   19  N   UNK N   1      33.609  16.907   8.960  0.00  0.00    -0.342 N 
HETATM   20  H   UNK N   1      32.929  16.390   8.402  0.00  0.00     0.176 HD
HETATM   21  H   UNK N   1      33.961  17.805   8.632  0.00  0.00     0.176 HD
ENDBRANCH  17  19
ENDBRANCH  14  15
TORSDOF 2
ENDMDL
MODEL 7
REMARK VINA RESULT:      -6.1      4.440      8.048
REMARK  2 active torsions:
REMARK  status: ('A' for Active; 'I' for Inactive)
REMARK    1  A    between atoms: C_14  and  C_15 
REMARK       I    between atoms: C_15  and  N_17 
REMARK    2  A    between atoms: N_17  and  N_18 
ROOT
HETATM    1  C   UNK N   1      35.450  15.134   9.271  0.00  0.00     0.133 A 
HETATM    2  N   UNK N   1      34.633  15.597   8.310  0.00  0.00    -0.316 N 
HETATM    3  C   UNK N   1      34.867  15.778   6.985  0.00  0.00     0.099 A 
HETATM    4  C   UNK N   1      33.821  16.275   6.183  0.00  0.00     0.030 A 
HETATM    5  C   UNK N   1      32.573  16.565   6.773  0.00  0.00    -0.021 A 
HETATM    6  C   UNK N   1      31.515  17.053   6.001  0.00  0.00     0.012 A 
HETATM    7  C   UNK N   1      30.281  17.335   6.603  0.00  0.00     0.001 A 
HETATM    8  C   UNK N   1      30.101  17.130   7.976  0.00  0.00     0.001 A 
HETATM    9  C   UNK N   1      31.151  16.642   8.757  0.00  0.00     0.016 A 
HETATM   10  C   UNK N   1      32.384  16.360   8.160  0.00  0.00     0.019 A 
HETATM   11  C   UNK N   1      33.455  15.868   8.892  0.00  0.00     0.123 A 
HETATM   12  N   UNK N   1      33.462  15.604  10.209  0.00  0.00    -0.336 N 
ATOM     13  HN  UNK N   1      32.698  15.725  10.875  1.00  0.00     0.168 HD
HETATM   14  C   UNK N   1      34.707  15.142  10.450  0.00  0.00     0.120 A 
ENDROOT
BRANCH  14  15
HETATM   15  C   UNK N   1      35.149  14.713  11.783  0.00  0.00     0.287 C 
HETATM   16  O   UNK N   1      34.530  13.854  12.392  0.00  0.00    -0.264 OA
HETATM   17  N   UNK N   1      36.246  15.288  12.330  0.00  0.00    -0.271 N 
HETATM   18  H   UNK N   1      36.733  15.978  11.823  0.00  0.00     0.189 HD
BRANCH  17  19
HETATM   19  N   UNK N   1      36.699  14.924  13.589  0.00  0.00    -0.342 N 
HETATM   20  H   UNK N   1      37.588  14.435  13.691  0.00  0.00     0.176 HD
HETATM   21  H   UNK N   1      36.142  15.146  14.414  0.00  0.00     0.176 HD
ENDBRANCH  17  19
ENDBRANCH  14  15
TORSDOF 2
ENDMDL
MODEL 8
REMARK VINA RESULT:      -6.1     16.773     18.235
REMARK  2 active torsions:
REMARK  status: ('A' for Active; 'I' for Inactive)
REMARK    1  A    between atoms: C_14  and  C_15 
REMARK       I    between atoms: C_15  and  N_17 
REMARK    2  A    between atoms: N_17  and  N_18 
ROOT
HETATM    1  C   UNK N   1      42.465  21.963   1.293  0.00  0.00     0.133 A 
HETATM    2  N   UNK N   1      41.453  22.335   0.492  0.00  0.00    -0.316 N 
HETATM    3  C   UNK N   1      40.654  21.581  -0.305  0.00  0.00     0.099 A 
HETATM    4  C   UNK N   1      39.645  22.227  -1.046  0.00  0.00     0.030 A 
HETATM    5  C   UNK N   1      39.495  23.626  -0.938  0.00  0.00    -0.021 A 
HETATM    6  C   UNK N   1      38.499  24.293  -1.656  0.00  0.00     0.012 A 
HETATM    7  C   UNK N   1      38.361  25.683  -1.536  0.00  0.00     0.001 A 
HETATM    8  C   UNK N   1      39.218  26.408  -0.700  0.00  0.00     0.001 A 
HETATM    9  C   UNK N   1      40.216  25.751   0.023  0.00  0.00     0.016 A 
HETATM   10  C   UNK N   1      40.356  24.365  -0.094  0.00  0.00     0.019 A 
HETATM   11  C   UNK N   1      41.329  23.666   0.608  0.00  0.00     0.123 A 
HETATM   12  N   UNK N   1      42.226  24.192   1.457  0.00  0.00    -0.336 N 
ATOM     13  HN  UNK N   1      42.342  25.172   1.716  1.00  0.00     0.168 HD
HETATM   14  C   UNK N   1      42.938  23.130   1.890  0.00  0.00     0.120 A 
ENDROOT
BRANCH  14  15
HETATM   15  C   UNK N   1      44.031  23.252   2.863  0.00  0.00     0.287 C 
HETATM   16  O   UNK N   1      44.375  24.351   3.272  0.00  0.00    -0.264 OA
HETATM   17  N   UNK N   1      44.658  22.131   3.292  0.00  0.00    -0.271 N 
HETATM   18  H   UNK N   1      44.368  21.254   2.952  0.00  0.00     0.189 HD
BRANCH  17  19
HETATM   19  N   UNK N   1      45.703  22.193   4.202  0.00  0.00    -0.342 N 
HETATM   20  H   UNK N   1      46.002  21.351   4.695  0.00  0.00     0.176 HD
HETATM   21  H   UNK N   1      46.172  23.081   4.380  0.00  0.00     0.176 HD
ENDBRANCH  17  19
ENDBRANCH  14  15
TORSDOF 2
ENDMDL
MODEL 9
REMARK VINA RESULT:      -6.1      9.621     12.025
REMARK  2 active torsions:
REMARK  status: ('A' for Active; 'I' for Inactive)
REMARK    1  A    between atoms: C_14  and  C_15 
REMARK       I    between atoms: C_15  and  N_17 
REMARK    2  A    between atoms: N_17  and  N_18 
ROOT
HETATM    1  C   UNK N   1      27.124  19.325   5.424  0.00  0.00     0.133 A 
HETATM    2  N   UNK N   1      28.032  18.335   5.446  0.00  0.00    -0.316 N 
HETATM    3  C   UNK N   1      28.348  17.425   4.490  0.00  0.00     0.099 A 
HETATM    4  C   UNK N   1      29.361  16.487   4.768  0.00  0.00     0.030 A 
HETATM    5  C   UNK N   1      30.013  16.520   6.018  0.00  0.00    -0.021 A 
HETATM    6  C   UNK N   1      31.026  15.605   6.320  0.00  0.00     0.012 A 
HETATM    7  C   UNK N   1      31.664  15.654   7.566  0.00  0.00     0.001 A 
HETATM    8  C   UNK N   1      31.293  16.615   8.514  0.00  0.00     0.001 A 
HETATM    9  C   UNK N   1      30.282  17.533   8.224  0.00  0.00     0.016 A 
HETATM   10  C   UNK N   1      29.643  17.489   6.980  0.00  0.00     0.019 A 
HETATM   11  C   UNK N   1      28.637  18.384   6.643  0.00  0.00     0.123 A 
HETATM   12  N   UNK N   1      28.160  19.371   7.418  0.00  0.00    -0.336 N 
ATOM     13  HN  UNK N   1      28.448  19.617   8.366  1.00  0.00     0.168 HD
HETATM   14  C   UNK N   1      27.214  19.964   6.659  0.00  0.00     0.120 A 
ENDROOT
BRANCH  14  15
HETATM   15  C   UNK N   1      26.438  21.122   7.121  0.00  0.00     0.287 C 
HETATM   16  O   UNK N   1      26.255  22.078   6.382  0.00  0.00    -0.264 OA
HETATM   17  N   UNK N   1      25.936  21.119   8.378  0.00  0.00    -0.271 N 
HETATM   18  H   UNK N   1      26.094  20.339   8.959  0.00  0.00     0.189 HD
BRANCH  17  19
HETATM   19  N   UNK N   1      25.205  22.192   8.866  0.00  0.00    -0.342 N 
HETATM   20  H   UNK N   1      25.613  23.126   8.872  0.00  0.00     0.176 HD
HETATM   21  H   UNK N   1      24.260  22.045   9.218  0.00  0.00     0.176 HD
ENDBRANCH  17  19
ENDBRANCH  14  15
TORSDOF 2
ENDMDL
