REMARK  2 active torsions:
REMARK  status: ('A' for Active; 'I' for Inactive)
REMARK    1  A    between atoms: C_14  and  C_15 
REMARK       I    between atoms: C_15  and  N_17 
REMARK    2  A    between atoms: N_17  and  N_18 
ROOT
HETATM    1  C   UNK N   1      -1.224  -0.802  -0.013  0.00  0.00     0.133 A 
HETATM    2  N   UNK N   1       0.076  -1.141  -0.004  0.00  0.00    -0.316 N 
HETATM    3  C   UNK N   1       0.653  -2.370  -0.010  0.00  0.00     0.099 A 
HETATM    4  C   UNK N   1       2.059  -2.449  -0.008  0.00  0.00     0.030 A 
HETATM    5  C   UNK N   1       2.820  -1.261  -0.002  0.00  0.00    -0.021 A 
HETATM    6  C   UNK N   1       4.217  -1.309  -0.006  0.00  0.00     0.012 A 
HETATM    7  C   UNK N   1       4.958  -0.119  -0.002  0.00  0.00     0.001 A 
HETATM    8  C   UNK N   1       4.306   1.120   0.007  0.00  0.00     0.001 A 
HETATM    9  C   UNK N   1       2.911   1.179   0.011  0.00  0.00     0.016 A 
HETATM   10  C   UNK N   1       2.168  -0.006   0.006  0.00  0.00     0.019 A 
HETATM   11  C   UNK N   1       0.780   0.001   0.004  0.00  0.00     0.123 A 
HETATM   12  N   UNK N   1      -0.008   1.089   0.003  0.00  0.00    -0.336 N 
ATOM     13  HN  UNK N   1       0.278   2.068   0.010  1.00  0.00     0.168 HD
HETATM   14  C   UNK N   1      -1.263   0.591  -0.010  0.00  0.00     0.120 A 
ENDROOT
BRANCH  14  15
HETATM   15  C   UNK N   1      -2.455   1.448  -0.032  0.00  0.00     0.287 C 
HETATM   16  O   UNK N   1      -3.572   0.953  -0.057  0.00  0.00    -0.264 OA
HETATM   17  N   UNK N   1      -2.299   2.793  -0.032  0.00  0.00    -0.271 N 
HETATM   18  H   UNK N   1      -1.391   3.174  -0.011  0.00  0.00     0.189 HD
BRANCH  17  19
HETATM   19  N   UNK N   1      -3.392   3.646  -0.062  0.00  0.00    -0.342 N 
HETATM   20  H   UNK N   1      -3.251   4.656  -0.083  0.00  0.00     0.176 HD
HETATM   21  H   UNK N   1      -4.337   3.263  -0.062  0.00  0.00     0.176 HD
ENDBRANCH  17  19
ENDBRANCH  14  15
TORSDOF 2
