REMARK  11 active torsions:
REMARK  status: ('A' for Active; 'I' for Inactive)
REMARK    1  A    between atoms: C_1  and  C_4 
REMARK    2  A    between atoms: C_1  and  C_8 
REMARK    3  A    between atoms: C_2  and  C_3 
REMARK    4  A    between atoms: C_2  and  C_7 
REMARK    5  A    between atoms: C_3  and  C_6 
REMARK    6  A    between atoms: C_4  and  C_5 
REMARK    7  A    between atoms: C_5  and  C_7 
REMARK    8  A    between atoms: C_6  and  P_9 
REMARK    9  A    between atoms: C_7  and  O_14 
REMARK   10  A    between atoms: C_8  and  O_17 
REMARK   11  A    between atoms: P_9  and  O_10 
ROOT
HETATM    1  C   UNK N   1       0.787  -0.291   0.082  0.00  0.00     0.132 C 
ENDROOT
BRANCH   1   2
HETATM    2  C   UNK N   1      -0.632   0.300  -0.183  0.00  0.00     0.081 C 
HETATM    3  C   UNK N   1      -0.600   1.342  -1.295  0.00  0.00     0.020 C 
BRANCH   2   4
HETATM    4  C   UNK N   1      -1.654  -0.756  -0.570  0.00  0.00     0.141 C 
HETATM    5  O   UNK N   1      -1.337  -1.931  -0.658  0.00  0.00    -0.297 OA
BRANCH   4   6
HETATM    6  C   UNK N   1      -3.066  -0.358  -0.906  0.00  0.00     0.169 C 
BRANCH   6   7
HETATM    7  P   UNK N   1      -4.039   0.096   0.615  0.00  0.00     0.096 P 
HETATM    8  O   UNK N   1      -4.578  -1.338   0.868  0.00  0.00    -0.675 OA
HETATM    9  H   UNK N   1      -4.252  -0.050  -0.816  0.00  0.00     0.120 HD
BRANCH   7  10
HETATM   10  O   UNK N   1      -5.564   0.730   0.082  0.00  0.00    -0.351 OA
HETATM   11  H   UNK N   1      -5.683   1.645  -0.216  0.00  0.00     0.217 HD
ENDBRANCH   7  10
ENDBRANCH   6   7
ENDBRANCH   4   6
ENDBRANCH   2   4
ENDBRANCH   1   2
BRANCH   1  12
HETATM   12  C   UNK N   1       1.813   0.747   0.619  0.00  0.00     0.011 C 
HETATM   13  C   UNK N   1       2.109   1.873  -0.363  0.00  0.00     0.012 C 
BRANCH  12  14
HETATM   14  C   UNK N   1       3.127   0.112   1.128  0.00  0.00     0.013 C 
BRANCH  14  15
HETATM   15  C   UNK N   1       4.087  -0.543   0.122  0.00  0.00     0.005 C 
HETATM   16  C   UNK N   1       4.674   0.481  -0.838  0.00  0.00     0.012 C 
BRANCH  15  17
HETATM   17  C   UNK N   1       5.222  -1.177   0.913  0.00  0.00     0.168 C 
BRANCH  17  18
HETATM   18  O   UNK N   1       6.110  -1.841   0.063  0.00  0.00    -0.400 OA
HETATM   19  H   UNK N   1       6.020  -2.605  -0.527  0.00  0.00     0.209 HD
ENDBRANCH  17  18
ENDBRANCH  15  17
ENDBRANCH  14  15
ENDBRANCH  12  14
ENDBRANCH   1  12
BRANCH   1  20
HETATM   20  O   UNK N   1       1.268  -0.902  -1.080  0.00  0.00    -0.394 OA
HETATM   21  H   UNK N   1       1.068  -1.403  -1.886  0.00  0.00     0.210 HD
ENDBRANCH   1  20
TORSDOF 11
