MODEL 1
REMARK VINA RESULT:      -5.5      0.000      0.000
REMARK  11 active torsions:
REMARK  status: ('A' for Active; 'I' for Inactive)
REMARK    1  A    between atoms: C_1  and  C_4 
REMARK    2  A    between atoms: C_1  and  C_8 
REMARK    3  A    between atoms: C_2  and  C_3 
REMARK    4  A    between atoms: C_2  and  C_7 
REMARK    5  A    between atoms: C_3  and  C_6 
REMARK    6  A    between atoms: C_4  and  C_5 
REMARK    7  A    between atoms: C_5  and  C_7 
REMARK    8  A    between atoms: C_6  and  P_9 
REMARK    9  A    between atoms: C_7  and  O_14 
REMARK   10  A    between atoms: C_8  and  O_17 
REMARK   11  A    between atoms: P_9  and  O_10 
ROOT
HETATM    1  C   UNK N   1      28.396  17.385   8.154  0.00  0.00     0.132 C 
ENDROOT
BRANCH   1   2
HETATM    2  C   UNK N   1      29.755  18.106   8.410  0.00  0.00     0.081 C 
HETATM    3  C   UNK N   1      29.799  18.731   9.800  0.00  0.00     0.020 C 
BRANCH   2   4
HETATM    4  C   UNK N   1      30.954  17.180   8.283  0.00  0.00     0.141 C 
HETATM    5  O   UNK N   1      31.124  16.266   9.072  0.00  0.00    -0.297 OA
BRANCH   4   6
HETATM    6  C   UNK N   1      31.982  17.413   7.208  0.00  0.00     0.169 C 
BRANCH   6   7
HETATM    7  P   UNK N   1      33.595  18.021   7.912  0.00  0.00     0.096 P 
HETATM    8  O   UNK N   1      34.402  17.823   6.601  0.00  0.00    -0.675 OA
HETATM    9  H   UNK N   1      32.899  16.762   7.703  0.00  0.00     0.120 HD
BRANCH   7  10
HETATM   10  O   UNK N   1      34.334  16.685   8.738  0.00  0.00    -0.351 OA
HETATM   11  H   UNK N   1      34.089  15.761   8.577  0.00  0.00     0.217 HD
ENDBRANCH   7  10
ENDBRANCH   6   7
ENDBRANCH   4   6
ENDBRANCH   2   4
ENDBRANCH   1   2
BRANCH   1  12
HETATM   12  C   UNK N   1      27.791  17.660   6.747  0.00  0.00     0.011 C 
HETATM   13  C   UNK N   1      28.116  16.579   5.725  0.00  0.00     0.012 C 
BRANCH  12  14
HETATM   14  C   UNK N   1      28.137  19.058   6.187  0.00  0.00     0.013 C 
BRANCH  14  15
HETATM   15  C   UNK N   1      27.001  20.034   5.842  0.00  0.00     0.005 C 
HETATM   16  C   UNK N   1      27.312  21.445   6.318  0.00  0.00     0.012 C 
BRANCH  15  17
HETATM   17  C   UNK N   1      26.852  20.052   4.327  0.00  0.00     0.168 C 
BRANCH  17  18
HETATM   18  O   UNK N   1      28.029  19.622   3.707  0.00  0.00    -0.400 OA
HETATM   19  H   UNK N   1      28.583  19.993   3.004  0.00  0.00     0.209 HD
ENDBRANCH  17  18
ENDBRANCH  15  17
ENDBRANCH  14  15
ENDBRANCH  12  14
ENDBRANCH   1  12
BRANCH   1  20
HETATM   20  O   UNK N   1      27.484  17.728   9.156  0.00  0.00    -0.394 OA
HETATM   21  H   UNK N   1      27.341  17.996  10.077  0.00  0.00     0.210 HD
ENDBRANCH   1  20
TORSDOF 11
ENDMDL
MODEL 2
REMARK VINA RESULT:      -5.4      6.002      9.453
REMARK  11 active torsions:
REMARK  status: ('A' for Active; 'I' for Inactive)
REMARK    1  A    between atoms: C_1  and  C_4 
REMARK    2  A    between atoms: C_1  and  C_8 
REMARK    3  A    between atoms: C_2  and  C_3 
REMARK    4  A    between atoms: C_2  and  C_7 
REMARK    5  A    between atoms: C_3  and  C_6 
REMARK    6  A    between atoms: C_4  and  C_5 
REMARK    7  A    between atoms: C_5  and  C_7 
REMARK    8  A    between atoms: C_6  and  P_9 
REMARK    9  A    between atoms: C_7  and  O_14 
REMARK   10  A    between atoms: C_8  and  O_17 
REMARK   11  A    between atoms: P_9  and  O_10 
ROOT
HETATM    1  C   UNK N   1      34.789  13.891  11.171  0.00  0.00     0.132 C 
ENDROOT
BRANCH   1   2
HETATM    2  C   UNK N   1      34.375  15.375  10.928  0.00  0.00     0.081 C 
HETATM    3  C   UNK N   1      35.551  16.321  11.147  0.00  0.00     0.020 C 
BRANCH   2   4
HETATM    4  C   UNK N   1      33.839  15.623   9.528  0.00  0.00     0.141 C 
HETATM    5  O   UNK N   1      32.729  15.232   9.206  0.00  0.00    -0.297 OA
BRANCH   4   6
HETATM    6  C   UNK N   1      34.695  16.309   8.498  0.00  0.00     0.169 C 
BRANCH   6   7
HETATM    7  P   UNK N   1      34.043  17.999   8.069  0.00  0.00     0.096 P 
HETATM    8  O   UNK N   1      34.444  17.926   6.571  0.00  0.00    -0.675 OA
HETATM    9  H   UNK N   1      35.298  17.378   8.460  0.00  0.00     0.120 HD
BRANCH   7  10
HETATM   10  O   UNK N   1      35.272  19.149   8.490  0.00  0.00    -0.351 OA
HETATM   11  H   UNK N   1      35.800  19.626   7.831  0.00  0.00     0.217 HD
ENDBRANCH   7  10
ENDBRANCH   6   7
ENDBRANCH   4   6
ENDBRANCH   2   4
ENDBRANCH   1   2
BRANCH   1  12
HETATM   12  C   UNK N   1      36.310  13.622  10.990  0.00  0.00     0.011 C 
HETATM   13  C   UNK N   1      36.631  12.712   9.811  0.00  0.00     0.012 C 
BRANCH  12  14
HETATM   14  C   UNK N   1      37.005  13.112  12.273  0.00  0.00     0.013 C 
BRANCH  14  15
HETATM   15  C   UNK N   1      36.224  13.092  13.597  0.00  0.00     0.005 C 
HETATM   16  C   UNK N   1      36.619  11.904  14.461  0.00  0.00     0.012 C 
BRANCH  15  17
HETATM   17  C   UNK N   1      36.556  14.374  14.347  0.00  0.00     0.168 C 
BRANCH  17  18
HETATM   18  O   UNK N   1      37.557  14.149  15.296  0.00  0.00    -0.400 OA
HETATM   19  H   UNK N   1      38.410  13.690  15.266  0.00  0.00     0.209 HD
ENDBRANCH  17  18
ENDBRANCH  15  17
ENDBRANCH  14  15
ENDBRANCH  12  14
ENDBRANCH   1  12
BRANCH   1  20
HETATM   20  O   UNK N   1      34.039  13.051  10.342  0.00  0.00    -0.394 OA
HETATM   21  H   UNK N   1      33.838  12.146  10.058  0.00  0.00     0.210 HD
ENDBRANCH   1  20
TORSDOF 11
ENDMDL
MODEL 3
REMARK VINA RESULT:      -5.4      3.529      4.808
REMARK  11 active torsions:
REMARK  status: ('A' for Active; 'I' for Inactive)
REMARK    1  A    between atoms: C_1  and  C_4 
REMARK    2  A    between atoms: C_1  and  C_8 
REMARK    3  A    between atoms: C_2  and  C_3 
REMARK    4  A    between atoms: C_2  and  C_7 
REMARK    5  A    between atoms: C_3  and  C_6 
REMARK    6  A    between atoms: C_4  and  C_5 
REMARK    7  A    between atoms: C_5  and  C_7 
REMARK    8  A    between atoms: C_6  and  P_9 
REMARK    9  A    between atoms: C_7  and  O_14 
REMARK   10  A    between atoms: C_8  and  O_17 
REMARK   11  A    between atoms: P_9  and  O_10 
ROOT
HETATM    1  C   UNK N   1      32.661  16.383   8.150  0.00  0.00     0.132 C 
ENDROOT
BRANCH   1   2
HETATM    2  C   UNK N   1      34.134  16.898   8.153  0.00  0.00     0.081 C 
HETATM    3  C   UNK N   1      34.189  18.418   8.062  0.00  0.00     0.020 C 
BRANCH   2   4
HETATM    4  C   UNK N   1      34.907  16.481   9.393  0.00  0.00     0.141 C 
HETATM    5  O   UNK N   1      35.000  17.228  10.353  0.00  0.00    -0.297 OA
BRANCH   4   6
HETATM    6  C   UNK N   1      35.621  15.157   9.432  0.00  0.00     0.169 C 
BRANCH   6   7
HETATM    7  P   UNK N   1      34.875  14.004  10.689  0.00  0.00     0.096 P 
HETATM    8  O   UNK N   1      34.060  13.181   9.656  0.00  0.00    -0.675 OA
HETATM    9  H   UNK N   1      34.538  15.242  10.005  0.00  0.00     0.120 HD
BRANCH   7  10
HETATM   10  O   UNK N   1      33.489  14.802  11.362  0.00  0.00    -0.351 OA
HETATM   11  H   UNK N   1      33.440  15.762  11.493  0.00  0.00     0.217 HD
ENDBRANCH   7  10
ENDBRANCH   6   7
ENDBRANCH   4   6
ENDBRANCH   2   4
ENDBRANCH   1   2
BRANCH   1  12
HETATM   12  C   UNK N   1      31.688  17.257   7.309  0.00  0.00     0.011 C 
HETATM   13  C   UNK N   1      30.408  17.623   8.048  0.00  0.00     0.012 C 
BRANCH  12  14
HETATM   14  C   UNK N   1      31.362  16.661   5.921  0.00  0.00     0.013 C 
BRANCH  14  15
HETATM   15  C   UNK N   1      31.727  17.452   4.655  0.00  0.00     0.005 C 
HETATM   16  C   UNK N   1      33.232  17.637   4.527  0.00  0.00     0.012 C 
BRANCH  15  17
HETATM   17  C   UNK N   1      31.229  16.660   3.456  0.00  0.00     0.168 C 
BRANCH  17  18
HETATM   18  O   UNK N   1      31.768  17.163   2.269  0.00  0.00    -0.400 OA
HETATM   19  H   UNK N   1      32.539  17.717   2.071  0.00  0.00     0.209 HD
ENDBRANCH  17  18
ENDBRANCH  15  17
ENDBRANCH  14  15
ENDBRANCH  12  14
ENDBRANCH   1  12
BRANCH   1  20
HETATM   20  O   UNK N   1      32.202  16.260   9.464  0.00  0.00    -0.394 OA
HETATM   21  H   UNK N   1      31.443  16.229  10.068  0.00  0.00     0.210 HD
ENDBRANCH   1  20
TORSDOF 11
ENDMDL
MODEL 4
REMARK VINA RESULT:      -5.4     11.669     14.656
REMARK  11 active torsions:
REMARK  status: ('A' for Active; 'I' for Inactive)
REMARK    1  A    between atoms: C_1  and  C_4 
REMARK    2  A    between atoms: C_1  and  C_8 
REMARK    3  A    between atoms: C_2  and  C_3 
REMARK    4  A    between atoms: C_2  and  C_7 
REMARK    5  A    between atoms: C_3  and  C_6 
REMARK    6  A    between atoms: C_4  and  C_5 
REMARK    7  A    between atoms: C_5  and  C_7 
REMARK    8  A    between atoms: C_6  and  P_9 
REMARK    9  A    between atoms: C_7  and  O_14 
REMARK   10  A    between atoms: C_8  and  O_17 
REMARK   11  A    between atoms: P_9  and  O_10 
ROOT
HETATM    1  C   UNK N   1      27.197  25.125  -3.578  0.00  0.00     0.132 C 
ENDROOT
BRANCH   1   2
HETATM    2  C   UNK N   1      26.439  25.438  -4.905  0.00  0.00     0.081 C 
HETATM    3  C   UNK N   1      25.581  24.258  -5.345  0.00  0.00     0.020 C 
BRANCH   2   4
HETATM    4  C   UNK N   1      25.533  26.654  -4.800  0.00  0.00     0.141 C 
HETATM    5  O   UNK N   1      24.686  26.878  -5.650  0.00  0.00    -0.297 OA
BRANCH   4   6
HETATM    6  C   UNK N   1      25.704  27.633  -3.670  0.00  0.00     0.169 C 
BRANCH   6   7
HETATM    7  P   UNK N   1      26.772  29.077  -4.160  0.00  0.00     0.096 P 
HETATM    8  O   UNK N   1      27.752  28.937  -2.963  0.00  0.00    -0.675 OA
HETATM    9  H   UNK N   1      25.637  28.801  -3.295  0.00  0.00     0.120 HD
BRANCH   7  10
HETATM   10  O   UNK N   1      26.009  30.512  -3.553  0.00  0.00    -0.351 OA
HETATM   11  H   UNK N   1      25.355  31.019  -4.059  0.00  0.00     0.217 HD
ENDBRANCH   7  10
ENDBRANCH   6   7
ENDBRANCH   4   6
ENDBRANCH   2   4
ENDBRANCH   1   2
BRANCH   1  12
HETATM   12  C   UNK N   1      28.724  24.894  -3.763  0.00  0.00     0.011 C 
HETATM   13  C   UNK N   1      29.427  26.031  -4.493  0.00  0.00     0.012 C 
BRANCH  12  14
HETATM   14  C   UNK N   1      29.070  23.536  -4.414  0.00  0.00     0.013 C 
BRANCH  14  15
HETATM   15  C   UNK N   1      29.734  22.440  -3.566  0.00  0.00     0.005 C 
HETATM   16  C   UNK N   1      30.385  21.376  -4.437  0.00  0.00     0.012 C 
BRANCH  15  17
HETATM   17  C   UNK N   1      30.810  23.102  -2.717  0.00  0.00     0.168 C 
BRANCH  17  18
HETATM   18  O   UNK N   1      30.494  23.018  -1.359  0.00  0.00    -0.400 OA
HETATM   19  H   UNK N   1      29.663  23.090  -0.864  0.00  0.00     0.209 HD
ENDBRANCH  17  18
ENDBRANCH  15  17
ENDBRANCH  14  15
ENDBRANCH  12  14
ENDBRANCH   1  12
BRANCH   1  20
HETATM   20  O   UNK N   1      26.607  24.027  -2.945  0.00  0.00    -0.394 OA
HETATM   21  H   UNK N   1      26.637  23.077  -2.754  0.00  0.00     0.210 HD
ENDBRANCH   1  20
TORSDOF 11
ENDMDL
MODEL 5
REMARK VINA RESULT:      -5.3      8.549     11.412
REMARK  11 active torsions:
REMARK  status: ('A' for Active; 'I' for Inactive)
REMARK    1  A    between atoms: C_1  and  C_4 
REMARK    2  A    between atoms: C_1  and  C_8 
REMARK    3  A    between atoms: C_2  and  C_3 
REMARK    4  A    between atoms: C_2  and  C_7 
REMARK    5  A    between atoms: C_3  and  C_6 
REMARK    6  A    between atoms: C_4  and  C_5 
REMARK    7  A    between atoms: C_5  and  C_7 
REMARK    8  A    between atoms: C_6  and  P_9 
REMARK    9  A    between atoms: C_7  and  O_14 
REMARK   10  A    between atoms: C_8  and  O_17 
REMARK   11  A    between atoms: P_9  and  O_10 
ROOT
HETATM    1  C   UNK N   1      34.932  12.812  13.357  0.00  0.00     0.132 C 
ENDROOT
BRANCH   1   2
HETATM    2  C   UNK N   1      36.422  13.161  13.055  0.00  0.00     0.081 C 
HETATM    3  C   UNK N   1      37.322  11.942  13.224  0.00  0.00     0.020 C 
BRANCH   2   4
HETATM    4  C   UNK N   1      36.634  13.699  11.650  0.00  0.00     0.141 C 
HETATM    5  O   UNK N   1      37.050  12.976  10.759  0.00  0.00    -0.297 OA
BRANCH   4   6
HETATM    6  C   UNK N   1      36.387  15.153  11.349  0.00  0.00     0.169 C 
BRANCH   6   7
HETATM    7  P   UNK N   1      34.896  15.391  10.259  0.00  0.00     0.096 P 
HETATM    8  O   UNK N   1      34.812  16.927  10.474  0.00  0.00    -0.675 OA
HETATM    9  H   UNK N   1      35.200  15.187  11.667  0.00  0.00     0.120 HD
BRANCH   7  10
HETATM   10  O   UNK N   1      33.494  15.036  11.218  0.00  0.00    -0.351 OA
HETATM   11  H   UNK N   1      33.438  15.227  12.167  0.00  0.00     0.217 HD
ENDBRANCH   7  10
ENDBRANCH   6   7
ENDBRANCH   4   6
ENDBRANCH   2   4
ENDBRANCH   1   2
BRANCH   1  12
HETATM   12  C   UNK N   1      34.733  11.943  14.631  0.00  0.00     0.011 C 
HETATM   13  C   UNK N   1      33.694  10.842  14.460  0.00  0.00     0.012 C 
BRANCH  12  14
HETATM   14  C   UNK N   1      34.442  12.769  15.905  0.00  0.00     0.013 C 
BRANCH  14  15
HETATM   15  C   UNK N   1      35.468  12.776  17.050  0.00  0.00     0.005 C 
HETATM   16  C   UNK N   1      35.215  13.921  18.019  0.00  0.00     0.012 C 
BRANCH  15  17
HETATM   17  C   UNK N   1      35.327  11.460  17.802  0.00  0.00     0.168 C 
BRANCH  17  18
HETATM   18  O   UNK N   1      35.267  11.680  19.180  0.00  0.00    -0.400 OA
HETATM   19  H   UNK N   1      34.761  11.268  19.898  0.00  0.00     0.209 HD
ENDBRANCH  17  18
ENDBRANCH  15  17
ENDBRANCH  14  15
ENDBRANCH  12  14
ENDBRANCH   1  12
BRANCH   1  20
HETATM   20  O   UNK N   1      34.358  12.191  12.244  0.00  0.00    -0.394 OA
HETATM   21  H   UNK N   1      33.855  11.439  11.892  0.00  0.00     0.210 HD
ENDBRANCH   1  20
TORSDOF 11
ENDMDL
MODEL 6
REMARK VINA RESULT:      -5.3     11.073     12.110
REMARK  11 active torsions:
REMARK  status: ('A' for Active; 'I' for Inactive)
REMARK    1  A    between atoms: C_1  and  C_4 
REMARK    2  A    between atoms: C_1  and  C_8 
REMARK    3  A    between atoms: C_2  and  C_3 
REMARK    4  A    between atoms: C_2  and  C_7 
REMARK    5  A    between atoms: C_3  and  C_6 
REMARK    6  A    between atoms: C_4  and  C_5 
REMARK    7  A    between atoms: C_5  and  C_7 
REMARK    8  A    between atoms: C_6  and  P_9 
REMARK    9  A    between atoms: C_7  and  O_14 
REMARK   10  A    between atoms: C_8  and  O_17 
REMARK   11  A    between atoms: P_9  and  O_10 
ROOT
HETATM    1  C   UNK N   1      30.122  22.624  -2.957  0.00  0.00     0.132 C 
ENDROOT
BRANCH   1   2
HETATM    2  C   UNK N   1      30.855  21.301  -3.336  0.00  0.00     0.081 C 
HETATM    3  C   UNK N   1      30.643  20.950  -4.804  0.00  0.00     0.020 C 
BRANCH   2   4
HETATM    4  C   UNK N   1      32.354  21.357  -3.088  0.00  0.00     0.141 C 
HETATM    5  O   UNK N   1      32.799  21.383  -1.952  0.00  0.00    -0.297 OA
BRANCH   4   6
HETATM    6  C   UNK N   1      33.312  21.439  -4.245  0.00  0.00     0.169 C 
BRANCH   6   7
HETATM    7  P   UNK N   1      34.288  19.867  -4.450  0.00  0.00     0.096 P 
HETATM    8  O   UNK N   1      33.740  19.546  -5.866  0.00  0.00    -0.675 OA
HETATM    9  H   UNK N   1      32.967  20.284  -4.006  0.00  0.00     0.120 HD
BRANCH   7  10
HETATM   10  O   UNK N   1      33.399  18.601  -3.663  0.00  0.00    -0.351 OA
HETATM   11  H   UNK N   1      33.729  18.126  -2.884  0.00  0.00     0.217 HD
ENDBRANCH   7  10
ENDBRANCH   6   7
ENDBRANCH   4   6
ENDBRANCH   2   4
ENDBRANCH   1   2
BRANCH   1  12
HETATM   12  C   UNK N   1      30.280  23.757  -4.010  0.00  0.00     0.011 C 
HETATM   13  C   UNK N   1      30.984  24.995  -3.470  0.00  0.00     0.012 C 
BRANCH  12  14
HETATM   14  C   UNK N   1      28.955  24.146  -4.703  0.00  0.00     0.013 C 
BRANCH  14  15
HETATM   15  C   UNK N   1      28.077  25.248  -4.088  0.00  0.00     0.005 C 
HETATM   16  C   UNK N   1      27.819  26.375  -5.078  0.00  0.00     0.012 C 
BRANCH  15  17
HETATM   17  C   UNK N   1      26.745  24.619  -3.708  0.00  0.00     0.168 C 
BRANCH  17  18
HETATM   18  O   UNK N   1      26.865  23.876  -2.531  0.00  0.00    -0.400 OA
HETATM   19  H   UNK N   1      27.625  23.563  -2.016  0.00  0.00     0.209 HD
ENDBRANCH  17  18
ENDBRANCH  15  17
ENDBRANCH  14  15
ENDBRANCH  12  14
ENDBRANCH   1  12
BRANCH   1  20
HETATM   20  O   UNK N   1      30.553  23.058  -1.699  0.00  0.00    -0.394 OA
HETATM   21  H   UNK N   1      30.426  23.665  -0.953  0.00  0.00     0.210 HD
ENDBRANCH   1  20
TORSDOF 11
ENDMDL
MODEL 7
REMARK VINA RESULT:      -5.2      3.239      4.715
REMARK  11 active torsions:
REMARK  status: ('A' for Active; 'I' for Inactive)
REMARK    1  A    between atoms: C_1  and  C_4 
REMARK    2  A    between atoms: C_1  and  C_8 
REMARK    3  A    between atoms: C_2  and  C_3 
REMARK    4  A    between atoms: C_2  and  C_7 
REMARK    5  A    between atoms: C_3  and  C_6 
REMARK    6  A    between atoms: C_4  and  C_5 
REMARK    7  A    between atoms: C_5  and  C_7 
REMARK    8  A    between atoms: C_6  and  P_9 
REMARK    9  A    between atoms: C_7  and  O_14 
REMARK   10  A    between atoms: C_8  and  O_17 
REMARK   11  A    between atoms: P_9  and  O_10 
ROOT
HETATM    1  C   UNK N   1      33.281  17.750   7.146  0.00  0.00     0.132 C 
ENDROOT
BRANCH   1   2
HETATM    2  C   UNK N   1      33.228  17.264   8.628  0.00  0.00     0.081 C 
HETATM    3  C   UNK N   1      32.488  15.938   8.750  0.00  0.00     0.020 C 
BRANCH   2   4
HETATM    4  C   UNK N   1      34.605  17.083   9.244  0.00  0.00     0.141 C 
HETATM    5  O   UNK N   1      35.299  18.048   9.522  0.00  0.00    -0.297 OA
BRANCH   4   6
HETATM    6  C   UNK N   1      35.159  15.702   9.471  0.00  0.00     0.169 C 
BRANCH   6   7
HETATM    7  P   UNK N   1      35.361  15.325  11.283  0.00  0.00     0.096 P 
HETATM    8  O   UNK N   1      36.389  14.180  11.073  0.00  0.00    -0.675 OA
HETATM    9  H   UNK N   1      34.576  14.861  10.151  0.00  0.00     0.120 HD
BRANCH   7  10
HETATM   10  O   UNK N   1      34.062  14.269  11.739  0.00  0.00    -0.351 OA
HETATM   11  H   UNK N   1      34.131  13.303  11.717  0.00  0.00     0.217 HD
ENDBRANCH   7  10
ENDBRANCH   6   7
ENDBRANCH   4   6
ENDBRANCH   2   4
ENDBRANCH   1   2
BRANCH   1  12
HETATM   12  C   UNK N   1      32.739  16.713   6.122  0.00  0.00     0.011 C 
HETATM   13  C   UNK N   1      33.810  16.162   5.190  0.00  0.00     0.012 C 
BRANCH  12  14
HETATM   14  C   UNK N   1      31.524  17.220   5.312  0.00  0.00     0.013 C 
BRANCH  14  15
HETATM   15  C   UNK N   1      30.115  16.728   5.679  0.00  0.00     0.005 C 
HETATM   16  C   UNK N   1      29.558  17.475   6.881  0.00  0.00     0.012 C 
BRANCH  15  17
HETATM   17  C   UNK N   1      29.211  16.985   4.482  0.00  0.00     0.168 C 
BRANCH  17  18
HETATM   18  O   UNK N   1      29.965  17.199   3.326  0.00  0.00    -0.400 OA
HETATM   19  H   UNK N   1      30.844  16.903   3.041  0.00  0.00     0.209 HD
ENDBRANCH  17  18
ENDBRANCH  15  17
ENDBRANCH  14  15
ENDBRANCH  12  14
ENDBRANCH   1  12
BRANCH   1  20
HETATM   20  O   UNK N   1      34.588  18.127   6.820  0.00  0.00    -0.394 OA
HETATM   21  H   UNK N   1      35.306  18.114   6.169  0.00  0.00     0.210 HD
ENDBRANCH   1  20
TORSDOF 11
ENDMDL
MODEL 8
REMARK VINA RESULT:      -5.1      5.234      6.886
REMARK  11 active torsions:
REMARK  status: ('A' for Active; 'I' for Inactive)
REMARK    1  A    between atoms: C_1  and  C_4 
REMARK    2  A    between atoms: C_1  and  C_8 
REMARK    3  A    between atoms: C_2  and  C_3 
REMARK    4  A    between atoms: C_2  and  C_7 
REMARK    5  A    between atoms: C_3  and  C_6 
REMARK    6  A    between atoms: C_4  and  C_5 
REMARK    7  A    between atoms: C_5  and  C_7 
REMARK    8  A    between atoms: C_6  and  P_9 
REMARK    9  A    between atoms: C_7  and  O_14 
REMARK   10  A    between atoms: C_8  and  O_17 
REMARK   11  A    between atoms: P_9  and  O_10 
ROOT
HETATM    1  C   UNK N   1      33.849  14.594   9.915  0.00  0.00     0.132 C 
ENDROOT
BRANCH   1   2
HETATM    2  C   UNK N   1      35.279  15.215   9.979  0.00  0.00     0.081 C 
HETATM    3  C   UNK N   1      35.328  16.398  10.938  0.00  0.00     0.020 C 
BRANCH   2   4
HETATM    4  C   UNK N   1      36.340  14.220  10.419  0.00  0.00     0.141 C 
HETATM    5  O   UNK N   1      37.526  14.452  10.245  0.00  0.00    -0.297 OA
BRANCH   4   6
HETATM    6  C   UNK N   1      35.940  12.904  11.029  0.00  0.00     0.169 C 
BRANCH   6   7
HETATM    7  P   UNK N   1      36.046  12.941  12.888  0.00  0.00     0.096 P 
HETATM    8  O   UNK N   1      34.639  13.564  13.094  0.00  0.00    -0.675 OA
HETATM    9  H   UNK N   1      36.299  13.824  11.761  0.00  0.00     0.120 HD
BRANCH   7  10
HETATM   10  O   UNK N   1      36.906  14.382  13.328  0.00  0.00    -0.351 OA
HETATM   11  H   UNK N   1      37.322  14.970  12.679  0.00  0.00     0.217 HD
ENDBRANCH   7  10
ENDBRANCH   6   7
ENDBRANCH   4   6
ENDBRANCH   2   4
ENDBRANCH   1   2
BRANCH   1  12
HETATM   12  C   UNK N   1      33.172  14.710   8.520  0.00  0.00     0.011 C 
HETATM   13  C   UNK N   1      34.006  14.123   7.389  0.00  0.00     0.012 C 
BRANCH  12  14
HETATM   14  C   UNK N   1      32.717  16.146   8.171  0.00  0.00     0.013 C 
BRANCH  14  15
HETATM   15  C   UNK N   1      33.664  17.065   7.383  0.00  0.00     0.005 C 
HETATM   16  C   UNK N   1      33.103  17.401   6.010  0.00  0.00     0.012 C 
BRANCH  15  17
HETATM   17  C   UNK N   1      33.819  18.355   8.175  0.00  0.00     0.168 C 
BRANCH  17  18
HETATM   18  O   UNK N   1      35.082  18.917   7.969  0.00  0.00    -0.400 OA
HETATM   19  H   UNK N   1      35.826  19.115   8.559  0.00  0.00     0.209 HD
ENDBRANCH  17  18
ENDBRANCH  15  17
ENDBRANCH  14  15
ENDBRANCH  12  14
ENDBRANCH   1  12
BRANCH   1  20
HETATM   20  O   UNK N   1      33.042  15.167  10.903  0.00  0.00    -0.394 OA
HETATM   21  H   UNK N   1      32.224  15.121  11.422  0.00  0.00     0.210 HD
ENDBRANCH   1  20
TORSDOF 11
ENDMDL
MODEL 9
REMARK VINA RESULT:      -5.1      2.172      4.128
REMARK  11 active torsions:
REMARK  status: ('A' for Active; 'I' for Inactive)
REMARK    1  A    between atoms: C_1  and  C_4 
REMARK    2  A    between atoms: C_1  and  C_8 
REMARK    3  A    between atoms: C_2  and  C_3 
REMARK    4  A    between atoms: C_2  and  C_7 
REMARK    5  A    between atoms: C_3  and  C_6 
REMARK    6  A    between atoms: C_4  and  C_5 
REMARK    7  A    between atoms: C_5  and  C_7 
REMARK    8  A    between atoms: C_6  and  P_9 
REMARK    9  A    between atoms: C_7  and  O_14 
REMARK   10  A    between atoms: C_8  and  O_17 
REMARK   11  A    between atoms: P_9  and  O_10 
ROOT
HETATM    1  C   UNK N   1      31.188  17.474   5.021  0.00  0.00     0.132 C 
ENDROOT
BRANCH   1   2
HETATM    2  C   UNK N   1      32.272  16.603   5.727  0.00  0.00     0.081 C 
HETATM    3  C   UNK N   1      33.070  15.785   4.718  0.00  0.00     0.020 C 
BRANCH   2   4
HETATM    4  C   UNK N   1      33.259  17.425   6.539  0.00  0.00     0.141 C 
HETATM    5  O   UNK N   1      34.200  17.984   6.000  0.00  0.00    -0.297 OA
BRANCH   4   6
HETATM    6  C   UNK N   1      33.122  17.514   8.035  0.00  0.00     0.169 C 
BRANCH   6   7
HETATM    7  P   UNK N   1      34.345  16.417   8.911  0.00  0.00     0.096 P 
HETATM    8  O   UNK N   1      33.273  15.462   9.504  0.00  0.00    -0.675 OA
HETATM    9  H   UNK N   1      33.510  17.572   9.200  0.00  0.00     0.120 HD
BRANCH   7  10
HETATM   10  O   UNK N   1      34.720  17.170  10.428  0.00  0.00    -0.351 OA
HETATM   11  H   UNK N   1      35.614  17.194  10.802  0.00  0.00     0.217 HD
ENDBRANCH   7  10
ENDBRANCH   6   7
ENDBRANCH   4   6
ENDBRANCH   2   4
ENDBRANCH   1   2
BRANCH   1  12
HETATM   12  C   UNK N   1      29.730  17.136   5.446  0.00  0.00     0.011 C 
HETATM   13  C   UNK N   1      28.750  17.099   4.281  0.00  0.00     0.012 C 
BRANCH  12  14
HETATM   14  C   UNK N   1      29.191  18.038   6.580  0.00  0.00     0.013 C 
BRANCH  14  15
HETATM   15  C   UNK N   1      29.277  17.552   8.035  0.00  0.00     0.005 C 
HETATM   16  C   UNK N   1      29.836  18.629   8.952  0.00  0.00     0.012 C 
BRANCH  15  17
HETATM   17  C   UNK N   1      27.867  17.207   8.491  0.00  0.00     0.168 C 
BRANCH  17  18
HETATM   18  O   UNK N   1      27.437  18.087   9.487  0.00  0.00    -0.400 OA
HETATM   19  H   UNK N   1      26.608  18.566   9.638  0.00  0.00     0.209 HD
ENDBRANCH  17  18
ENDBRANCH  15  17
ENDBRANCH  14  15
ENDBRANCH  12  14
ENDBRANCH   1  12
BRANCH   1  20
HETATM   20  O   UNK N   1      31.331  17.373   3.634  0.00  0.00    -0.394 OA
HETATM   21  H   UNK N   1      31.158  16.864   2.827  0.00  0.00     0.210 HD
ENDBRANCH   1  20
TORSDOF 11
ENDMDL
