MODEL 1
REMARK VINA RESULT:      -6.6      0.000      0.000
REMARK  6 active torsions:
REMARK  status: ('A' for Active; 'I' for Inactive)
REMARK    1  A    between atoms: O_8  and  C_7 
REMARK    2  A    between atoms: C_9  and  O_8 
REMARK    3  A    between atoms: C_9  and  C_10 
REMARK    4  A    between atoms: C_13  and  C_9 
REMARK    5  A    between atoms: C_10  and  O_11 
REMARK    6  A    between atoms: C_14  and  C_13 
ROOT
HETATM    1  C   UNK N   1      29.268  17.974   8.524  0.00  0.00     0.230 C 
ENDROOT
BRANCH   1   2
HETATM    2  O   UNK N   1      28.545  19.131   8.243  0.00  0.00    -0.335 OA
BRANCH   2   3
HETATM    3  C   UNK N   1      28.000  19.469   7.041  0.00  0.00     0.070 A 
HETATM    4  C   UNK N   1      28.281  18.689   5.913  0.00  0.00     0.038 A 
HETATM    5  C   UNK N   1      27.730  19.023   4.669  0.00  0.00     0.026 A 
HETATM    6  C   UNK N   1      26.915  20.153   4.545  0.00  0.00     0.034 A 
HETATM    7  C   UNK N   1      26.653  20.950   5.657  0.00  0.00     0.026 A 
HETATM    8 Cl   UNK N   1      26.214  20.573   2.996  0.00  0.00    -0.084 Cl
HETATM    9  C   UNK N   1      27.189  20.607   6.896  0.00  0.00     0.038 A 
ENDBRANCH   2   3
ENDBRANCH   1   2
BRANCH   1  10
HETATM   10  C   UNK N   1      28.671  17.172   9.656  0.00  0.00     0.170 C 
HETATM   11  O   UNK N   1      27.484  16.895   9.645  0.00  0.00    -0.648 OA
BRANCH  10  12
HETATM   12  O   UNK N   1      29.443  16.764  10.683  0.00  0.00    -0.774 OA
HETATM   13  H   UNK N   1      30.118  16.403  11.222  0.00  0.00     0.167 HD
ENDBRANCH  10  12
ENDBRANCH   1  10
BRANCH   1  14
HETATM   14  C   UNK N   1      30.715  18.385   8.850  0.00  0.00     0.082 C 
BRANCH  14  15
HETATM   15  C   UNK N   1      31.823  17.877   7.956  0.00  0.00    -0.055 A 
HETATM   16  C   UNK N   1      31.475  17.137   6.821  0.00  0.00     0.007 A 
HETATM   17  C   UNK N   1      32.463  16.692   5.935  0.00  0.00     0.001 A 
HETATM   18  C   UNK N   1      33.806  16.993   6.176  0.00  0.00     0.000 A 
HETATM   19  C   UNK N   1      34.164  17.726   7.309  0.00  0.00     0.001 A 
HETATM   20  C   UNK N   1      33.177  18.165   8.196  0.00  0.00     0.007 A 
ENDBRANCH  14  15
ENDBRANCH   1  14
TORSDOF 6
ENDMDL
MODEL 2
REMARK VINA RESULT:      -6.5      3.825      6.147
REMARK  6 active torsions:
REMARK  status: ('A' for Active; 'I' for Inactive)
REMARK    1  A    between atoms: O_8  and  C_7 
REMARK    2  A    between atoms: C_9  and  O_8 
REMARK    3  A    between atoms: C_9  and  C_10 
REMARK    4  A    between atoms: C_13  and  C_9 
REMARK    5  A    between atoms: C_10  and  O_11 
REMARK    6  A    between atoms: C_14  and  C_13 
ROOT
HETATM    1  C   UNK N   1      33.624  18.165   7.440  0.00  0.00     0.230 C 
ENDROOT
BRANCH   1   2
HETATM    2  O   UNK N   1      34.216  17.885   6.211  0.00  0.00    -0.335 OA
BRANCH   2   3
HETATM    3  C   UNK N   1      33.820  16.929   5.325  0.00  0.00     0.070 A 
HETATM    4  C   UNK N   1      34.374  15.646   5.401  0.00  0.00     0.038 A 
HETATM    5  C   UNK N   1      33.977  14.651   4.498  0.00  0.00     0.026 A 
HETATM    6  C   UNK N   1      33.043  14.945   3.498  0.00  0.00     0.034 A 
HETATM    7  C   UNK N   1      32.507  16.228   3.399  0.00  0.00     0.026 A 
HETATM    8 Cl   UNK N   1      32.535  13.706   2.371  0.00  0.00    -0.084 Cl
HETATM    9  C   UNK N   1      32.890  17.211   4.308  0.00  0.00     0.038 A 
ENDBRANCH   2   3
ENDBRANCH   1   2
BRANCH   1  10
HETATM   10  C   UNK N   1      34.633  18.332   8.552  0.00  0.00     0.170 C 
HETATM   11  O   UNK N   1      35.397  19.282   8.542  0.00  0.00    -0.648 OA
BRANCH  10  12
HETATM   12  O   UNK N   1      34.700  17.431   9.552  0.00  0.00    -0.774 OA
HETATM   13  H   UNK N   1      34.921  16.946  10.323  0.00  0.00     0.167 HD
ENDBRANCH  10  12
ENDBRANCH   1  10
BRANCH   1  14
HETATM   14  C   UNK N   1      32.640  17.027   7.764  0.00  0.00     0.082 C 
BRANCH  14  15
HETATM   15  C   UNK N   1      31.168  17.358   7.866  0.00  0.00    -0.055 A 
HETATM   16  C   UNK N   1      30.745  18.190   8.908  0.00  0.00     0.007 A 
HETATM   17  C   UNK N   1      29.402  18.568   9.013  0.00  0.00     0.001 A 
HETATM   18  C   UNK N   1      28.474  18.122   8.067  0.00  0.00     0.000 A 
HETATM   19  C   UNK N   1      28.885  17.287   7.027  0.00  0.00     0.001 A 
HETATM   20  C   UNK N   1      30.226  16.906   6.927  0.00  0.00     0.007 A 
ENDBRANCH  14  15
ENDBRANCH   1  14
TORSDOF 6
ENDMDL
MODEL 3
REMARK VINA RESULT:      -6.2     11.105     13.493
REMARK  6 active torsions:
REMARK  status: ('A' for Active; 'I' for Inactive)
REMARK    1  A    between atoms: O_8  and  C_7 
REMARK    2  A    between atoms: C_9  and  O_8 
REMARK    3  A    between atoms: C_9  and  C_10 
REMARK    4  A    between atoms: C_13  and  C_9 
REMARK    5  A    between atoms: C_10  and  O_11 
REMARK    6  A    between atoms: C_14  and  C_13 
ROOT
HETATM    1  C   UNK N   1      29.869  22.848  -3.751  0.00  0.00     0.230 C 
ENDROOT
BRANCH   1   2
HETATM    2  O   UNK N   1      29.653  24.223  -3.802  0.00  0.00    -0.335 OA
BRANCH   2   3
HETATM    3  C   UNK N   1      28.515  24.845  -4.221  0.00  0.00     0.070 A 
HETATM    4  C   UNK N   1      27.272  24.255  -3.962  0.00  0.00     0.038 A 
HETATM    5  C   UNK N   1      26.092  24.882  -4.386  0.00  0.00     0.026 A 
HETATM    6  C   UNK N   1      26.154  26.087  -5.094  0.00  0.00     0.034 A 
HETATM    7  C   UNK N   1      27.389  26.666  -5.379  0.00  0.00     0.026 A 
HETATM    8 Cl   UNK N   1      24.685  26.881  -5.620  0.00  0.00    -0.084 Cl
HETATM    9  C   UNK N   1      28.560  26.051  -4.942  0.00  0.00     0.038 A 
ENDBRANCH   2   3
ENDBRANCH   1   2
BRANCH   1  10
HETATM   10  C   UNK N   1      30.655  22.425  -2.533  0.00  0.00     0.170 C 
HETATM   11  O   UNK N   1      30.522  23.030  -1.483  0.00  0.00    -0.648 OA
BRANCH  10  12
HETATM   12  O   UNK N   1      31.510  21.385  -2.601  0.00  0.00    -0.774 OA
HETATM   13  H   UNK N   1      32.026  20.651  -2.872  0.00  0.00     0.167 HD
ENDBRANCH  10  12
ENDBRANCH   1  10
BRANCH   1  14
HETATM   14  C   UNK N   1      30.596  22.433  -5.042  0.00  0.00     0.082 C 
BRANCH  14  15
HETATM   15  C   UNK N   1      29.831  21.630  -6.069  0.00  0.00    -0.055 A 
HETATM   16  C   UNK N   1      28.730  22.225  -6.693  0.00  0.00     0.007 A 
HETATM   17  C   UNK N   1      28.024  21.541  -7.689  0.00  0.00     0.001 A 
HETATM   18  C   UNK N   1      28.422  20.258  -8.073  0.00  0.00     0.000 A 
HETATM   19  C   UNK N   1      29.516  19.652  -7.452  0.00  0.00     0.001 A 
HETATM   20  C   UNK N   1      30.217  20.334  -6.454  0.00  0.00     0.007 A 
ENDBRANCH  14  15
ENDBRANCH   1  14
TORSDOF 6
ENDMDL
MODEL 4
REMARK VINA RESULT:      -6.2      6.974     10.445
REMARK  6 active torsions:
REMARK  status: ('A' for Active; 'I' for Inactive)
REMARK    1  A    between atoms: O_8  and  C_7 
REMARK    2  A    between atoms: C_9  and  O_8 
REMARK    3  A    between atoms: C_9  and  C_10 
REMARK    4  A    between atoms: C_13  and  C_9 
REMARK    5  A    between atoms: C_10  and  O_11 
REMARK    6  A    between atoms: C_14  and  C_13 
ROOT
HETATM    1  C   UNK N   1      21.454  19.748   2.099  0.00  0.00     0.230 C 
ENDROOT
BRANCH   1   2
HETATM    2  O   UNK N   1      22.229  20.236   3.148  0.00  0.00    -0.335 OA
BRANCH   2   3
HETATM    3  C   UNK N   1      23.525  19.910   3.412  0.00  0.00     0.070 A 
HETATM    4  C   UNK N   1      24.556  20.653   2.825  0.00  0.00     0.038 A 
HETATM    5  C   UNK N   1      25.894  20.330   3.086  0.00  0.00     0.026 A 
HETATM    6  C   UNK N   1      26.205  19.247   3.916  0.00  0.00     0.034 A 
HETATM    7  C   UNK N   1      25.184  18.487   4.482  0.00  0.00     0.026 A 
HETATM    8 Cl   UNK N   1      27.874  18.843   4.254  0.00  0.00    -0.084 Cl
HETATM    9  C   UNK N   1      23.854  18.819   4.235  0.00  0.00     0.038 A 
ENDBRANCH   2   3
ENDBRANCH   1   2
BRANCH   1  10
HETATM   10  C   UNK N   1      21.036  20.828   1.129  0.00  0.00     0.170 C 
HETATM   11  O   UNK N   1      21.024  20.598  -0.069  0.00  0.00    -0.648 OA
BRANCH  10  12
HETATM   12  O   UNK N   1      20.684  22.048   1.578  0.00  0.00    -0.774 OA
HETATM   13  H   UNK N   1      20.547  22.823   2.087  0.00  0.00     0.167 HD
ENDBRANCH  10  12
ENDBRANCH   1  10
BRANCH   1  14
HETATM   14  C   UNK N   1      20.222  19.051   2.701  0.00  0.00     0.082 C 
BRANCH  14  15
HETATM   15  C   UNK N   1      20.044  17.570   2.455  0.00  0.00    -0.055 A 
HETATM   16  C   UNK N   1      20.055  17.110   1.133  0.00  0.00     0.007 A 
HETATM   17  C   UNK N   1      19.948  15.742   0.858  0.00  0.00     0.001 A 
HETATM   18  C   UNK N   1      19.837  14.824   1.906  0.00  0.00     0.000 A 
HETATM   19  C   UNK N   1      19.819  15.273   3.227  0.00  0.00     0.001 A 
HETATM   20  C   UNK N   1      19.920  16.640   3.501  0.00  0.00     0.007 A 
ENDBRANCH  14  15
ENDBRANCH   1  14
TORSDOF 6
ENDMDL
MODEL 5
REMARK VINA RESULT:      -6.1     13.004     16.086
REMARK  6 active torsions:
REMARK  status: ('A' for Active; 'I' for Inactive)
REMARK    1  A    between atoms: O_8  and  C_7 
REMARK    2  A    between atoms: C_9  and  O_8 
REMARK    3  A    between atoms: C_9  and  C_10 
REMARK    4  A    between atoms: C_13  and  C_9 
REMARK    5  A    between atoms: C_10  and  O_11 
REMARK    6  A    between atoms: C_14  and  C_13 
ROOT
HETATM    1  C   UNK N   1      25.904  24.394  -7.487  0.00  0.00     0.230 C 
ENDROOT
BRANCH   1   2
HETATM    2  O   UNK N   1      27.210  23.955  -7.283  0.00  0.00    -0.335 OA
BRANCH   2   3
HETATM    3  C   UNK N   1      27.812  23.751  -6.078  0.00  0.00     0.070 A 
HETATM    4  C   UNK N   1      28.996  23.006  -6.016  0.00  0.00     0.038 A 
HETATM    5  C   UNK N   1      29.628  22.788  -4.784  0.00  0.00     0.026 A 
HETATM    6  C   UNK N   1      29.063  23.292  -3.608  0.00  0.00     0.034 A 
HETATM    7  C   UNK N   1      27.871  24.010  -3.658  0.00  0.00     0.026 A 
HETATM    8 Cl   UNK N   1      29.850  23.031  -2.066  0.00  0.00    -0.084 Cl
HETATM    9  C   UNK N   1      27.253  24.241  -4.885  0.00  0.00     0.038 A 
ENDBRANCH   2   3
ENDBRANCH   1   2
BRANCH   1  10
HETATM   10  C   UNK N   1      25.169  23.582  -8.527  0.00  0.00     0.170 C 
HETATM   11  O   UNK N   1      24.430  22.676  -8.180  0.00  0.00    -0.648 OA
BRANCH  10  12
HETATM   12  O   UNK N   1      25.331  23.847  -9.838  0.00  0.00    -0.774 OA
HETATM   13  H   UNK N   1      25.658  24.104 -10.678  0.00  0.00     0.167 HD
ENDBRANCH  10  12
ENDBRANCH   1  10
BRANCH   1  14
HETATM   14  C   UNK N   1      25.959  25.877  -7.892  0.00  0.00     0.082 C 
BRANCH  14  15
HETATM   15  C   UNK N   1      26.114  26.913  -6.802  0.00  0.00    -0.055 A 
HETATM   16  C   UNK N   1      25.145  26.969  -5.795  0.00  0.00     0.007 A 
HETATM   17  C   UNK N   1      25.273  27.875  -4.736  0.00  0.00     0.001 A 
HETATM   18  C   UNK N   1      26.380  28.726  -4.675  0.00  0.00     0.000 A 
HETATM   19  C   UNK N   1      27.351  28.682  -5.677  0.00  0.00     0.001 A 
HETATM   20  C   UNK N   1      27.217  27.781  -6.737  0.00  0.00     0.007 A 
ENDBRANCH  14  15
ENDBRANCH   1  14
TORSDOF 6
ENDMDL
MODEL 6
REMARK VINA RESULT:      -6.1     11.056     14.043
REMARK  6 active torsions:
REMARK  status: ('A' for Active; 'I' for Inactive)
REMARK    1  A    between atoms: O_8  and  C_7 
REMARK    2  A    between atoms: C_9  and  O_8 
REMARK    3  A    between atoms: C_9  and  C_10 
REMARK    4  A    between atoms: C_13  and  C_9 
REMARK    5  A    between atoms: C_10  and  O_11 
REMARK    6  A    between atoms: C_14  and  C_13 
ROOT
HETATM    1  C   UNK N   1      28.743  24.212  -3.257  0.00  0.00     0.230 C 
ENDROOT
BRANCH   1   2
HETATM    2  O   UNK N   1      29.575  23.960  -4.345  0.00  0.00    -0.335 OA
BRANCH   2   3
HETATM    3  C   UNK N   1      29.504  22.886  -5.181  0.00  0.00     0.070 A 
HETATM    4  C   UNK N   1      30.318  21.772  -4.943  0.00  0.00     0.038 A 
HETATM    5  C   UNK N   1      30.257  20.660  -5.794  0.00  0.00     0.026 A 
HETATM    6  C   UNK N   1      29.400  20.669  -6.900  0.00  0.00     0.034 A 
HETATM    7  C   UNK N   1      28.607  21.785  -7.158  0.00  0.00     0.026 A 
HETATM    8 Cl   UNK N   1      29.312  19.281  -7.962  0.00  0.00    -0.084 Cl
HETATM    9  C   UNK N   1      28.656  22.883  -6.302  0.00  0.00     0.038 A 
ENDBRANCH   2   3
ENDBRANCH   1   2
BRANCH   1  10
HETATM   10  C   UNK N   1      29.057  23.339  -2.065  0.00  0.00     0.170 C 
HETATM   11  O   UNK N   1      28.150  22.846  -1.417  0.00  0.00    -0.648 OA
BRANCH  10  12
HETATM   12  O   UNK N   1      30.336  23.106  -1.710  0.00  0.00    -0.774 OA
HETATM   13  H   UNK N   1      31.253  22.916  -1.695  0.00  0.00     0.167 HD
ENDBRANCH  10  12
ENDBRANCH   1  10
BRANCH   1  14
HETATM   14  C   UNK N   1      27.287  24.007  -3.714  0.00  0.00     0.082 C 
BRANCH  14  15
HETATM   15  C   UNK N   1      26.498  25.219  -4.155  0.00  0.00    -0.055 A 
HETATM   16  C   UNK N   1      26.534  26.364  -3.354  0.00  0.00     0.007 A 
HETATM   17  C   UNK N   1      25.862  27.527  -3.748  0.00  0.00     0.001 A 
HETATM   18  C   UNK N   1      25.157  27.553  -4.954  0.00  0.00     0.000 A 
HETATM   19  C   UNK N   1      25.109  26.413  -5.758  0.00  0.00     0.001 A 
HETATM   20  C   UNK N   1      25.776  25.251  -5.360  0.00  0.00     0.007 A 
ENDBRANCH  14  15
ENDBRANCH   1  14
TORSDOF 6
ENDMDL
MODEL 7
REMARK VINA RESULT:      -6.1     13.757     15.089
REMARK  6 active torsions:
REMARK  status: ('A' for Active; 'I' for Inactive)
REMARK    1  A    between atoms: O_8  and  C_7 
REMARK    2  A    between atoms: C_9  and  O_8 
REMARK    3  A    between atoms: C_9  and  C_10 
REMARK    4  A    between atoms: C_13  and  C_9 
REMARK    5  A    between atoms: C_10  and  O_11 
REMARK    6  A    between atoms: C_14  and  C_13 
ROOT
HETATM    1  C   UNK N   1      25.563  23.249  -7.387  0.00  0.00     0.230 C 
ENDROOT
BRANCH   1   2
HETATM    2  O   UNK N   1      25.655  23.498  -6.020  0.00  0.00    -0.335 OA
BRANCH   2   3
HETATM    3  C   UNK N   1      25.752  24.722  -5.429  0.00  0.00     0.070 A 
HETATM    4  C   UNK N   1      25.297  25.856  -6.112  0.00  0.00     0.038 A 
HETATM    5  C   UNK N   1      25.389  27.122  -5.518  0.00  0.00     0.026 A 
HETATM    6  C   UNK N   1      25.960  27.260  -4.249  0.00  0.00     0.034 A 
HETATM    7  C   UNK N   1      26.439  26.140  -3.574  0.00  0.00     0.026 A 
HETATM    8 Cl   UNK N   1      26.071  28.836  -3.496  0.00  0.00    -0.084 Cl
HETATM    9  C   UNK N   1      26.332  24.880  -4.158  0.00  0.00     0.038 A 
ENDBRANCH   2   3
ENDBRANCH   1   2
BRANCH   1  10
HETATM   10  C   UNK N   1      24.852  21.954  -7.699  0.00  0.00     0.170 C 
HETATM   11  O   UNK N   1      24.254  21.361  -6.818  0.00  0.00    -0.648 OA
BRANCH  10  12
HETATM   12  O   UNK N   1      24.880  21.445  -8.947  0.00  0.00    -0.774 OA
HETATM   13  H   UNK N   1      24.736  20.944  -9.726  0.00  0.00     0.167 HD
ENDBRANCH  10  12
ENDBRANCH   1  10
BRANCH   1  14
HETATM   14  C   UNK N   1      26.989  23.241  -7.966  0.00  0.00     0.082 C 
BRANCH  14  15
HETATM   15  C   UNK N   1      28.010  22.316  -7.343  0.00  0.00    -0.055 A 
HETATM   16  C   UNK N   1      28.265  21.090  -7.967  0.00  0.00     0.007 A 
HETATM   17  C   UNK N   1      29.239  20.224  -7.459  0.00  0.00     0.001 A 
HETATM   18  C   UNK N   1      29.973  20.585  -6.325  0.00  0.00     0.000 A 
HETATM   19  C   UNK N   1      29.723  21.804  -5.691  0.00  0.00     0.001 A 
HETATM   20  C   UNK N   1      28.745  22.665  -6.197  0.00  0.00     0.007 A 
ENDBRANCH  14  15
ENDBRANCH   1  14
TORSDOF 6
ENDMDL
MODEL 8
REMARK VINA RESULT:      -6.1      3.409      6.455
REMARK  6 active torsions:
REMARK  status: ('A' for Active; 'I' for Inactive)
REMARK    1  A    between atoms: O_8  and  C_7 
REMARK    2  A    between atoms: C_9  and  O_8 
REMARK    3  A    between atoms: C_9  and  C_10 
REMARK    4  A    between atoms: C_13  and  C_9 
REMARK    5  A    between atoms: C_10  and  O_11 
REMARK    6  A    between atoms: C_14  and  C_13 
ROOT
HETATM    1  C   UNK N   1      29.712  17.669   8.079  0.00  0.00     0.230 C 
ENDROOT
BRANCH   1   2
HETATM    2  O   UNK N   1      30.562  16.571   7.965  0.00  0.00    -0.335 OA
BRANCH   2   3
HETATM    3  C   UNK N   1      31.796  16.446   8.529  0.00  0.00     0.070 A 
HETATM    4  C   UNK N   1      32.726  17.483   8.390  0.00  0.00     0.038 A 
HETATM    5  C   UNK N   1      33.999  17.370   8.964  0.00  0.00     0.026 A 
HETATM    6  C   UNK N   1      34.354  16.207   9.657  0.00  0.00     0.034 A 
HETATM    7  C   UNK N   1      33.443  15.160   9.776  0.00  0.00     0.026 A 
HETATM    8 Cl   UNK N   1      35.940  16.061  10.385  0.00  0.00    -0.084 Cl
HETATM    9  C   UNK N   1      32.172  15.281   9.219  0.00  0.00     0.038 A 
ENDBRANCH   2   3
ENDBRANCH   1   2
BRANCH   1  10
HETATM   10  C   UNK N   1      29.124  17.812   9.463  0.00  0.00     0.170 C 
HETATM   11  O   UNK N   1      28.091  17.229   9.748  0.00  0.00    -0.648 OA
BRANCH  10  12
HETATM   12  O   UNK N   1      29.730  18.586  10.385  0.00  0.00    -0.774 OA
HETATM   13  H   UNK N   1      29.929  19.185  11.077  0.00  0.00     0.167 HD
ENDBRANCH  10  12
ENDBRANCH   1  10
BRANCH   1  14
HETATM   14  C   UNK N   1      28.599  17.521   7.027  0.00  0.00     0.082 C 
BRANCH  14  15
HETATM   15  C   UNK N   1      28.094  18.767   6.337  0.00  0.00    -0.055 A 
HETATM   16  C   UNK N   1      28.036  18.777   4.939  0.00  0.00     0.007 A 
HETATM   17  C   UNK N   1      27.525  19.887   4.258  0.00  0.00     0.001 A 
HETATM   18  C   UNK N   1      27.060  20.994   4.974  0.00  0.00     0.000 A 
HETATM   19  C   UNK N   1      27.119  20.997   6.369  0.00  0.00     0.001 A 
HETATM   20  C   UNK N   1      27.635  19.890   7.047  0.00  0.00     0.007 A 
ENDBRANCH  14  15
ENDBRANCH   1  14
TORSDOF 6
ENDMDL
MODEL 9
REMARK VINA RESULT:      -6.0      1.339      2.321
REMARK  6 active torsions:
REMARK  status: ('A' for Active; 'I' for Inactive)
REMARK    1  A    between atoms: O_8  and  C_7 
REMARK    2  A    between atoms: C_9  and  O_8 
REMARK    3  A    between atoms: C_9  and  C_10 
REMARK    4  A    between atoms: C_13  and  C_9 
REMARK    5  A    between atoms: C_10  and  O_11 
REMARK    6  A    between atoms: C_14  and  C_13 
ROOT
HETATM    1  C   UNK N   1      28.591  17.338   7.330  0.00  0.00     0.230 C 
ENDROOT
BRANCH   1   2
HETATM    2  O   UNK N   1      28.775  18.483   6.558  0.00  0.00    -0.335 OA
BRANCH   2   3
HETATM    3  C   UNK N   1      27.913  18.973   5.624  0.00  0.00     0.070 A 
HETATM    4  C   UNK N   1      27.545  20.323   5.665  0.00  0.00     0.038 A 
HETATM    5  C   UNK N   1      26.659  20.842   4.712  0.00  0.00     0.026 A 
HETATM    6  C   UNK N   1      26.118  20.005   3.730  0.00  0.00     0.034 A 
HETATM    7  C   UNK N   1      26.459  18.655   3.699  0.00  0.00     0.026 A 
HETATM    8 Cl   UNK N   1      25.017  20.647   2.529  0.00  0.00    -0.084 Cl
HETATM    9  C   UNK N   1      27.352  18.144   4.637  0.00  0.00     0.038 A 
ENDBRANCH   2   3
ENDBRANCH   1   2
BRANCH   1  10
HETATM   10  C   UNK N   1      28.591  17.626   8.813  0.00  0.00     0.170 C 
HETATM   11  O   UNK N   1      29.585  17.387   9.478  0.00  0.00    -0.648 OA
BRANCH  10  12
HETATM   12  O   UNK N   1      27.497  18.139   9.408  0.00  0.00    -0.774 OA
HETATM   13  H   UNK N   1      26.695  18.270   9.876  0.00  0.00     0.167 HD
ENDBRANCH  10  12
ENDBRANCH   1  10
BRANCH   1  14
HETATM   14  C   UNK N   1      29.702  16.337   6.968  0.00  0.00     0.082 C 
BRANCH  14  15
HETATM   15  C   UNK N   1      30.906  16.846   6.210  0.00  0.00    -0.055 A 
HETATM   16  C   UNK N   1      32.067  17.148   6.931  0.00  0.00     0.007 A 
HETATM   17  C   UNK N   1      33.224  17.571   6.267  0.00  0.00     0.001 A 
HETATM   18  C   UNK N   1      33.229  17.685   4.875  0.00  0.00     0.000 A 
HETATM   19  C   UNK N   1      32.075  17.392   4.146  0.00  0.00     0.001 A 
HETATM   20  C   UNK N   1      30.918  16.975   4.811  0.00  0.00     0.007 A 
ENDBRANCH  14  15
ENDBRANCH   1  14
TORSDOF 6
ENDMDL
