REMARK  6 active torsions:
REMARK  status: ('A' for Active; 'I' for Inactive)
REMARK    1  A    between atoms: C_3  and  C_4 
REMARK    2  A    between atoms: C_4  and  C_5 
REMARK    3  A    between atoms: C_8  and  O_9 
REMARK    4  A    between atoms: C_14  and  C_17 
REMARK    5  A    between atoms: C_17  and  C_18 
REMARK    6  A    between atoms: C_21  and  O_22 
ROOT
HETATM    1  O   UNK N   1       2.387  -0.685   0.910  0.00  0.00    -0.271 OA
HETATM    2  C   UNK N   1       1.279  -0.275   0.595  0.00  0.00     0.241 C 
HETATM    3  C   UNK N   1       0.391  -1.142  -0.263  0.00  0.00     0.180 C 
HETATM    4  N   UNK N   1      -0.825  -0.468  -0.667  0.00  0.00    -0.346 N 
HETATM    5  N   UNK N   1       0.862   0.924   1.068  0.00  0.00    -0.346 N 
HETATM    6  C   UNK N   1      -0.431   1.523   0.777  0.00  0.00     0.180 C 
HETATM    7  C   UNK N   1      -1.245   0.724  -0.200  0.00  0.00     0.241 C 
HETATM    8  O   UNK N   1      -2.336   1.146  -0.556  0.00  0.00    -0.271 OA
HETATM    9  H   UNK N   1      -1.391  -0.917  -1.336  0.00  0.00     0.163 HD
HETATM   10  H   UNK N   1       1.478   1.425   1.651  0.00  0.00     0.163 HD
ENDROOT
BRANCH   3  11
HETATM   11  C   UNK N   1       0.046  -2.389   0.576  0.00  0.00     0.073 C 
BRANCH  11  12
HETATM   12  C   UNK N   1      -1.218  -3.125   0.224  0.00  0.00    -0.056 A 
HETATM   13  C   UNK N   1      -1.176  -4.490  -0.074  0.00  0.00     0.010 A 
HETATM   14  C   UNK N   1      -2.365  -5.188  -0.326  0.00  0.00     0.037 A 
HETATM   15  C   UNK N   1      -3.595  -4.522  -0.279  0.00  0.00     0.065 A 
HETATM   16  C   UNK N   1      -3.641  -3.162   0.027  0.00  0.00     0.037 A 
HETATM   17  C   UNK N   1      -2.459  -2.472   0.292  0.00  0.00     0.010 A 
BRANCH  15  18
HETATM   18  O   UNK N   1      -4.733  -5.190  -0.522  0.00  0.00    -0.361 OA
HETATM   19  H   UNK N   1      -5.535  -4.735  -0.692  0.00  0.00     0.217 HD
ENDBRANCH  15  18
ENDBRANCH  11  12
ENDBRANCH   3  11
BRANCH   6  20
HETATM   20  C   UNK N   1      -0.303   2.956   0.236  0.00  0.00     0.073 C 
BRANCH  20  21
HETATM   21  C   UNK N   1       1.078   3.472   0.002  0.00  0.00    -0.056 A 
HETATM   22  C   UNK N   1       1.506   4.613   0.685  0.00  0.00     0.010 A 
HETATM   23  C   UNK N   1       2.787   5.123   0.460  0.00  0.00     0.037 A 
HETATM   24  C   UNK N   1       3.640   4.490  -0.450  0.00  0.00     0.065 A 
HETATM   25  C   UNK N   1       3.210   3.352  -1.138  0.00  0.00     0.037 A 
HETATM   26  C   UNK N   1       1.927   2.846  -0.918  0.00  0.00     0.010 A 
BRANCH  24  27
HETATM   27  O   UNK N   1       4.871   4.978  -0.664  0.00  0.00    -0.361 OA
HETATM   28  H   UNK N   1       5.596   4.403  -0.813  0.00  0.00     0.217 HD
ENDBRANCH  24  27
ENDBRANCH  20  21
ENDBRANCH   6  20
TORSDOF 6
