MODEL 1
REMARK VINA RESULT:      -7.5      0.000      0.000
REMARK  6 active torsions:
REMARK  status: ('A' for Active; 'I' for Inactive)
REMARK    1  A    between atoms: C_3  and  C_4 
REMARK    2  A    between atoms: C_4  and  C_5 
REMARK    3  A    between atoms: C_8  and  O_9 
REMARK    4  A    between atoms: C_14  and  C_17 
REMARK    5  A    between atoms: C_17  and  C_18 
REMARK    6  A    between atoms: C_21  and  O_22 
ROOT
HETATM    1  O   UNK N   1      32.309  13.457   9.052  0.00  0.00    -0.271 OA
HETATM    2  C   UNK N   1      32.888  14.532   8.985  0.00  0.00     0.241 C 
HETATM    3  C   UNK N   1      33.660  15.026  10.183  0.00  0.00     0.180 C 
HETATM    4  N   UNK N   1      34.172  16.369  10.002  0.00  0.00    -0.346 N 
HETATM    5  N   UNK N   1      32.862  15.222   7.819  0.00  0.00    -0.346 N 
HETATM    6  C   UNK N   1      33.514  16.504   7.604  0.00  0.00     0.180 C 
HETATM    7  C   UNK N   1      34.149  17.060   8.846  0.00  0.00     0.241 C 
HETATM    8  O   UNK N   1      34.694  18.154   8.802  0.00  0.00    -0.271 OA
HETATM    9  H   UNK N   1      34.569  16.812  10.787  0.00  0.00     0.163 HD
HETATM   10  H   UNK N   1      32.368  14.827   7.065  0.00  0.00     0.163 HD
ENDROOT
BRANCH   3  11
HETATM   11  C   UNK N   1      34.829  14.043  10.393  0.00  0.00     0.073 C 
BRANCH  11  12
HETATM   12  C   UNK N   1      35.263  13.785  11.811  0.00  0.00    -0.056 A 
HETATM   13  C   UNK N   1      36.025  14.736  12.495  0.00  0.00     0.010 A 
HETATM   14  C   UNK N   1      36.362  14.527  13.840  0.00  0.00     0.037 A 
HETATM   15  C   UNK N   1      35.936  13.368  14.499  0.00  0.00     0.065 A 
HETATM   16  C   UNK N   1      35.168  12.421  13.821  0.00  0.00     0.037 A 
HETATM   17  C   UNK N   1      34.821  12.638  12.488  0.00  0.00     0.010 A 
BRANCH  15  18
HETATM   18  O   UNK N   1      36.260  13.166  15.785  0.00  0.00    -0.361 OA
HETATM   19  H   UNK N   1      35.598  13.051  16.439  0.00  0.00     0.217 HD
ENDBRANCH  15  18
ENDBRANCH  11  12
ENDBRANCH   3  11
BRANCH   6  20
HETATM   20  C   UNK N   1      32.550  17.562   7.043  0.00  0.00     0.073 C 
BRANCH  20  21
HETATM   21  C   UNK N   1      31.208  17.667   7.688  0.00  0.00    -0.056 A 
HETATM   22  C   UNK N   1      30.096  17.117   7.046  0.00  0.00     0.010 A 
HETATM   23  C   UNK N   1      28.829  17.227   7.624  0.00  0.00     0.037 A 
HETATM   24  C   UNK N   1      28.676  17.889   8.846  0.00  0.00     0.065 A 
HETATM   25  C   UNK N   1      29.787  18.446   9.486  0.00  0.00     0.037 A 
HETATM   26  C   UNK N   1      31.052  18.341   8.905  0.00  0.00     0.010 A 
BRANCH  24  27
HETATM   27  O   UNK N   1      27.459  17.992   9.403  0.00  0.00    -0.361 OA
HETATM   28  H   UNK N   1      27.238  18.729   9.938  0.00  0.00     0.217 HD
ENDBRANCH  24  27
ENDBRANCH  20  21
ENDBRANCH   6  20
TORSDOF 6
ENDMDL
MODEL 2
REMARK VINA RESULT:      -7.5      3.550      6.127
REMARK  6 active torsions:
REMARK  status: ('A' for Active; 'I' for Inactive)
REMARK    1  A    between atoms: C_3  and  C_4 
REMARK    2  A    between atoms: C_4  and  C_5 
REMARK    3  A    between atoms: C_8  and  O_9 
REMARK    4  A    between atoms: C_14  and  C_17 
REMARK    5  A    between atoms: C_17  and  C_18 
REMARK    6  A    between atoms: C_21  and  O_22 
ROOT
HETATM    1  O   UNK N   1      37.280  14.750  15.582  0.00  0.00    -0.271 OA
HETATM    2  C   UNK N   1      36.627  14.244  14.681  0.00  0.00     0.241 C 
HETATM    3  C   UNK N   1      36.016  12.880  14.891  0.00  0.00     0.180 C 
HETATM    4  N   UNK N   1      35.394  12.356  13.694  0.00  0.00    -0.346 N 
HETATM    5  N   UNK N   1      36.428  14.945  13.539  0.00  0.00    -0.346 N 
HETATM    6  C   UNK N   1      35.667  14.465  12.396  0.00  0.00     0.180 C 
HETATM    7  C   UNK N   1      35.194  13.049  12.555  0.00  0.00     0.241 C 
HETATM    8  O   UNK N   1      34.577  12.518  11.642  0.00  0.00    -0.271 OA
HETATM    9  H   UNK N   1      35.093  11.419  13.712  0.00  0.00     0.163 HD
HETATM   10  H   UNK N   1      36.827  15.844  13.479  0.00  0.00     0.163 HD
ENDROOT
BRANCH   3  11
HETATM   11  C   UNK N   1      34.961  13.035  16.006  0.00  0.00     0.073 C 
BRANCH  11  12
HETATM   12  C   UNK N   1      35.289  12.443  17.349  0.00  0.00    -0.056 A 
HETATM   13  C   UNK N   1      35.128  13.204  18.510  0.00  0.00     0.010 A 
HETATM   14  C   UNK N   1      35.362  12.624  19.765  0.00  0.00     0.037 A 
HETATM   15  C   UNK N   1      35.754  11.284  19.858  0.00  0.00     0.065 A 
HETATM   16  C   UNK N   1      35.907  10.519  18.701  0.00  0.00     0.037 A 
HETATM   17  C   UNK N   1      35.660  11.093  17.455  0.00  0.00     0.010 A 
BRANCH  15  18
HETATM   18  O   UNK N   1      35.979  10.729  21.059  0.00  0.00    -0.361 OA
HETATM   19  H   UNK N   1      35.280  10.596  21.669  0.00  0.00     0.217 HD
ENDBRANCH  15  18
ENDBRANCH  11  12
ENDBRANCH   3  11
BRANCH   6  20
HETATM   20  C   UNK N   1      36.461  14.561  11.083  0.00  0.00     0.073 C 
BRANCH  20  21
HETATM   21  C   UNK N   1      35.803  15.263   9.942  0.00  0.00    -0.056 A 
HETATM   22  C   UNK N   1      35.260  16.535  10.144  0.00  0.00     0.010 A 
HETATM   23  C   UNK N   1      34.620  17.196   9.093  0.00  0.00     0.037 A 
HETATM   24  C   UNK N   1      34.524  16.584   7.839  0.00  0.00     0.065 A 
HETATM   25  C   UNK N   1      35.061  15.310   7.639  0.00  0.00     0.037 A 
HETATM   26  C   UNK N   1      35.695  14.646   8.691  0.00  0.00     0.010 A 
BRANCH  24  27
HETATM   27  O   UNK N   1      33.911  17.221   6.830  0.00  0.00    -0.361 OA
HETATM   28  H   UNK N   1      33.181  17.786   6.991  0.00  0.00     0.217 HD
ENDBRANCH  24  27
ENDBRANCH  20  21
ENDBRANCH   6  20
TORSDOF 6
ENDMDL
MODEL 3
REMARK VINA RESULT:      -7.4      2.269      8.129
REMARK  6 active torsions:
REMARK  status: ('A' for Active; 'I' for Inactive)
REMARK    1  A    between atoms: C_3  and  C_4 
REMARK    2  A    between atoms: C_4  and  C_5 
REMARK    3  A    between atoms: C_8  and  O_9 
REMARK    4  A    between atoms: C_14  and  C_17 
REMARK    5  A    between atoms: C_17  and  C_18 
REMARK    6  A    between atoms: C_21  and  O_22 
ROOT
HETATM    1  O   UNK N   1      32.361  13.797   8.920  0.00  0.00    -0.271 OA
HETATM    2  C   UNK N   1      33.311  14.415   9.378  0.00  0.00     0.241 C 
HETATM    3  C   UNK N   1      33.978  15.470   8.530  0.00  0.00     0.180 C 
HETATM    4  N   UNK N   1      35.168  16.015   9.151  0.00  0.00    -0.346 N 
HETATM    5  N   UNK N   1      33.705  14.170  10.651  0.00  0.00    -0.346 N 
HETATM    6  C   UNK N   1      34.812  14.838  11.317  0.00  0.00     0.180 C 
HETATM    7  C   UNK N   1      35.564  15.775  10.416  0.00  0.00     0.241 C 
HETATM    8  O   UNK N   1      36.542  16.366  10.850  0.00  0.00    -0.271 OA
HETATM    9  H   UNK N   1      35.732  16.609   8.604  0.00  0.00     0.163 HD
HETATM   10  H   UNK N   1      33.205  13.491  11.161  0.00  0.00     0.163 HD
ENDROOT
BRANCH   3  11
HETATM   11  C   UNK N   1      32.938  16.589   8.318  0.00  0.00     0.073 C 
BRANCH  11  12
HETATM   12  C   UNK N   1      32.560  16.914   6.898  0.00  0.00    -0.056 A 
HETATM   13  C   UNK N   1      33.541  17.303   5.982  0.00  0.00     0.010 A 
HETATM   14  C   UNK N   1      33.196  17.530   4.642  0.00  0.00     0.037 A 
HETATM   15  C   UNK N   1      31.872  17.367   4.219  0.00  0.00     0.065 A 
HETATM   16  C   UNK N   1      30.893  16.971   5.130  0.00  0.00     0.037 A 
HETATM   17  C   UNK N   1      31.239  16.731   6.459  0.00  0.00     0.010 A 
BRANCH  15  18
HETATM   18  O   UNK N   1      31.542  17.587   2.938  0.00  0.00    -0.361 OA
HETATM   19  H   UNK N   1      30.912  18.240   2.705  0.00  0.00     0.217 HD
ENDBRANCH  15  18
ENDBRANCH  11  12
ENDBRANCH   3  11
BRANCH   6  20
HETATM   20  C   UNK N   1      35.816  13.844  11.922  0.00  0.00     0.073 C 
BRANCH  20  21
HETATM   21  C   UNK N   1      35.676  13.538  13.376  0.00  0.00    -0.056 A 
HETATM   22  C   UNK N   1      36.502  14.191  14.294  0.00  0.00     0.010 A 
HETATM   23  C   UNK N   1      36.401  13.900  15.656  0.00  0.00     0.037 A 
HETATM   24  C   UNK N   1      35.471  12.953  16.100  0.00  0.00     0.065 A 
HETATM   25  C   UNK N   1      34.649  12.295  15.181  0.00  0.00     0.037 A 
HETATM   26  C   UNK N   1      34.755  12.582  13.819  0.00  0.00     0.010 A 
BRANCH  24  27
HETATM   27  O   UNK N   1      35.372  12.675  17.409  0.00  0.00    -0.361 OA
HETATM   28  H   UNK N   1      36.138  12.524  17.927  0.00  0.00     0.217 HD
ENDBRANCH  24  27
ENDBRANCH  20  21
ENDBRANCH   6  20
TORSDOF 6
ENDMDL
MODEL 4
REMARK VINA RESULT:      -7.3     10.110     14.413
REMARK  6 active torsions:
REMARK  status: ('A' for Active; 'I' for Inactive)
REMARK    1  A    between atoms: C_3  and  C_4 
REMARK    2  A    between atoms: C_4  and  C_5 
REMARK    3  A    between atoms: C_8  and  O_9 
REMARK    4  A    between atoms: C_14  and  C_17 
REMARK    5  A    between atoms: C_17  and  C_18 
REMARK    6  A    between atoms: C_21  and  O_22 
ROOT
HETATM    1  O   UNK N   1      18.910  15.330   5.167  0.00  0.00    -0.271 OA
HETATM    2  C   UNK N   1      20.074  15.314   5.540  0.00  0.00     0.241 C 
HETATM    3  C   UNK N   1      21.109  16.078   4.752  0.00  0.00     0.180 C 
HETATM    4  N   UNK N   1      22.456  15.851   5.231  0.00  0.00    -0.346 N 
HETATM    5  N   UNK N   1      20.392  14.651   6.678  0.00  0.00    -0.346 N 
HETATM    6  C   UNK N   1      21.732  14.558   7.234  0.00  0.00     0.180 C 
HETATM    7  C   UNK N   1      22.778  15.192   6.362  0.00  0.00     0.241 C 
HETATM    8  O   UNK N   1      23.951  15.144   6.703  0.00  0.00    -0.271 OA
HETATM    9  H   UNK N   1      23.197  16.206   4.688  0.00  0.00     0.163 HD
HETATM   10  H   UNK N   1      19.662  14.200   7.163  0.00  0.00     0.163 HD
ENDROOT
BRANCH   3  11
HETATM   11  C   UNK N   1      20.751  17.572   4.884  0.00  0.00     0.073 C 
BRANCH  11  12
HETATM   12  C   UNK N   1      20.674  18.375   3.613  0.00  0.00    -0.056 A 
HETATM   13  C   UNK N   1      21.027  19.727   3.615  0.00  0.00     0.010 A 
HETATM   14  C   UNK N   1      21.028  20.451   2.414  0.00  0.00     0.037 A 
HETATM   15  C   UNK N   1      20.678  19.823   1.214  0.00  0.00     0.065 A 
HETATM   16  C   UNK N   1      20.334  18.471   1.208  0.00  0.00     0.037 A 
HETATM   17  C   UNK N   1      20.348  17.748   2.400  0.00  0.00     0.010 A 
BRANCH  15  18
HETATM   18  O   UNK N   1      20.677  20.517   0.065  0.00  0.00    -0.361 OA
HETATM   19  H   UNK N   1      21.445  20.968  -0.229  0.00  0.00     0.217 HD
ENDBRANCH  15  18
ENDBRANCH  11  12
ENDBRANCH   3  11
BRANCH   6  20
HETATM   20  C   UNK N   1      22.153  13.106   7.508  0.00  0.00     0.073 C 
BRANCH  20  21
HETATM   21  C   UNK N   1      22.659  12.793   8.877  0.00  0.00    -0.056 A 
HETATM   22  C   UNK N   1      21.749  12.666   9.930  0.00  0.00     0.010 A 
HETATM   23  C   UNK N   1      22.208  12.397  11.222  0.00  0.00     0.037 A 
HETATM   24  C   UNK N   1      23.579  12.255  11.460  0.00  0.00     0.065 A 
HETATM   25  C   UNK N   1      24.490  12.388  10.408  0.00  0.00     0.037 A 
HETATM   26  C   UNK N   1      24.031  12.663   9.118  0.00  0.00     0.010 A 
BRANCH  24  27
HETATM   27  O   UNK N   1      24.019  11.994  12.700  0.00  0.00    -0.361 OA
HETATM   28  H   UNK N   1      24.561  11.249  12.869  0.00  0.00     0.217 HD
ENDBRANCH  24  27
ENDBRANCH  20  21
ENDBRANCH   6  20
TORSDOF 6
ENDMDL
MODEL 5
REMARK VINA RESULT:      -7.1      2.323      3.036
REMARK  6 active torsions:
REMARK  status: ('A' for Active; 'I' for Inactive)
REMARK    1  A    between atoms: C_3  and  C_4 
REMARK    2  A    between atoms: C_4  and  C_5 
REMARK    3  A    between atoms: C_8  and  O_9 
REMARK    4  A    between atoms: C_14  and  C_17 
REMARK    5  A    between atoms: C_17  and  C_18 
REMARK    6  A    between atoms: C_21  and  O_22 
ROOT
HETATM    1  O   UNK N   1      33.666  14.008   9.821  0.00  0.00    -0.271 OA
HETATM    2  C   UNK N   1      34.062  15.133   9.552  0.00  0.00     0.241 C 
HETATM    3  C   UNK N   1      34.954  15.853  10.532  0.00  0.00     0.180 C 
HETATM    4  N   UNK N   1      35.225  17.220  10.142  0.00  0.00    -0.346 N 
HETATM    5  N   UNK N   1      33.728  15.680   8.358  0.00  0.00    -0.346 N 
HETATM    6  C   UNK N   1      34.137  17.002   7.911  0.00  0.00     0.180 C 
HETATM    7  C   UNK N   1      34.896  17.770   8.956  0.00  0.00     0.241 C 
HETATM    8  O   UNK N   1      35.259  18.912   8.714  0.00  0.00    -0.271 OA
HETATM    9  H   UNK N   1      35.687  17.795  10.794  0.00  0.00     0.163 HD
HETATM   10  H   UNK N   1      33.170  15.143   7.749  0.00  0.00     0.163 HD
ENDROOT
BRANCH   3  11
HETATM   11  C   UNK N   1      36.272  15.055  10.599  0.00  0.00     0.073 C 
BRANCH  11  12
HETATM   12  C   UNK N   1      36.450  14.118  11.762  0.00  0.00    -0.056 A 
HETATM   13  C   UNK N   1      37.041  12.866  11.571  0.00  0.00     0.010 A 
HETATM   14  C   UNK N   1      37.275  12.028  12.669  0.00  0.00     0.037 A 
HETATM   15  C   UNK N   1      36.918  12.441  13.958  0.00  0.00     0.065 A 
HETATM   16  C   UNK N   1      36.336  13.694  14.153  0.00  0.00     0.037 A 
HETATM   17  C   UNK N   1      36.118  14.533  13.061  0.00  0.00     0.010 A 
BRANCH  15  18
HETATM   18  O   UNK N   1      37.140  11.638  15.010  0.00  0.00    -0.361 OA
HETATM   19  H   UNK N   1      37.756  11.872  15.677  0.00  0.00     0.217 HD
ENDBRANCH  15  18
ENDBRANCH  11  12
ENDBRANCH   3  11
BRANCH   6  20
HETATM   20  C   UNK N   1      32.945  17.860   7.457  0.00  0.00     0.073 C 
BRANCH  20  21
HETATM   21  C   UNK N   1      32.330  17.523   6.140  0.00  0.00    -0.056 A 
HETATM   22  C   UNK N   1      33.094  17.644   4.977  0.00  0.00     0.010 A 
HETATM   23  C   UNK N   1      32.526  17.355   3.734  0.00  0.00     0.037 A 
HETATM   24  C   UNK N   1      31.192  16.945   3.655  0.00  0.00     0.065 A 
HETATM   25  C   UNK N   1      30.425  16.829   4.817  0.00  0.00     0.037 A 
HETATM   26  C   UNK N   1      30.990  17.125   6.060  0.00  0.00     0.010 A 
BRANCH  24  27
HETATM   27  O   UNK N   1      30.647  16.665   2.461  0.00  0.00    -0.361 OA
HETATM   28  H   UNK N   1      30.877  15.881   2.001  0.00  0.00     0.217 HD
ENDBRANCH  24  27
ENDBRANCH  20  21
ENDBRANCH   6  20
TORSDOF 6
ENDMDL
MODEL 6
REMARK VINA RESULT:      -7.0      5.017     10.521
REMARK  6 active torsions:
REMARK  status: ('A' for Active; 'I' for Inactive)
REMARK    1  A    between atoms: C_3  and  C_4 
REMARK    2  A    between atoms: C_4  and  C_5 
REMARK    3  A    between atoms: C_8  and  O_9 
REMARK    4  A    between atoms: C_14  and  C_17 
REMARK    5  A    between atoms: C_17  and  C_18 
REMARK    6  A    between atoms: C_21  and  O_22 
ROOT
HETATM    1  O   UNK N   1      27.976  19.285   5.451  0.00  0.00    -0.271 OA
HETATM    2  C   UNK N   1      28.199  18.087   5.351  0.00  0.00     0.241 C 
HETATM    3  C   UNK N   1      27.062  17.152   5.025  0.00  0.00     0.180 C 
HETATM    4  N   UNK N   1      27.452  15.758   5.078  0.00  0.00    -0.346 N 
HETATM    5  N   UNK N   1      29.472  17.642   5.486  0.00  0.00    -0.346 N 
HETATM    6  C   UNK N   1      29.875  16.248   5.383  0.00  0.00     0.180 C 
HETATM    7  C   UNK N   1      28.715  15.310   5.212  0.00  0.00     0.241 C 
HETATM    8  O   UNK N   1      28.923  14.106   5.155  0.00  0.00    -0.271 OA
HETATM    9  H   UNK N   1      26.737  15.085   5.011  0.00  0.00     0.163 HD
HETATM   10  H   UNK N   1      30.174  18.310   5.665  0.00  0.00     0.163 HD
ENDROOT
BRANCH   3  11
HETATM   11  C   UNK N   1      26.587  17.510   3.602  0.00  0.00     0.073 C 
BRANCH  11  12
HETATM   12  C   UNK N   1      25.475  18.516   3.482  0.00  0.00    -0.056 A 
HETATM   13  C   UNK N   1      25.705  19.747   2.861  0.00  0.00     0.010 A 
HETATM   14  C   UNK N   1      24.648  20.649   2.683  0.00  0.00     0.037 A 
HETATM   15  C   UNK N   1      23.361  20.321   3.124  0.00  0.00     0.065 A 
HETATM   16  C   UNK N   1      23.126  19.089   3.736  0.00  0.00     0.037 A 
HETATM   17  C   UNK N   1      24.176  18.187   3.900  0.00  0.00     0.010 A 
BRANCH  15  18
HETATM   18  O   UNK N   1      22.349  21.185   2.955  0.00  0.00    -0.361 OA
HETATM   19  H   UNK N   1      22.020  21.692   3.672  0.00  0.00     0.217 HD
ENDBRANCH  15  18
ENDBRANCH  11  12
ENDBRANCH   3  11
BRANCH   6  20
HETATM   20  C   UNK N   1      30.691  15.785   6.601  0.00  0.00     0.073 C 
BRANCH  20  21
HETATM   21  C   UNK N   1      31.807  16.671   7.046  0.00  0.00    -0.056 A 
HETATM   22  C   UNK N   1      33.007  16.670   6.332  0.00  0.00     0.010 A 
HETATM   23  C   UNK N   1      34.070  17.476   6.749  0.00  0.00     0.037 A 
HETATM   24  C   UNK N   1      33.930  18.282   7.883  0.00  0.00     0.065 A 
HETATM   25  C   UNK N   1      32.731  18.279   8.602  0.00  0.00     0.037 A 
HETATM   26  C   UNK N   1      31.671  17.469   8.188  0.00  0.00     0.010 A 
BRANCH  24  27
HETATM   27  O   UNK N   1      34.949  19.058   8.282  0.00  0.00    -0.361 OA
HETATM   28  H   UNK N   1      35.651  19.266   7.698  0.00  0.00     0.217 HD
ENDBRANCH  24  27
ENDBRANCH  20  21
ENDBRANCH   6  20
TORSDOF 6
ENDMDL
MODEL 7
REMARK VINA RESULT:      -6.9      6.499     12.244
REMARK  6 active torsions:
REMARK  status: ('A' for Active; 'I' for Inactive)
REMARK    1  A    between atoms: C_3  and  C_4 
REMARK    2  A    between atoms: C_4  and  C_5 
REMARK    3  A    between atoms: C_8  and  O_9 
REMARK    4  A    between atoms: C_14  and  C_17 
REMARK    5  A    between atoms: C_17  and  C_18 
REMARK    6  A    between atoms: C_21  and  O_22 
ROOT
HETATM    1  O   UNK N   1      24.281  15.930   5.476  0.00  0.00    -0.271 OA
HETATM    2  C   UNK N   1      24.976  16.865   5.105  0.00  0.00     0.241 C 
HETATM    3  C   UNK N   1      24.424  17.832   4.087  0.00  0.00     0.180 C 
HETATM    4  N   UNK N   1      25.407  18.798   3.645  0.00  0.00    -0.346 N 
HETATM    5  N   UNK N   1      26.201  17.033   5.657  0.00  0.00    -0.346 N 
HETATM    6  C   UNK N   1      27.123  18.104   5.312  0.00  0.00     0.180 C 
HETATM    7  C   UNK N   1      26.628  18.970   4.189  0.00  0.00     0.241 C 
HETATM    8  O   UNK N   1      27.333  19.881   3.780  0.00  0.00    -0.271 OA
HETATM    9  H   UNK N   1      25.165  19.376   2.885  0.00  0.00     0.163 HD
HETATM   10  H   UNK N   1      26.488  16.385   6.341  0.00  0.00     0.163 HD
ENDROOT
BRANCH   3  11
HETATM   11  C   UNK N   1      23.242  18.557   4.761  0.00  0.00     0.073 C 
BRANCH  11  12
HETATM   12  C   UNK N   1      21.926  18.551   4.032  0.00  0.00    -0.056 A 
HETATM   13  C   UNK N   1      21.100  17.424   4.084  0.00  0.00     0.010 A 
HETATM   14  C   UNK N   1      19.842  17.450   3.468  0.00  0.00     0.037 A 
HETATM   15  C   UNK N   1      19.409  18.602   2.800  0.00  0.00     0.065 A 
HETATM   16  C   UNK N   1      20.227  19.731   2.754  0.00  0.00     0.037 A 
HETATM   17  C   UNK N   1      21.473  19.709   3.381  0.00  0.00     0.010 A 
BRANCH  15  18
HETATM   18  O   UNK N   1      18.205  18.626   2.209  0.00  0.00    -0.361 OA
HETATM   19  H   UNK N   1      17.538  19.221   2.492  0.00  0.00     0.217 HD
ENDBRANCH  15  18
ENDBRANCH  11  12
ENDBRANCH   3  11
BRANCH   6  20
HETATM   20  C   UNK N   1      28.516  17.577   4.932  0.00  0.00     0.073 C 
BRANCH  20  21
HETATM   21  C   UNK N   1      29.535  17.505   6.021  0.00  0.00    -0.056 A 
HETATM   22  C   UNK N   1      29.181  17.897   7.314  0.00  0.00     0.010 A 
HETATM   23  C   UNK N   1      30.128  17.859   8.340  0.00  0.00     0.037 A 
HETATM   24  C   UNK N   1      31.431  17.428   8.070  0.00  0.00     0.065 A 
HETATM   25  C   UNK N   1      31.787  17.041   6.775  0.00  0.00     0.037 A 
HETATM   26  C   UNK N   1      30.842  17.086   5.748  0.00  0.00     0.010 A 
BRANCH  24  27
HETATM   27  O   UNK N   1      32.341  17.388   9.056  0.00  0.00    -0.361 OA
HETATM   28  H   UNK N   1      32.074  17.354   9.954  0.00  0.00     0.217 HD
ENDBRANCH  24  27
ENDBRANCH  20  21
ENDBRANCH   6  20
TORSDOF 6
ENDMDL
MODEL 8
REMARK VINA RESULT:      -6.7      3.035      8.536
REMARK  6 active torsions:
REMARK  status: ('A' for Active; 'I' for Inactive)
REMARK    1  A    between atoms: C_3  and  C_4 
REMARK    2  A    between atoms: C_4  and  C_5 
REMARK    3  A    between atoms: C_8  and  O_9 
REMARK    4  A    between atoms: C_14  and  C_17 
REMARK    5  A    between atoms: C_17  and  C_18 
REMARK    6  A    between atoms: C_21  and  O_22 
ROOT
HETATM    1  O   UNK N   1      34.301  11.124  10.613  0.00  0.00    -0.271 OA
HETATM    2  C   UNK N   1      34.728  12.060  11.275  0.00  0.00     0.241 C 
HETATM    3  C   UNK N   1      35.127  13.334  10.573  0.00  0.00     0.180 C 
HETATM    4  N   UNK N   1      35.741  14.294  11.466  0.00  0.00    -0.346 N 
HETATM    5  N   UNK N   1      34.782  11.942  12.623  0.00  0.00    -0.346 N 
HETATM    6  C   UNK N   1      35.260  12.978  13.525  0.00  0.00     0.180 C 
HETATM    7  C   UNK N   1      35.797  14.183  12.808  0.00  0.00     0.241 C 
HETATM    8  O   UNK N   1      36.267  15.106  13.457  0.00  0.00    -0.271 OA
HETATM    9  H   UNK N   1      36.150  15.093  11.061  0.00  0.00     0.163 HD
HETATM   10  H   UNK N   1      34.474  11.095  13.021  0.00  0.00     0.163 HD
ENDROOT
BRANCH   3  11
HETATM   11  C   UNK N   1      33.839  13.929   9.968  0.00  0.00     0.073 C 
BRANCH  11  12
HETATM   12  C   UNK N   1      34.001  15.026   8.952  0.00  0.00    -0.056 A 
HETATM   13  C   UNK N   1      34.635  14.766   7.733  0.00  0.00     0.010 A 
HETATM   14  C   UNK N   1      34.715  15.770   6.759  0.00  0.00     0.037 A 
HETATM   15  C   UNK N   1      34.161  17.033   7.002  0.00  0.00     0.065 A 
HETATM   16  C   UNK N   1      33.521  17.292   8.213  0.00  0.00     0.037 A 
HETATM   17  C   UNK N   1      33.428  16.288   9.176  0.00  0.00     0.010 A 
BRANCH  15  18
HETATM   18  O   UNK N   1      34.240  17.994   6.070  0.00  0.00    -0.361 OA
HETATM   19  H   UNK N   1      33.467  18.398   5.724  0.00  0.00     0.217 HD
ENDBRANCH  15  18
ENDBRANCH  11  12
ENDBRANCH   3  11
BRANCH   6  20
HETATM   20  C   UNK N   1      36.348  12.464  14.482  0.00  0.00     0.073 C 
BRANCH  20  21
HETATM   21  C   UNK N   1      35.972  12.316  15.919  0.00  0.00    -0.056 A 
HETATM   22  C   UNK N   1      35.573  13.443  16.641  0.00  0.00     0.010 A 
HETATM   23  C   UNK N   1      35.241  13.325  17.993  0.00  0.00     0.037 A 
HETATM   24  C   UNK N   1      35.309  12.078  18.622  0.00  0.00     0.065 A 
HETATM   25  C   UNK N   1      35.714  10.951  17.902  0.00  0.00     0.037 A 
HETATM   26  C   UNK N   1      36.053  11.070  16.552  0.00  0.00     0.010 A 
BRANCH  24  27
HETATM   27  O   UNK N   1      34.988  11.965  19.920  0.00  0.00    -0.361 OA
HETATM   28  H   UNK N   1      35.000  11.131  20.346  0.00  0.00     0.217 HD
ENDBRANCH  24  27
ENDBRANCH  20  21
ENDBRANCH   6  20
TORSDOF 6
ENDMDL
MODEL 9
REMARK VINA RESULT:      -6.7      3.553      8.909
REMARK  6 active torsions:
REMARK  status: ('A' for Active; 'I' for Inactive)
REMARK    1  A    between atoms: C_3  and  C_4 
REMARK    2  A    between atoms: C_4  and  C_5 
REMARK    3  A    between atoms: C_8  and  O_9 
REMARK    4  A    between atoms: C_14  and  C_17 
REMARK    5  A    between atoms: C_17  and  C_18 
REMARK    6  A    between atoms: C_21  and  O_22 
ROOT
HETATM    1  O   UNK N   1      36.666  14.916  14.161  0.00  0.00    -0.271 OA
HETATM    2  C   UNK N   1      36.091  13.916  13.756  0.00  0.00     0.241 C 
HETATM    3  C   UNK N   1      35.274  14.000  12.491  0.00  0.00     0.180 C 
HETATM    4  N   UNK N   1      34.544  12.780  12.216  0.00  0.00    -0.346 N 
HETATM    5  N   UNK N   1      36.247  12.749  14.427  0.00  0.00    -0.346 N 
HETATM    6  C   UNK N   1      35.627  11.489  14.050  0.00  0.00     0.180 C 
HETATM    7  C   UNK N   1      34.694  11.618  12.880  0.00  0.00     0.241 C 
HETATM    8  O   UNK N   1      34.080  10.633  12.493  0.00  0.00    -0.271 OA
HETATM    9  H   UNK N   1      33.885  12.802  11.484  0.00  0.00     0.163 HD
HETATM   10  H   UNK N   1      36.821  12.756  15.228  0.00  0.00     0.163 HD
ENDROOT
BRANCH   3  11
HETATM   11  C   UNK N   1      36.263  14.289  11.343  0.00  0.00     0.073 C 
BRANCH  11  12
HETATM   12  C   UNK N   1      35.742  15.074  10.170  0.00  0.00    -0.056 A 
HETATM   13  C   UNK N   1      35.631  14.469   8.914  0.00  0.00     0.010 A 
HETATM   14  C   UNK N   1      35.074  15.180   7.842  0.00  0.00     0.037 A 
HETATM   15  C   UNK N   1      34.627  16.493   8.026  0.00  0.00     0.065 A 
HETATM   16  C   UNK N   1      34.728  17.096   9.279  0.00  0.00     0.037 A 
HETATM   17  C   UNK N   1      35.269  16.383  10.349  0.00  0.00     0.010 A 
BRANCH  15  18
HETATM   18  O   UNK N   1      34.096  17.174   6.999  0.00  0.00    -0.361 OA
HETATM   19  H   UNK N   1      33.263  17.597   7.078  0.00  0.00     0.217 HD
ENDBRANCH  15  18
ENDBRANCH  11  12
ENDBRANCH   3  11
BRANCH   6  20
HETATM   20  C   UNK N   1      34.853  10.847  15.212  0.00  0.00     0.073 C 
BRANCH  20  21
HETATM   21  C   UNK N   1      35.077  11.417  16.574  0.00  0.00    -0.056 A 
HETATM   22  C   UNK N   1      35.486  10.572  17.609  0.00  0.00     0.010 A 
HETATM   23  C   UNK N   1      35.678  11.085  18.894  0.00  0.00     0.037 A 
HETATM   24  C   UNK N   1      35.460  12.444  19.143  0.00  0.00     0.065 A 
HETATM   25  C   UNK N   1      35.045  13.288  18.110  0.00  0.00     0.037 A 
HETATM   26  C   UNK N   1      34.847  12.774  16.826  0.00  0.00     0.010 A 
BRANCH  24  27
HETATM   27  O   UNK N   1      35.647  12.936  20.377  0.00  0.00    -0.361 OA
HETATM   28  H   UNK N   1      36.136  12.456  21.017  0.00  0.00     0.217 HD
ENDBRANCH  24  27
ENDBRANCH  20  21
ENDBRANCH   6  20
TORSDOF 6
ENDMDL
