MODEL 1
REMARK VINA RESULT:      -6.2      0.000      0.000
REMARK  14 active torsions:
REMARK  status: ('A' for Active; 'I' for Inactive)
REMARK    1  A    between atoms: C_1  and  O_3 
REMARK    2  A    between atoms: C_1  and  C_5 
REMARK    3  A    between atoms: C_4  and  C_5 
REMARK    4  A    between atoms: C_4  and  C_6 
REMARK    5  A    between atoms: C_5  and  O_12 
REMARK    6  A    between atoms: P_13  and  O_12 
REMARK    7  A    between atoms: P_13  and  O_15 
REMARK    8  A    between atoms: P_13  and  C_16 
REMARK    9  A    between atoms: C_16  and  N_18 
REMARK       I    between atoms: N_18  and  C_19 
REMARK   10  A    between atoms: C_19  and  C_21 
REMARK   11  A    between atoms: C_21  and  N_23 
REMARK       I    between atoms: N_23  and  C_24 
REMARK   12  A    between atoms: C_24  and  O_26 
REMARK   13  A    between atoms: O_26  and  C_27 
REMARK   14  A    between atoms: C_27  and  C_28 
ROOT
HETATM    1  C   UNK N   1      30.408  21.854  -4.207  0.00  0.00     0.192 C 
HETATM    2  C   UNK N   1      31.331  20.801  -3.640  0.00  0.00     0.045 C 
ENDROOT
BRANCH   1   3
HETATM    3  P   UNK N   1      30.119  23.279  -2.982  0.00  0.00     0.262 P 
HETATM    4  O   UNK N   1      30.886  22.802  -1.720  0.00  0.00    -0.652 OA
BRANCH   3   5
HETATM    5  O   UNK N   1      30.572  24.973  -2.948  0.00  0.00    -0.301 OA
BRANCH   5   6
HETATM    6  C   UNK N   1      30.753  25.666  -4.163  0.00  0.00     0.233 C 
BRANCH   6   7
HETATM    7  C   UNK N   1      32.174  25.759  -4.653  0.00  0.00     0.170 C 
HETATM    8  O   UNK N   1      32.774  26.819  -4.580  0.00  0.00    -0.648 OA
BRANCH   7   9
HETATM    9  O   UNK N   1      32.801  24.671  -5.143  0.00  0.00    -0.774 OA
HETATM   10  H   UNK N   1      33.119  24.324  -5.953  0.00  0.00     0.167 HD
ENDBRANCH   7   9
ENDBRANCH   6   7
BRANCH   6  11
HETATM   11  C   UNK N   1      30.242  27.100  -3.915  0.00  0.00     0.082 C 
BRANCH  11  12
HETATM   12  C   UNK N   1      29.460  27.634  -5.092  0.00  0.00    -0.055 A 
HETATM   13  C   UNK N   1      29.079  28.980  -5.126  0.00  0.00     0.007 A 
HETATM   14  C   UNK N   1      28.280  29.457  -6.170  0.00  0.00     0.001 A 
HETATM   15  C   UNK N   1      27.860  28.591  -7.185  0.00  0.00     0.000 A 
HETATM   16  C   UNK N   1      28.250  27.251  -7.166  0.00  0.00     0.001 A 
HETATM   17  C   UNK N   1      29.047  26.774  -6.123  0.00  0.00     0.007 A 
ENDBRANCH  11  12
ENDBRANCH   6  11
ENDBRANCH   5   6
ENDBRANCH   3   5
BRANCH   3  18
HETATM   18  O   UNK N   1      28.511  23.318  -2.335  0.00  0.00    -0.328 OA
HETATM   19  H   UNK N   1      27.999  24.141  -2.350  0.00  0.00     0.220 HD
ENDBRANCH   3  18
ENDBRANCH   1   3
BRANCH   1  20
HETATM   20  N   UNK N   1      30.918  22.318  -5.475  0.00  0.00    -0.344 N 
HETATM   21  C   UNK N   1      30.315  22.258  -6.705  0.00  0.00     0.240 C 
HETATM   22  O   UNK N   1      30.905  22.781  -7.636  0.00  0.00    -0.271 OA
HETATM   23  H   UNK N   1      31.812  22.730  -5.454  0.00  0.00     0.163 HD
BRANCH  21  24
HETATM   24  C   UNK N   1      28.935  21.620  -7.009  0.00  0.00     0.174 C 
HETATM   25  C   UNK N   1      28.914  20.320  -7.782  0.00  0.00     0.042 C 
BRANCH  24  26
HETATM   26  N   UNK N   1      28.052  22.469  -7.776  0.00  0.00    -0.324 N 
HETATM   27  C   UNK N   1      27.244  23.439  -7.304  0.00  0.00     0.361 C 
HETATM   28  O   UNK N   1      26.474  23.981  -8.088  0.00  0.00    -0.238 OA
HETATM   29  H   UNK N   1      28.040  22.324  -8.750  0.00  0.00     0.165 HD
BRANCH  27  30
HETATM   30  O   UNK N   1      27.273  23.815  -5.995  0.00  0.00    -0.299 OA
BRANCH  30  31
HETATM   31  C   UNK N   1      26.153  23.889  -5.178  0.00  0.00     0.219 C 
BRANCH  31  32
HETATM   32  C   UNK N   1      25.874  25.300  -4.762  0.00  0.00    -0.034 A 
HETATM   33  C   UNK N   1      25.120  26.122  -5.608  0.00  0.00     0.009 A 
HETATM   34  C   UNK N   1      24.957  27.476  -5.306  0.00  0.00     0.001 A 
HETATM   35  C   UNK N   1      25.555  28.013  -4.163  0.00  0.00     0.000 A 
HETATM   36  C   UNK N   1      26.306  27.193  -3.313  0.00  0.00     0.001 A 
HETATM   37  C   UNK N   1      26.471  25.838  -3.615  0.00  0.00     0.009 A 
ENDBRANCH  31  32
ENDBRANCH  30  31
ENDBRANCH  27  30
ENDBRANCH  24  26
ENDBRANCH  21  24
ENDBRANCH   1  20
TORSDOF 14
ENDMDL
MODEL 2
REMARK VINA RESULT:      -6.0     18.033     21.874
REMARK  14 active torsions:
REMARK  status: ('A' for Active; 'I' for Inactive)
REMARK    1  A    between atoms: C_1  and  O_3 
REMARK    2  A    between atoms: C_1  and  C_5 
REMARK    3  A    between atoms: C_4  and  C_5 
REMARK    4  A    between atoms: C_4  and  C_6 
REMARK    5  A    between atoms: C_5  and  O_12 
REMARK    6  A    between atoms: P_13  and  O_12 
REMARK    7  A    between atoms: P_13  and  O_15 
REMARK    8  A    between atoms: P_13  and  C_16 
REMARK    9  A    between atoms: C_16  and  N_18 
REMARK       I    between atoms: N_18  and  C_19 
REMARK   10  A    between atoms: C_19  and  C_21 
REMARK   11  A    between atoms: C_21  and  N_23 
REMARK       I    between atoms: N_23  and  C_24 
REMARK   12  A    between atoms: C_24  and  O_26 
REMARK   13  A    between atoms: O_26  and  C_27 
REMARK   14  A    between atoms: C_27  and  C_28 
ROOT
HETATM    1  C   UNK N   1      36.613  13.782  11.164  0.00  0.00     0.192 C 
HETATM    2  C   UNK N   1      37.946  13.266  10.678  0.00  0.00     0.045 C 
ENDROOT
BRANCH   1   3
HETATM    3  P   UNK N   1      36.178  13.111  12.888  0.00  0.00     0.262 P 
HETATM    4  O   UNK N   1      34.800  13.765  13.169  0.00  0.00    -0.652 OA
BRANCH   3   5
HETATM    5  O   UNK N   1      35.854  11.512  13.533  0.00  0.00    -0.301 OA
BRANCH   5   6
HETATM    6  C   UNK N   1      36.479  11.110  14.731  0.00  0.00     0.233 C 
BRANCH   6   7
HETATM    7  C   UNK N   1      37.491  10.004  14.597  0.00  0.00     0.170 C 
HETATM    8  O   UNK N   1      37.913   9.697  13.494  0.00  0.00    -0.648 OA
BRANCH   7   9
HETATM    9  O   UNK N   1      37.961   9.369  15.690  0.00  0.00    -0.774 OA
HETATM   10  H   UNK N   1      37.679   8.777  16.358  0.00  0.00     0.167 HD
ENDBRANCH   7   9
ENDBRANCH   6   7
BRANCH   6  11
HETATM   11  C   UNK N   1      35.348  10.608  15.653  0.00  0.00     0.082 C 
BRANCH  11  12
HETATM   12  C   UNK N   1      35.252  11.418  16.925  0.00  0.00    -0.055 A 
HETATM   13  C   UNK N   1      35.109  12.808  16.861  0.00  0.00     0.007 A 
HETATM   14  C   UNK N   1      35.109  13.568  18.035  0.00  0.00     0.001 A 
HETATM   15  C   UNK N   1      35.248  12.942  19.278  0.00  0.00     0.000 A 
HETATM   16  C   UNK N   1      35.374  11.554  19.350  0.00  0.00     0.001 A 
HETATM   17  C   UNK N   1      35.375  10.794  18.178  0.00  0.00     0.007 A 
ENDBRANCH  11  12
ENDBRANCH   6  11
ENDBRANCH   5   6
ENDBRANCH   3   5
BRANCH   3  18
HETATM   18  O   UNK N   1      37.099  13.839  14.165  0.00  0.00    -0.328 OA
HETATM   19  H   UNK N   1      37.264  14.795  14.163  0.00  0.00     0.220 HD
ENDBRANCH   3  18
ENDBRANCH   1   3
BRANCH   1  20
HETATM   20  N   UNK N   1      36.604  15.225  11.120  0.00  0.00    -0.344 N 
HETATM   21  C   UNK N   1      35.776  16.047  10.398  0.00  0.00     0.240 C 
HETATM   22  O   UNK N   1      35.901  17.247  10.571  0.00  0.00    -0.271 OA
HETATM   23  H   UNK N   1      37.277  15.676  11.678  0.00  0.00     0.163 HD
BRANCH  21  24
HETATM   24  C   UNK N   1      34.670  15.583   9.415  0.00  0.00     0.174 C 
HETATM   25  C   UNK N   1      33.763  14.456   9.855  0.00  0.00     0.042 C 
BRANCH  24  26
HETATM   26  N   UNK N   1      35.175  15.116   8.143  0.00  0.00    -0.324 N 
HETATM   27  C   UNK N   1      35.152  15.777   6.968  0.00  0.00     0.361 C 
HETATM   28  O   UNK N   1      35.519  15.179   5.963  0.00  0.00    -0.238 OA
HETATM   29  H   UNK N   1      35.580  14.219   8.134  0.00  0.00     0.165 HD
BRANCH  27  30
HETATM   30  O   UNK N   1      34.736  17.071   6.887  0.00  0.00    -0.299 OA
BRANCH  30  31
HETATM   31  C   UNK N   1      33.656  17.498   6.127  0.00  0.00     0.219 C 
BRANCH  31  32
HETATM   32  C   UNK N   1      32.372  17.379   6.889  0.00  0.00    -0.034 A 
HETATM   33  C   UNK N   1      31.255  16.822   6.257  0.00  0.00     0.009 A 
HETATM   34  C   UNK N   1      30.014  16.820   6.899  0.00  0.00     0.001 A 
HETATM   35  C   UNK N   1      29.887  17.382   8.172  0.00  0.00     0.000 A 
HETATM   36  C   UNK N   1      31.003  17.936   8.809  0.00  0.00     0.001 A 
HETATM   37  C   UNK N   1      32.244  17.940   8.167  0.00  0.00     0.009 A 
ENDBRANCH  31  32
ENDBRANCH  30  31
ENDBRANCH  27  30
ENDBRANCH  24  26
ENDBRANCH  21  24
ENDBRANCH   1  20
TORSDOF 14
ENDMDL
MODEL 3
REMARK VINA RESULT:      -5.9      2.287      5.588
REMARK  14 active torsions:
REMARK  status: ('A' for Active; 'I' for Inactive)
REMARK    1  A    between atoms: C_1  and  O_3 
REMARK    2  A    between atoms: C_1  and  C_5 
REMARK    3  A    between atoms: C_4  and  C_5 
REMARK    4  A    between atoms: C_4  and  C_6 
REMARK    5  A    between atoms: C_5  and  O_12 
REMARK    6  A    between atoms: P_13  and  O_12 
REMARK    7  A    between atoms: P_13  and  O_15 
REMARK    8  A    between atoms: P_13  and  C_16 
REMARK    9  A    between atoms: C_16  and  N_18 
REMARK       I    between atoms: N_18  and  C_19 
REMARK   10  A    between atoms: C_19  and  C_21 
REMARK   11  A    between atoms: C_21  and  N_23 
REMARK       I    between atoms: N_23  and  C_24 
REMARK   12  A    between atoms: C_24  and  O_26 
REMARK   13  A    between atoms: O_26  and  C_27 
REMARK   14  A    between atoms: C_27  and  C_28 
ROOT
HETATM    1  C   UNK N   1      29.596  26.129  -5.447  0.00  0.00     0.192 C 
HETATM    2  C   UNK N   1      29.686  25.980  -6.947  0.00  0.00     0.045 C 
ENDROOT
BRANCH   1   3
HETATM    3  P   UNK N   1      31.164  25.498  -4.576  0.00  0.00     0.262 P 
HETATM    4  O   UNK N   1      30.852  25.767  -3.081  0.00  0.00    -0.652 OA
BRANCH   3   5
HETATM    5  O   UNK N   1      31.925  23.926  -4.415  0.00  0.00    -0.301 OA
BRANCH   5   6
HETATM    6  C   UNK N   1      31.150  22.820  -4.011  0.00  0.00     0.233 C 
BRANCH   6   7
HETATM    7  C   UNK N   1      31.267  22.439  -2.559  0.00  0.00     0.170 C 
HETATM    8  O   UNK N   1      32.077  21.592  -2.217  0.00  0.00    -0.648 OA
BRANCH   7   9
HETATM    9  O   UNK N   1      30.506  23.048  -1.628  0.00  0.00    -0.774 OA
HETATM   10  H   UNK N   1      29.639  23.023  -1.275  0.00  0.00     0.167 HD
ENDBRANCH   7   9
ENDBRANCH   6   7
BRANCH   6  11
HETATM   11  C   UNK N   1      31.641  21.626  -4.856  0.00  0.00     0.082 C 
BRANCH  11  12
HETATM   12  C   UNK N   1      30.647  21.243  -5.927  0.00  0.00    -0.055 A 
HETATM   13  C   UNK N   1      29.615  22.122  -6.271  0.00  0.00     0.007 A 
HETATM   14  C   UNK N   1      28.642  21.734  -7.198  0.00  0.00     0.001 A 
HETATM   15  C   UNK N   1      28.698  20.467  -7.787  0.00  0.00     0.000 A 
HETATM   16  C   UNK N   1      29.735  19.591  -7.460  0.00  0.00     0.001 A 
HETATM   17  C   UNK N   1      30.706  19.977  -6.534  0.00  0.00     0.007 A 
ENDBRANCH  11  12
ENDBRANCH   6  11
ENDBRANCH   5   6
ENDBRANCH   3   5
BRANCH   3  18
HETATM   18  O   UNK N   1      32.531  26.548  -4.770  0.00  0.00    -0.328 OA
HETATM   19  H   UNK N   1      32.476  27.316  -5.358  0.00  0.00     0.220 HD
ENDBRANCH   3  18
ENDBRANCH   1   3
BRANCH   1  20
HETATM   20  N   UNK N   1      29.297  27.501  -5.110  0.00  0.00    -0.344 N 
HETATM   21  C   UNK N   1      28.130  28.016  -4.608  0.00  0.00     0.240 C 
HETATM   22  O   UNK N   1      28.126  29.203  -4.327  0.00  0.00    -0.271 OA
HETATM   23  H   UNK N   1      30.024  28.148  -5.261  0.00  0.00     0.163 HD
BRANCH  21  24
HETATM   24  C   UNK N   1      26.832  27.216  -4.328  0.00  0.00     0.174 C 
HETATM   25  C   UNK N   1      25.708  27.927  -3.608  0.00  0.00     0.042 C 
BRANCH  24  26
HETATM   26  N   UNK N   1      27.035  26.031  -3.524  0.00  0.00    -0.324 N 
HETATM   27  C   UNK N   1      26.440  24.831  -3.681  0.00  0.00     0.361 C 
HETATM   28  O   UNK N   1      26.644  23.972  -2.832  0.00  0.00    -0.238 OA
HETATM   29  H   UNK N   1      27.678  26.108  -2.782  0.00  0.00     0.165 HD
BRANCH  27  30
HETATM   30  O   UNK N   1      25.634  24.571  -4.747  0.00  0.00    -0.299 OA
BRANCH  30  31
HETATM   31  C   UNK N   1      25.933  23.657  -5.748  0.00  0.00     0.219 C 
BRANCH  31  32
HETATM   32  C   UNK N   1      25.791  24.270  -7.107  0.00  0.00    -0.034 A 
HETATM   33  C   UNK N   1      25.634  23.434  -8.217  0.00  0.00     0.009 A 
HETATM   34  C   UNK N   1      25.630  23.973  -9.506  0.00  0.00     0.001 A 
HETATM   35  C   UNK N   1      25.794  25.349  -9.687  0.00  0.00     0.000 A 
HETATM   36  C   UNK N   1      25.947  26.189  -8.578  0.00  0.00     0.001 A 
HETATM   37  C   UNK N   1      25.952  25.650  -7.289  0.00  0.00     0.009 A 
ENDBRANCH  31  32
ENDBRANCH  30  31
ENDBRANCH  27  30
ENDBRANCH  24  26
ENDBRANCH  21  24
ENDBRANCH   1  20
TORSDOF 14
ENDMDL
MODEL 4
REMARK VINA RESULT:      -5.8      2.551      5.489
REMARK  14 active torsions:
REMARK  status: ('A' for Active; 'I' for Inactive)
REMARK    1  A    between atoms: C_1  and  O_3 
REMARK    2  A    between atoms: C_1  and  C_5 
REMARK    3  A    between atoms: C_4  and  C_5 
REMARK    4  A    between atoms: C_4  and  C_6 
REMARK    5  A    between atoms: C_5  and  O_12 
REMARK    6  A    between atoms: P_13  and  O_12 
REMARK    7  A    between atoms: P_13  and  O_15 
REMARK    8  A    between atoms: P_13  and  C_16 
REMARK    9  A    between atoms: C_16  and  N_18 
REMARK       I    between atoms: N_18  and  C_19 
REMARK   10  A    between atoms: C_19  and  C_21 
REMARK   11  A    between atoms: C_21  and  N_23 
REMARK       I    between atoms: N_23  and  C_24 
REMARK   12  A    between atoms: C_24  and  O_26 
REMARK   13  A    between atoms: O_26  and  C_27 
REMARK   14  A    between atoms: C_27  and  C_28 
ROOT
HETATM    1  C   UNK N   1      25.960  26.082  -5.684  0.00  0.00     0.192 C 
HETATM    2  C   UNK N   1      24.788  27.008  -5.457  0.00  0.00     0.045 C 
ENDROOT
BRANCH   1   3
HETATM    3  P   UNK N   1      26.749  25.522  -4.048  0.00  0.00     0.262 P 
HETATM    4  O   UNK N   1      26.031  24.177  -3.768  0.00  0.00    -0.652 OA
BRANCH   3   5
HETATM    5  O   UNK N   1      28.373  25.066  -3.566  0.00  0.00    -0.301 OA
BRANCH   5   6
HETATM    6  C   UNK N   1      28.705  23.700  -3.460  0.00  0.00     0.233 C 
BRANCH   6   7
HETATM    7  C   UNK N   1      29.014  23.212  -2.070  0.00  0.00     0.170 C 
HETATM    8  O   UNK N   1      28.104  22.971  -1.294  0.00  0.00    -0.648 OA
BRANCH   7   9
HETATM    9  O   UNK N   1      30.290  23.007  -1.685  0.00  0.00    -0.774 OA
HETATM   10  H   UNK N   1      31.094  23.473  -1.570  0.00  0.00     0.167 HD
ENDBRANCH   7   9
ENDBRANCH   6   7
BRANCH   6  11
HETATM   11  C   UNK N   1      29.967  23.501  -4.324  0.00  0.00     0.082 C 
BRANCH  11  12
HETATM   12  C   UNK N   1      29.827  22.333  -5.273  0.00  0.00    -0.055 A 
HETATM   13  C   UNK N   1      30.680  21.231  -5.157  0.00  0.00     0.007 A 
HETATM   14  C   UNK N   1      30.611  20.189  -6.088  0.00  0.00     0.001 A 
HETATM   15  C   UNK N   1      29.686  20.243  -7.136  0.00  0.00     0.000 A 
HETATM   16  C   UNK N   1      28.820  21.332  -7.247  0.00  0.00     0.001 A 
HETATM   17  C   UNK N   1      28.889  22.373  -6.319  0.00  0.00     0.007 A 
ENDBRANCH  11  12
ENDBRANCH   6  11
ENDBRANCH   5   6
ENDBRANCH   3   5
BRANCH   3  18
HETATM   18  O   UNK N   1      26.201  26.425  -2.673  0.00  0.00    -0.328 OA
HETATM   19  H   UNK N   1      25.290  26.754  -2.637  0.00  0.00     0.220 HD
ENDBRANCH   3  18
ENDBRANCH   1   3
BRANCH   1  20
HETATM   20  N   UNK N   1      25.548  24.966  -6.503  0.00  0.00    -0.344 N 
HETATM   21  C   UNK N   1      25.520  24.884  -7.872  0.00  0.00     0.240 C 
HETATM   22  O   UNK N   1      25.202  23.810  -8.354  0.00  0.00    -0.271 OA
HETATM   23  H   UNK N   1      25.251  24.164  -6.017  0.00  0.00     0.163 HD
BRANCH  21  24
HETATM   24  C   UNK N   1      25.894  26.021  -8.857  0.00  0.00     0.174 C 
HETATM   25  C   UNK N   1      25.347  25.941 -10.265  0.00  0.00     0.042 C 
BRANCH  24  26
HETATM   26  N   UNK N   1      27.316  26.170  -9.068  0.00  0.00    -0.324 N 
HETATM   27  C   UNK N   1      28.115  27.136  -8.571  0.00  0.00     0.361 C 
HETATM   28  O   UNK N   1      29.278  27.174  -8.951  0.00  0.00    -0.238 OA
HETATM   29  H   UNK N   1      27.749  25.493  -9.637  0.00  0.00     0.165 HD
BRANCH  27  30
HETATM   30  O   UNK N   1      27.652  28.048  -7.671  0.00  0.00    -0.299 OA
BRANCH  30  31
HETATM   31  C   UNK N   1      28.437  29.028  -7.079  0.00  0.00     0.219 C 
BRANCH  31  32
HETATM   32  C   UNK N   1      28.287  29.020  -5.589  0.00  0.00    -0.034 A 
HETATM   33  C   UNK N   1      27.225  29.723  -5.008  0.00  0.00     0.009 A 
HETATM   34  C   UNK N   1      27.138  29.839  -3.619  0.00  0.00     0.001 A 
HETATM   35  C   UNK N   1      28.119  29.262  -2.808  0.00  0.00     0.000 A 
HETATM   36  C   UNK N   1      29.179  28.555  -3.385  0.00  0.00     0.001 A 
HETATM   37  C   UNK N   1      29.268  28.439  -4.775  0.00  0.00     0.009 A 
ENDBRANCH  31  32
ENDBRANCH  30  31
ENDBRANCH  27  30
ENDBRANCH  24  26
ENDBRANCH  21  24
ENDBRANCH   1  20
TORSDOF 14
ENDMDL
MODEL 5
REMARK VINA RESULT:      -5.8      2.192      5.852
REMARK  14 active torsions:
REMARK  status: ('A' for Active; 'I' for Inactive)
REMARK    1  A    between atoms: C_1  and  O_3 
REMARK    2  A    between atoms: C_1  and  C_5 
REMARK    3  A    between atoms: C_4  and  C_5 
REMARK    4  A    between atoms: C_4  and  C_6 
REMARK    5  A    between atoms: C_5  and  O_12 
REMARK    6  A    between atoms: P_13  and  O_12 
REMARK    7  A    between atoms: P_13  and  O_15 
REMARK    8  A    between atoms: P_13  and  C_16 
REMARK    9  A    between atoms: C_16  and  N_18 
REMARK       I    between atoms: N_18  and  C_19 
REMARK   10  A    between atoms: C_19  and  C_21 
REMARK   11  A    between atoms: C_21  and  N_23 
REMARK       I    between atoms: N_23  and  C_24 
REMARK   12  A    between atoms: C_24  and  O_26 
REMARK   13  A    between atoms: O_26  and  C_27 
REMARK   14  A    between atoms: C_27  and  C_28 
ROOT
HETATM    1  C   UNK N   1      28.722  26.543  -4.474  0.00  0.00     0.192 C 
HETATM    2  C   UNK N   1      28.408  27.986  -4.157  0.00  0.00     0.045 C 
ENDROOT
BRANCH   1   3
HETATM    3  P   UNK N   1      30.554  26.133  -4.170  0.00  0.00     0.262 P 
HETATM    4  O   UNK N   1      30.883  26.969  -2.906  0.00  0.00    -0.652 OA
BRANCH   3   5
HETATM    5  O   UNK N   1      31.427  24.668  -3.759  0.00  0.00    -0.301 OA
BRANCH   5   6
HETATM    6  C   UNK N   1      30.739  23.438  -3.724  0.00  0.00     0.233 C 
BRANCH   6   7
HETATM    7  C   UNK N   1      30.011  23.137  -2.441  0.00  0.00     0.170 C 
HETATM    8  O   UNK N   1      30.642  22.963  -1.411  0.00  0.00    -0.648 OA
BRANCH   7   9
HETATM    9  O   UNK N   1      28.664  23.088  -2.414  0.00  0.00    -0.774 OA
HETATM   10  H   UNK N   1      27.923  23.291  -2.949  0.00  0.00     0.167 HD
ENDBRANCH   7   9
ENDBRANCH   6   7
BRANCH   6  11
HETATM   11  C   UNK N   1      31.808  22.346  -3.931  0.00  0.00     0.082 C 
BRANCH  11  12
HETATM   12  C   UNK N   1      31.587  21.570  -5.208  0.00  0.00    -0.055 A 
HETATM   13  C   UNK N   1      30.380  20.896  -5.417  0.00  0.00     0.007 A 
HETATM   14  C   UNK N   1      30.206  20.105  -6.558  0.00  0.00     0.001 A 
HETATM   15  C   UNK N   1      31.237  19.988  -7.496  0.00  0.00     0.000 A 
HETATM   16  C   UNK N   1      32.438  20.673  -7.302  0.00  0.00     0.001 A 
HETATM   17  C   UNK N   1      32.613  21.461  -6.162  0.00  0.00     0.007 A 
ENDBRANCH  11  12
ENDBRANCH   6  11
ENDBRANCH   5   6
ENDBRANCH   3   5
BRANCH   3  18
HETATM   18  O   UNK N   1      31.628  26.894  -5.298  0.00  0.00    -0.328 OA
HETATM   19  H   UNK N   1      32.587  26.846  -5.167  0.00  0.00     0.220 HD
ENDBRANCH   3  18
ENDBRANCH   1   3
BRANCH   1  20
HETATM   20  N   UNK N   1      27.837  25.676  -3.731  0.00  0.00    -0.344 N 
HETATM   21  C   UNK N   1      26.699  25.050  -4.170  0.00  0.00     0.240 C 
HETATM   22  O   UNK N   1      26.144  24.300  -3.384  0.00  0.00    -0.271 OA
HETATM   23  H   UNK N   1      28.082  25.515  -2.792  0.00  0.00     0.163 HD
BRANCH  21  24
HETATM   24  C   UNK N   1      26.081  25.179  -5.586  0.00  0.00     0.174 C 
HETATM   25  C   UNK N   1      25.214  26.385  -5.869  0.00  0.00     0.042 C 
BRANCH  24  26
HETATM   26  N   UNK N   1      25.229  24.072  -5.957  0.00  0.00    -0.324 N 
HETATM   27  C   UNK N   1      25.606  22.914  -6.537  0.00  0.00     0.361 C 
HETATM   28  O   UNK N   1      24.730  22.134  -6.889  0.00  0.00    -0.238 OA
HETATM   29  H   UNK N   1      24.268  24.173  -5.765  0.00  0.00     0.165 HD
BRANCH  27  30
HETATM   30  O   UNK N   1      26.920  22.610  -6.729  0.00  0.00    -0.299 OA
BRANCH  30  31
HETATM   31  C   UNK N   1      27.456  22.198  -7.941  0.00  0.00     0.219 C 
BRANCH  31  32
HETATM   32  C   UNK N   1      28.748  22.898  -8.232  0.00  0.00    -0.034 A 
HETATM   33  C   UNK N   1      29.466  22.550  -9.382  0.00  0.00     0.009 A 
HETATM   34  C   UNK N   1      30.733  23.092  -9.607  0.00  0.00     0.001 A 
HETATM   35  C   UNK N   1      31.289  23.976  -8.679  0.00  0.00     0.000 A 
HETATM   36  C   UNK N   1      30.572  24.329  -7.530  0.00  0.00     0.001 A 
HETATM   37  C   UNK N   1      29.305  23.786  -7.303  0.00  0.00     0.009 A 
ENDBRANCH  31  32
ENDBRANCH  30  31
ENDBRANCH  27  30
ENDBRANCH  24  26
ENDBRANCH  21  24
ENDBRANCH   1  20
TORSDOF 14
ENDMDL
MODEL 6
REMARK VINA RESULT:      -5.7      2.419      5.681
REMARK  14 active torsions:
REMARK  status: ('A' for Active; 'I' for Inactive)
REMARK    1  A    between atoms: C_1  and  O_3 
REMARK    2  A    between atoms: C_1  and  C_5 
REMARK    3  A    between atoms: C_4  and  C_5 
REMARK    4  A    between atoms: C_4  and  C_6 
REMARK    5  A    between atoms: C_5  and  O_12 
REMARK    6  A    between atoms: P_13  and  O_12 
REMARK    7  A    between atoms: P_13  and  O_15 
REMARK    8  A    between atoms: P_13  and  C_16 
REMARK    9  A    between atoms: C_16  and  N_18 
REMARK       I    between atoms: N_18  and  C_19 
REMARK   10  A    between atoms: C_19  and  C_21 
REMARK   11  A    between atoms: C_21  and  N_23 
REMARK       I    between atoms: N_23  and  C_24 
REMARK   12  A    between atoms: C_24  and  O_26 
REMARK   13  A    between atoms: O_26  and  C_27 
REMARK   14  A    between atoms: C_27  and  C_28 
ROOT
HETATM    1  C   UNK N   1      29.540  24.863  -3.751  0.00  0.00     0.192 C 
HETATM    2  C   UNK N   1      29.530  24.715  -5.254  0.00  0.00     0.045 C 
ENDROOT
BRANCH   1   3
HETATM    3  P   UNK N   1      29.606  23.178  -2.872  0.00  0.00     0.262 P 
HETATM    4  O   UNK N   1      28.191  23.066  -2.248  0.00  0.00    -0.652 OA
BRANCH   3   5
HETATM    5  O   UNK N   1      29.793  21.521  -3.417  0.00  0.00    -0.301 OA
BRANCH   5   6
HETATM    6  C   UNK N   1      30.983  21.137  -4.068  0.00  0.00     0.233 C 
BRANCH   6   7
HETATM    7  C   UNK N   1      32.260  21.520  -3.369  0.00  0.00     0.170 C 
HETATM    8  O   UNK N   1      33.092  22.197  -3.951  0.00  0.00    -0.648 OA
BRANCH   7   9
HETATM    9  O   UNK N   1      32.479  21.147  -2.092  0.00  0.00    -0.774 OA
HETATM   10  H   UNK N   1      32.206  20.501  -1.471  0.00  0.00     0.167 HD
ENDBRANCH   7   9
ENDBRANCH   6   7
BRANCH   6  11
HETATM   11  C   UNK N   1      30.964  21.842  -5.440  0.00  0.00     0.082 C 
BRANCH  11  12
HETATM   12  C   UNK N   1      30.104  21.108  -6.443  0.00  0.00    -0.055 A 
HETATM   13  C   UNK N   1      28.959  21.719  -6.964  0.00  0.00     0.007 A 
HETATM   14  C   UNK N   1      28.115  21.010  -7.825  0.00  0.00     0.001 A 
HETATM   15  C   UNK N   1      28.413  19.688  -8.170  0.00  0.00     0.000 A 
HETATM   16  C   UNK N   1      29.563  19.078  -7.666  0.00  0.00     0.001 A 
HETATM   17  C   UNK N   1      30.406  19.785  -6.806  0.00  0.00     0.007 A 
ENDBRANCH  11  12
ENDBRANCH   6  11
ENDBRANCH   5   6
ENDBRANCH   3   5
BRANCH   3  18
HETATM   18  O   UNK N   1      30.553  23.194  -1.420  0.00  0.00    -0.328 OA
HETATM   19  H   UNK N   1      31.435  23.597  -1.417  0.00  0.00     0.220 HD
ENDBRANCH   3  18
ENDBRANCH   1   3
BRANCH   1  20
HETATM   20  N   UNK N   1      30.625  25.730  -3.354  0.00  0.00    -0.344 N 
HETATM   21  C   UNK N   1      30.681  27.099  -3.411  0.00  0.00     0.240 C 
HETATM   22  O   UNK N   1      31.677  27.630  -2.951  0.00  0.00    -0.271 OA
HETATM   23  H   UNK N   1      31.425  25.281  -2.996  0.00  0.00     0.163 HD
BRANCH  21  24
HETATM   24  C   UNK N   1      29.575  28.029  -3.973  0.00  0.00     0.174 C 
HETATM   25  C   UNK N   1      29.975  29.049  -5.016  0.00  0.00     0.042 C 
BRANCH  24  26
HETATM   26  N   UNK N   1      28.919  28.833  -2.966  0.00  0.00    -0.324 N 
HETATM   27  C   UNK N   1      27.597  29.074  -2.854  0.00  0.00     0.361 C 
HETATM   28  O   UNK N   1      27.228  29.878  -2.006  0.00  0.00    -0.238 OA
HETATM   29  H   UNK N   1      29.500  29.250  -2.289  0.00  0.00     0.165 HD
BRANCH  27  30
HETATM   30  O   UNK N   1      26.689  28.448  -3.653  0.00  0.00    -0.299 OA
BRANCH  30  31
HETATM   31  C   UNK N   1      26.055  27.257  -3.330  0.00  0.00     0.219 C 
BRANCH  31  32
HETATM   32  C   UNK N   1      25.892  26.382  -4.535  0.00  0.00    -0.034 A 
HETATM   33  C   UNK N   1      25.950  24.992  -4.380  0.00  0.00     0.009 A 
HETATM   34  C   UNK N   1      25.931  24.161  -5.502  0.00  0.00     0.001 A 
HETATM   35  C   UNK N   1      25.864  24.717  -6.782  0.00  0.00     0.000 A 
HETATM   36  C   UNK N   1      25.801  26.106  -6.940  0.00  0.00     0.001 A 
HETATM   37  C   UNK N   1      25.821  26.939  -5.818  0.00  0.00     0.009 A 
ENDBRANCH  31  32
ENDBRANCH  30  31
ENDBRANCH  27  30
ENDBRANCH  24  26
ENDBRANCH  21  24
ENDBRANCH   1  20
TORSDOF 14
ENDMDL
MODEL 7
REMARK VINA RESULT:      -5.7     17.468     21.212
REMARK  14 active torsions:
REMARK  status: ('A' for Active; 'I' for Inactive)
REMARK    1  A    between atoms: C_1  and  O_3 
REMARK    2  A    between atoms: C_1  and  C_5 
REMARK    3  A    between atoms: C_4  and  C_5 
REMARK    4  A    between atoms: C_4  and  C_6 
REMARK    5  A    between atoms: C_5  and  O_12 
REMARK    6  A    between atoms: P_13  and  O_12 
REMARK    7  A    between atoms: P_13  and  O_15 
REMARK    8  A    between atoms: P_13  and  C_16 
REMARK    9  A    between atoms: C_16  and  N_18 
REMARK       I    between atoms: N_18  and  C_19 
REMARK   10  A    between atoms: C_19  and  C_21 
REMARK   11  A    between atoms: C_21  and  N_23 
REMARK       I    between atoms: N_23  and  C_24 
REMARK   12  A    between atoms: C_24  and  O_26 
REMARK   13  A    between atoms: O_26  and  C_27 
REMARK   14  A    between atoms: C_27  and  C_28 
ROOT
HETATM    1  C   UNK N   1      35.242  15.023  10.802  0.00  0.00     0.192 C 
HETATM    2  C   UNK N   1      35.431  16.461  11.224  0.00  0.00     0.045 C 
ENDROOT
BRANCH   1   3
HETATM    3  P   UNK N   1      35.927  13.808  12.095  0.00  0.00     0.262 P 
HETATM    4  O   UNK N   1      36.118  14.711  13.341  0.00  0.00    -0.652 OA
BRANCH   3   5
HETATM    5  O   UNK N   1      35.288  12.382  12.891  0.00  0.00    -0.301 OA
BRANCH   5   6
HETATM    6  C   UNK N   1      35.936  11.881  14.039  0.00  0.00     0.233 C 
BRANCH   6   7
HETATM    7  C   UNK N   1      36.833  10.694  13.813  0.00  0.00     0.170 C 
HETATM    8  O   UNK N   1      37.776  10.782  13.044  0.00  0.00    -0.648 OA
BRANCH   7   9
HETATM    9  O   UNK N   1      36.623   9.541  14.480  0.00  0.00    -0.774 OA
HETATM   10  H   UNK N   1      36.570   8.618  14.329  0.00  0.00     0.167 HD
ENDBRANCH   7   9
ENDBRANCH   6   7
BRANCH   6  11
HETATM   11  C   UNK N   1      34.814  11.452  15.006  0.00  0.00     0.082 C 
BRANCH  11  12
HETATM   12  C   UNK N   1      35.056  11.952  16.412  0.00  0.00    -0.055 A 
HETATM   13  C   UNK N   1      35.237  11.040  17.457  0.00  0.00     0.007 A 
HETATM   14  C   UNK N   1      35.373  11.498  18.772  0.00  0.00     0.001 A 
HETATM   15  C   UNK N   1      35.330  12.869  19.047  0.00  0.00     0.000 A 
HETATM   16  C   UNK N   1      35.167  13.785  18.006  0.00  0.00     0.001 A 
HETATM   17  C   UNK N   1      35.030  13.328  16.693  0.00  0.00     0.007 A 
ENDBRANCH  11  12
ENDBRANCH   6  11
ENDBRANCH   5   6
ENDBRANCH   3   5
BRANCH   3  18
HETATM   18  O   UNK N   1      37.579  13.362  11.816  0.00  0.00    -0.328 OA
HETATM   19  H   UNK N   1      37.956  12.587  12.259  0.00  0.00     0.220 HD
ENDBRANCH   3  18
ENDBRANCH   1   3
BRANCH   1  20
HETATM   20  N   UNK N   1      33.850  14.781  10.507  0.00  0.00    -0.344 N 
HETATM   21  C   UNK N   1      33.232  14.770   9.283  0.00  0.00     0.240 C 
HETATM   22  O   UNK N   1      32.050  14.468   9.263  0.00  0.00    -0.271 OA
HETATM   23  H   UNK N   1      33.271  14.600  11.283  0.00  0.00     0.163 HD
BRANCH  21  24
HETATM   24  C   UNK N   1      33.911  15.068   7.921  0.00  0.00     0.174 C 
HETATM   25  C   UNK N   1      34.935  14.079   7.413  0.00  0.00     0.042 C 
BRANCH  24  26
HETATM   26  N   UNK N   1      34.625  16.324   7.885  0.00  0.00    -0.324 N 
HETATM   27  C   UNK N   1      34.104  17.551   7.677  0.00  0.00     0.361 C 
HETATM   28  O   UNK N   1      34.877  18.493   7.561  0.00  0.00    -0.238 OA
HETATM   29  H   UNK N   1      35.598  16.280   8.028  0.00  0.00     0.165 HD
BRANCH  27  30
HETATM   30  O   UNK N   1      32.758  17.747   7.596  0.00  0.00    -0.299 OA
BRANCH  30  31
HETATM   31  C   UNK N   1      31.963  18.153   8.659  0.00  0.00     0.219 C 
BRANCH  31  32
HETATM   32  C   UNK N   1      30.511  17.928   8.371  0.00  0.00    -0.034 A 
HETATM   33  C   UNK N   1      29.559  18.350   9.305  0.00  0.00     0.009 A 
HETATM   34  C   UNK N   1      28.210  18.036   9.122  0.00  0.00     0.001 A 
HETATM   35  C   UNK N   1      27.812  17.290   8.009  0.00  0.00     0.000 A 
HETATM   36  C   UNK N   1      28.762  16.870   7.071  0.00  0.00     0.001 A 
HETATM   37  C   UNK N   1      30.111  17.183   7.254  0.00  0.00     0.009 A 
ENDBRANCH  31  32
ENDBRANCH  30  31
ENDBRANCH  27  30
ENDBRANCH  24  26
ENDBRANCH  21  24
ENDBRANCH   1  20
TORSDOF 14
ENDMDL
MODEL 8
REMARK VINA RESULT:      -5.7      2.466      5.950
REMARK  14 active torsions:
REMARK  status: ('A' for Active; 'I' for Inactive)
REMARK    1  A    between atoms: C_1  and  O_3 
REMARK    2  A    between atoms: C_1  and  C_5 
REMARK    3  A    between atoms: C_4  and  C_5 
REMARK    4  A    between atoms: C_4  and  C_6 
REMARK    5  A    between atoms: C_5  and  O_12 
REMARK    6  A    between atoms: P_13  and  O_12 
REMARK    7  A    between atoms: P_13  and  O_15 
REMARK    8  A    between atoms: P_13  and  C_16 
REMARK    9  A    between atoms: C_16  and  N_18 
REMARK       I    between atoms: N_18  and  C_19 
REMARK   10  A    between atoms: C_19  and  C_21 
REMARK   11  A    between atoms: C_21  and  N_23 
REMARK       I    between atoms: N_23  and  C_24 
REMARK   12  A    between atoms: C_24  and  O_26 
REMARK   13  A    between atoms: O_26  and  C_27 
REMARK   14  A    between atoms: C_27  and  C_28 
ROOT
HETATM    1  C   UNK N   1      28.893  24.106  -4.345  0.00  0.00     0.192 C 
HETATM    2  C   UNK N   1      29.682  25.384  -4.515  0.00  0.00     0.045 C 
ENDROOT
BRANCH   1   3
HETATM    3  P   UNK N   1      29.735  22.909  -3.131  0.00  0.00     0.262 P 
HETATM    4  O   UNK N   1      28.699  22.806  -1.982  0.00  0.00    -0.652 OA
BRANCH   3   5
HETATM    5  O   UNK N   1      30.217  21.224  -3.212  0.00  0.00    -0.301 OA
BRANCH   5   6
HETATM    6  C   UNK N   1      31.336  20.861  -3.989  0.00  0.00     0.233 C 
BRANCH   6   7
HETATM    7  C   UNK N   1      32.678  21.170  -3.382  0.00  0.00     0.170 C 
HETATM    8  O   UNK N   1      33.613  21.484  -4.101  0.00  0.00    -0.648 OA
BRANCH   7   9
HETATM    9  O   UNK N   1      32.849  21.133  -2.045  0.00  0.00    -0.774 OA
HETATM   10  H   UNK N   1      33.220  21.640  -1.351  0.00  0.00     0.167 HD
ENDBRANCH   7   9
ENDBRANCH   6   7
BRANCH   6  11
HETATM   11  C   UNK N   1      31.215  21.657  -5.305  0.00  0.00     0.082 C 
BRANCH  11  12
HETATM   12  C   UNK N   1      30.775  20.785  -6.457  0.00  0.00    -0.055 A 
HETATM   13  C   UNK N   1      29.414  20.640  -6.745  0.00  0.00     0.007 A 
HETATM   14  C   UNK N   1      29.000  19.764  -7.754  0.00  0.00     0.001 A 
HETATM   15  C   UNK N   1      29.944  19.033  -8.482  0.00  0.00     0.000 A 
HETATM   16  C   UNK N   1      31.305  19.186  -8.211  0.00  0.00     0.001 A 
HETATM   17  C   UNK N   1      31.719  20.058  -7.203  0.00  0.00     0.007 A 
ENDBRANCH  11  12
ENDBRANCH   6  11
ENDBRANCH   5   6
ENDBRANCH   3   5
BRANCH   3  18
HETATM   18  O   UNK N   1      31.052  23.624  -2.258  0.00  0.00    -0.328 OA
HETATM   19  H   UNK N   1      30.936  24.477  -1.813  0.00  0.00     0.220 HD
ENDBRANCH   3  18
ENDBRANCH   1   3
BRANCH   1  20
HETATM   20  N   UNK N   1      27.539  24.419  -3.954  0.00  0.00    -0.344 N 
HETATM   21  C   UNK N   1      26.456  24.656  -4.761  0.00  0.00     0.240 C 
HETATM   22  O   UNK N   1      25.383  24.830  -4.209  0.00  0.00    -0.271 OA
HETATM   23  H   UNK N   1      27.371  24.467  -2.985  0.00  0.00     0.163 HD
BRANCH  21  24
HETATM   24  C   UNK N   1      26.470  24.683  -6.312  0.00  0.00     0.174 C 
HETATM   25  C   UNK N   1      26.387  26.031  -6.993  0.00  0.00     0.042 C 
BRANCH  24  26
HETATM   26  N   UNK N   1      25.387  23.944  -6.920  0.00  0.00    -0.324 N 
HETATM   27  C   UNK N   1      25.485  23.004  -7.883  0.00  0.00     0.361 C 
HETATM   28  O   UNK N   1      24.449  22.564  -8.366  0.00  0.00    -0.238 OA
HETATM   29  H   UNK N   1      24.480  24.147  -6.597  0.00  0.00     0.165 HD
BRANCH  27  30
HETATM   30  O   UNK N   1      26.695  22.549  -8.312  0.00  0.00    -0.299 OA
BRANCH  30  31
HETATM   31  C   UNK N   1      27.263  22.878  -9.535  0.00  0.00     0.219 C 
BRANCH  31  32
HETATM   32  C   UNK N   1      28.736  23.115  -9.406  0.00  0.00    -0.034 A 
HETATM   33  C   UNK N   1      29.616  22.390 -10.218  0.00  0.00     0.009 A 
HETATM   34  C   UNK N   1      30.995  22.496 -10.026  0.00  0.00     0.001 A 
HETATM   35  C   UNK N   1      31.498  23.320  -9.016  0.00  0.00     0.000 A 
HETATM   36  C   UNK N   1      30.622  24.050  -8.205  0.00  0.00     0.001 A 
HETATM   37  C   UNK N   1      29.241  23.944  -8.395  0.00  0.00     0.009 A 
ENDBRANCH  31  32
ENDBRANCH  30  31
ENDBRANCH  27  30
ENDBRANCH  24  26
ENDBRANCH  21  24
ENDBRANCH   1  20
TORSDOF 14
ENDMDL
MODEL 9
REMARK VINA RESULT:      -5.7      2.623      5.816
REMARK  14 active torsions:
REMARK  status: ('A' for Active; 'I' for Inactive)
REMARK    1  A    between atoms: C_1  and  O_3 
REMARK    2  A    between atoms: C_1  and  C_5 
REMARK    3  A    between atoms: C_4  and  C_5 
REMARK    4  A    between atoms: C_4  and  C_6 
REMARK    5  A    between atoms: C_5  and  O_12 
REMARK    6  A    between atoms: P_13  and  O_12 
REMARK    7  A    between atoms: P_13  and  O_15 
REMARK    8  A    between atoms: P_13  and  C_16 
REMARK    9  A    between atoms: C_16  and  N_18 
REMARK       I    between atoms: N_18  and  C_19 
REMARK   10  A    between atoms: C_19  and  C_21 
REMARK   11  A    between atoms: C_21  and  N_23 
REMARK       I    between atoms: N_23  and  C_24 
REMARK   12  A    between atoms: C_24  and  O_26 
REMARK   13  A    between atoms: O_26  and  C_27 
REMARK   14  A    between atoms: C_27  and  C_28 
ROOT
HETATM    1  C   UNK N   1      26.173  25.580  -6.085  0.00  0.00     0.192 C 
HETATM    2  C   UNK N   1      25.390  26.782  -5.612  0.00  0.00     0.045 C 
ENDROOT
BRANCH   1   3
HETATM    3  P   UNK N   1      27.053  24.696  -4.650  0.00  0.00     0.262 P 
HETATM    4  O   UNK N   1      27.522  23.371  -5.304  0.00  0.00    -0.652 OA
BRANCH   3   5
HETATM    5  O   UNK N   1      28.480  25.043  -3.691  0.00  0.00    -0.301 OA
BRANCH   5   6
HETATM    6  C   UNK N   1      29.454  24.040  -3.511  0.00  0.00     0.233 C 
BRANCH   6   7
HETATM    7  C   UNK N   1      29.398  23.307  -2.197  0.00  0.00     0.170 C 
HETATM    8  O   UNK N   1      30.432  23.036  -1.608  0.00  0.00    -0.648 OA
BRANCH   7   9
HETATM    9  O   UNK N   1      28.213  22.976  -1.648  0.00  0.00    -0.774 OA
HETATM   10  H   UNK N   1      27.295  23.126  -1.765  0.00  0.00     0.167 HD
ENDBRANCH   7   9
ENDBRANCH   6   7
BRANCH   6  11
HETATM   11  C   UNK N   1      30.819  24.752  -3.600  0.00  0.00     0.082 C 
BRANCH  11  12
HETATM   12  C   UNK N   1      31.547  24.426  -4.883  0.00  0.00    -0.055 A 
HETATM   13  C   UNK N   1      30.892  24.558  -6.112  0.00  0.00     0.007 A 
HETATM   14  C   UNK N   1      31.533  24.173  -7.294  0.00  0.00     0.001 A 
HETATM   15  C   UNK N   1      32.832  23.657  -7.253  0.00  0.00     0.000 A 
HETATM   16  C   UNK N   1      33.498  23.539  -6.031  0.00  0.00     0.001 A 
HETATM   17  C   UNK N   1      32.858  23.922  -4.851  0.00  0.00     0.007 A 
ENDBRANCH  11  12
ENDBRANCH   6  11
ENDBRANCH   5   6
ENDBRANCH   3   5
BRANCH   3  18
HETATM   18  O   UNK N   1      25.964  24.053  -3.464  0.00  0.00    -0.328 OA
HETATM   19  H   UNK N   1      26.189  23.242  -2.984  0.00  0.00     0.220 HD
ENDBRANCH   3  18
ENDBRANCH   1   3
BRANCH   1  20
HETATM   20  N   UNK N   1      25.305  24.693  -6.824  0.00  0.00    -0.344 N 
HETATM   21  C   UNK N   1      25.618  23.903  -7.900  0.00  0.00     0.240 C 
HETATM   22  O   UNK N   1      24.738  23.173  -8.324  0.00  0.00    -0.271 OA
HETATM   23  H   UNK N   1      24.371  24.650  -6.516  0.00  0.00     0.163 HD
BRANCH  21  24
HETATM   24  C   UNK N   1      27.001  23.826  -8.598  0.00  0.00     0.174 C 
HETATM   25  C   UNK N   1      27.448  25.021  -9.409  0.00  0.00     0.042 C 
BRANCH  24  26
HETATM   26  N   UNK N   1      27.125  22.732  -9.534  0.00  0.00    -0.324 N 
HETATM   27  C   UNK N   1      28.094  21.794  -9.565  0.00  0.00     0.361 C 
HETATM   28  O   UNK N   1      28.106  21.009 -10.505  0.00  0.00    -0.238 OA
HETATM   29  H   UNK N   1      26.426  22.663 -10.224  0.00  0.00     0.165 HD
BRANCH  27  30
HETATM   30  O   UNK N   1      29.037  21.714  -8.585  0.00  0.00    -0.299 OA
BRANCH  30  31
HETATM   31  C   UNK N   1      30.125  20.853  -8.618  0.00  0.00     0.219 C 
BRANCH  31  32
HETATM   32  C   UNK N   1      30.661  20.599  -7.242  0.00  0.00    -0.034 A 
HETATM   33  C   UNK N   1      29.905  20.998  -6.134  0.00  0.00     0.009 A 
HETATM   34  C   UNK N   1      30.438  20.892  -4.847  0.00  0.00     0.001 A 
HETATM   35  C   UNK N   1      31.732  20.396  -4.667  0.00  0.00     0.000 A 
HETATM   36  C   UNK N   1      32.489  19.992  -5.772  0.00  0.00     0.001 A 
HETATM   37  C   UNK N   1      31.957  20.099  -7.060  0.00  0.00     0.009 A 
ENDBRANCH  31  32
ENDBRANCH  30  31
ENDBRANCH  27  30
ENDBRANCH  24  26
ENDBRANCH  21  24
ENDBRANCH   1  20
TORSDOF 14
ENDMDL
