REMARK  14 active torsions:
REMARK  status: ('A' for Active; 'I' for Inactive)
REMARK    1  A    between atoms: C_1  and  O_3 
REMARK    2  A    between atoms: C_1  and  C_5 
REMARK    3  A    between atoms: C_4  and  C_5 
REMARK    4  A    between atoms: C_4  and  C_6 
REMARK    5  A    between atoms: C_5  and  O_12 
REMARK    6  A    between atoms: P_13  and  O_12 
REMARK    7  A    between atoms: P_13  and  O_15 
REMARK    8  A    between atoms: P_13  and  C_16 
REMARK    9  A    between atoms: C_16  and  N_18 
REMARK       I    between atoms: N_18  and  C_19 
REMARK   10  A    between atoms: C_19  and  C_21 
REMARK   11  A    between atoms: C_21  and  N_23 
REMARK       I    between atoms: N_23  and  C_24 
REMARK   12  A    between atoms: C_24  and  O_26 
REMARK   13  A    between atoms: O_26  and  C_27 
REMARK   14  A    between atoms: C_27  and  C_28 
ROOT
HETATM    1  C   UNK N   1      -0.900  -0.616  -1.019  0.00  0.00     0.192 C 
HETATM    2  C   UNK N   1      -1.643  -1.921  -1.181  0.00  0.00     0.045 C 
ENDROOT
BRANCH   1   3
HETATM    3  P   UNK N   1      -2.077   0.829  -0.644  0.00  0.00     0.262 P 
HETATM    4  O   UNK N   1      -2.784   1.053  -2.006  0.00  0.00    -0.652 OA
BRANCH   3   5
HETATM    5  O   UNK N   1      -3.460   1.037   0.415  0.00  0.00    -0.301 OA
BRANCH   5   6
HETATM    6  C   UNK N   1      -3.668   0.124   1.469  0.00  0.00     0.233 C 
BRANCH   6   7
HETATM    7  C   UNK N   1      -3.423  -1.323   1.134  0.00  0.00     0.170 C 
HETATM    8  O   UNK N   1      -2.616  -1.969   1.783  0.00  0.00    -0.648 OA
BRANCH   7   9
HETATM    9  O   UNK N   1      -4.112  -1.922   0.142  0.00  0.00    -0.774 OA
HETATM   10  H   UNK N   1      -4.712  -1.716  -0.547  0.00  0.00     0.167 HD
ENDBRANCH   7   9
ENDBRANCH   6   7
BRANCH   6  11
HETATM   11  C   UNK N   1      -5.149   0.273   1.874  0.00  0.00     0.082 C 
BRANCH  11  12
HETATM   12  C   UNK N   1      -6.075   0.173   0.684  0.00  0.00    -0.055 A 
HETATM   13  C   UNK N   1      -6.857  -0.972   0.500  0.00  0.00     0.007 A 
HETATM   14  C   UNK N   1      -7.648  -1.105  -0.646  0.00  0.00     0.001 A 
HETATM   15  C   UNK N   1      -7.663  -0.093  -1.611  0.00  0.00     0.000 A 
HETATM   16  C   UNK N   1      -6.898   1.060  -1.425  0.00  0.00     0.001 A 
HETATM   17  C   UNK N   1      -6.107   1.193  -0.282  0.00  0.00     0.007 A 
ENDBRANCH  11  12
ENDBRANCH   6  11
ENDBRANCH   5   6
ENDBRANCH   3   5
BRANCH   3  18
HETATM   18  O   UNK N   1      -1.269   2.356  -0.493  0.00  0.00    -0.328 OA
HETATM   19  H   UNK N   1      -0.304   2.391  -0.409  0.00  0.00     0.220 HD
ENDBRANCH   3  18
ENDBRANCH   1   3
BRANCH   1  20
HETATM   20  N   UNK N   1       0.126  -0.761  -0.013  0.00  0.00    -0.344 N 
HETATM   21  C   UNK N   1       1.241   0.014   0.179  0.00  0.00     0.240 C 
HETATM   22  O   UNK N   1       1.938  -0.251   1.144  0.00  0.00    -0.271 OA
HETATM   23  H   UNK N   1       0.010  -1.511   0.614  0.00  0.00     0.163 HD
BRANCH  21  24
HETATM   24  C   UNK N   1       1.670   1.219  -0.697  0.00  0.00     0.174 C 
HETATM   25  C   UNK N   1       0.832   1.538  -1.915  0.00  0.00     0.042 C 
BRANCH  24  26
HETATM   26  N   UNK N   1       3.004   1.103  -1.241  0.00  0.00    -0.324 N 
HETATM   27  C   UNK N   1       4.163   1.072  -0.552  0.00  0.00     0.361 C 
HETATM   28  O   UNK N   1       5.211   1.089  -1.186  0.00  0.00    -0.238 OA
HETATM   29  H   UNK N   1       3.075   1.039  -2.221  0.00  0.00     0.165 HD
BRANCH  27  30
HETATM   30  O   UNK N   1       4.180   1.023   0.809  0.00  0.00    -0.299 OA
BRANCH  30  31
HETATM   31  C   UNK N   1       5.337   0.966   1.574  0.00  0.00     0.219 C 
BRANCH  31  32
HETATM   32  C   UNK N   1       6.292  -0.058   1.042  0.00  0.00    -0.034 A 
HETATM   33  C   UNK N   1       7.533   0.361   0.549  0.00  0.00     0.009 A 
HETATM   34  C   UNK N   1       8.386  -0.555  -0.071  0.00  0.00     0.001 A 
HETATM   35  C   UNK N   1       7.996  -1.890  -0.207  0.00  0.00     0.000 A 
HETATM   36  C   UNK N   1       6.758  -2.313   0.289  0.00  0.00     0.001 A 
HETATM   37  C   UNK N   1       5.903  -1.397   0.908  0.00  0.00     0.009 A 
ENDBRANCH  31  32
ENDBRANCH  30  31
ENDBRANCH  27  30
ENDBRANCH  24  26
ENDBRANCH  21  24
ENDBRANCH   1  20
TORSDOF 14
