MODEL 1
REMARK VINA RESULT:      -6.0      0.000      0.000
REMARK  10 active torsions:
REMARK  status: ('A' for Active; 'I' for Inactive)
REMARK    1  A    between atoms: C_1  and  C_2 
REMARK    2  A    between atoms: C_1  and  N_19 
REMARK    3  A    between atoms: C_5  and  C_8 
REMARK    4  A    between atoms: C_8  and  N_20 
REMARK    5  A    between atoms: C_8  and  P_26 
REMARK       I    between atoms: C_9  and  N_20 
REMARK    6  A    between atoms: C_9  and  O_22 
REMARK    7  A    between atoms: C_10  and  C_11 
REMARK    8  A    between atoms: C_10  and  O_22 
REMARK    9  A    between atoms: O_24  and  P_26 
REMARK   10  A    between atoms: O_25  and  P_26 
ROOT
HETATM    1  C   UNK N   1      32.291  17.622   7.865  0.00  0.00     0.231 C 
ENDROOT
BRANCH   1   2
HETATM    2  C   UNK N   1      32.043  16.797   6.624  0.00  0.00    -0.024 A 
HETATM    3  C   UNK N   1      31.487  15.511   6.691  0.00  0.00     0.011 A 
HETATM    4  C   UNK N   1      31.355  14.736   5.537  0.00  0.00     0.016 A 
HETATM    5  C   UNK N   1      31.781  15.230   4.298  0.00  0.00     0.007 A 
HETATM    6  C   UNK N   1      32.319  16.523   4.223  0.00  0.00     0.016 A 
HETATM    7  C   UNK N   1      32.450  17.300   5.379  0.00  0.00     0.011 A 
BRANCH   5   8
HETATM    8  C   UNK N   1      31.686  14.379   3.091  0.00  0.00     0.102 C 
HETATM    9  N   UNK N   1      30.557  13.893   2.726  0.00  0.00    -0.385 N 
HETATM   10  H   UNK N   1      30.436  13.488   1.837  0.00  0.00     0.157 HD
ATOM     11  HN  UNK N   1      29.766  13.928   3.370  1.00  0.00     0.157 HD
BRANCH   8  12
HETATM   12  N   UNK N   1      32.832  14.142   2.298  0.00  0.00    -0.385 N 
HETATM   13  H   UNK N   1      33.508  14.846   2.167  0.00  0.00     0.157 HD
HETATM   14  H   UNK N   1      32.955  13.263   1.871  0.00  0.00     0.157 HD
ENDBRANCH   8  12
ENDBRANCH   5   8
ENDBRANCH   1   2
BRANCH   1  15
HETATM   15  N   UNK N   1      31.423  17.182   8.934  0.00  0.00    -0.317 N 
HETATM   16  C   UNK N   1      30.192  17.705   9.136  0.00  0.00     0.361 C 
HETATM   17  O   UNK N   1      29.508  17.290  10.056  0.00  0.00    -0.238 OA
HETATM   18  H   UNK N   1      31.742  16.474   9.539  0.00  0.00     0.166 HD
BRANCH  16  19
HETATM   19  O   UNK N   1      29.713  18.675   8.309  0.00  0.00    -0.299 OA
BRANCH  19  20
HETATM   20  C   UNK N   1      28.445  18.622   7.760  0.00  0.00     0.219 C 
BRANCH  20  21
HETATM   21  C   UNK N   1      28.383  17.752   6.552  0.00  0.00    -0.034 A 
HETATM   22  C   UNK N   1      28.827  18.220   5.312  0.00  0.00     0.009 A 
HETATM   23  C   UNK N   1      28.716  17.405   4.181  0.00  0.00     0.001 A 
HETATM   24  C   UNK N   1      28.151  16.131   4.289  0.00  0.00     0.000 A 
HETATM   25  C   UNK N   1      27.705  15.664   5.529  0.00  0.00     0.001 A 
HETATM   26  C   UNK N   1      27.822  16.474   6.660  0.00  0.00     0.009 A 
ENDBRANCH  20  21
ENDBRANCH  19  20
ENDBRANCH  16  19
ENDBRANCH   1  15
BRANCH   1  27
HETATM   27  P   UNK N   1      34.056  17.579   8.487  0.00  0.00     0.264 P 
HETATM   28  O   UNK N   1      34.886  16.538   7.689  0.00  0.00    -0.652 OA
BRANCH  27  29
HETATM   29  O   UNK N   1      34.943  19.060   8.316  0.00  0.00    -0.327 OA
HETATM   30  H   UNK N   1      35.877  19.261   8.489  0.00  0.00     0.220 HD
ENDBRANCH  27  29
BRANCH  27  31
HETATM   31  O   UNK N   1      34.224  17.075  10.140  0.00  0.00    -0.327 OA
HETATM   32  H   UNK N   1      35.096  17.030  10.559  0.00  0.00     0.220 HD
ENDBRANCH  27  31
ENDBRANCH   1  27
TORSDOF 10
ENDMDL
MODEL 2
REMARK VINA RESULT:      -6.0      3.184      5.311
REMARK  10 active torsions:
REMARK  status: ('A' for Active; 'I' for Inactive)
REMARK    1  A    between atoms: C_1  and  C_2 
REMARK    2  A    between atoms: C_1  and  N_19 
REMARK    3  A    between atoms: C_5  and  C_8 
REMARK    4  A    between atoms: C_8  and  N_20 
REMARK    5  A    between atoms: C_8  and  P_26 
REMARK       I    between atoms: C_9  and  N_20 
REMARK    6  A    between atoms: C_9  and  O_22 
REMARK    7  A    between atoms: C_10  and  C_11 
REMARK    8  A    between atoms: C_10  and  O_22 
REMARK    9  A    between atoms: O_24  and  P_26 
REMARK   10  A    between atoms: O_25  and  P_26 
ROOT
HETATM    1  C   UNK N   1      29.561  17.472   7.524  0.00  0.00     0.231 C 
ENDROOT
BRANCH   1   2
HETATM    2  C   UNK N   1      30.962  17.113   7.960  0.00  0.00    -0.024 A 
HETATM    3  C   UNK N   1      31.327  15.793   8.260  0.00  0.00     0.011 A 
HETATM    4  C   UNK N   1      32.603  15.504   8.749  0.00  0.00     0.016 A 
HETATM    5  C   UNK N   1      33.535  16.529   8.950  0.00  0.00     0.007 A 
HETATM    6  C   UNK N   1      33.181  17.849   8.632  0.00  0.00     0.016 A 
HETATM    7  C   UNK N   1      31.904  18.138   8.141  0.00  0.00     0.011 A 
BRANCH   5   8
HETATM    8  C   UNK N   1      34.864  16.219   9.519  0.00  0.00     0.102 C 
HETATM    9  N   UNK N   1      35.561  15.249   9.051  0.00  0.00    -0.385 N 
HETATM   10  H   UNK N   1      36.512  15.142   9.280  0.00  0.00     0.157 HD
ATOM     11  HN  UNK N   1      35.120  14.574   8.425  1.00  0.00     0.157 HD
BRANCH   8  12
HETATM   12  N   UNK N   1      35.403  17.026  10.547  0.00  0.00    -0.385 N 
HETATM   13  H   UNK N   1      34.850  17.301  11.313  0.00  0.00     0.157 HD
HETATM   14  H   UNK N   1      36.343  17.316  10.496  0.00  0.00     0.157 HD
ENDBRANCH   8  12
ENDBRANCH   5   8
ENDBRANCH   1   2
BRANCH   1  15
HETATM   15  N   UNK N   1      28.893  16.306   6.993  0.00  0.00    -0.317 N 
HETATM   16  C   UNK N   1      28.716  16.109   5.667  0.00  0.00     0.361 C 
HETATM   17  O   UNK N   1      28.144  15.103   5.282  0.00  0.00    -0.238 OA
HETATM   18  H   UNK N   1      28.554  15.629   7.622  0.00  0.00     0.166 HD
BRANCH  16  19
HETATM   19  O   UNK N   1      29.185  17.017   4.767  0.00  0.00    -0.299 OA
BRANCH  19  20
HETATM   20  C   UNK N   1      30.111  16.687   3.795  0.00  0.00     0.219 C 
BRANCH  20  21
HETATM   21  C   UNK N   1      31.480  16.495   4.353  0.00  0.00    -0.034 A 
HETATM   22  C   UNK N   1      32.331  17.587   4.547  0.00  0.00     0.009 A 
HETATM   23  C   UNK N   1      33.628  17.380   5.027  0.00  0.00     0.001 A 
HETATM   24  C   UNK N   1      34.075  16.084   5.299  0.00  0.00     0.000 A 
HETATM   25  C   UNK N   1      33.224  14.992   5.102  0.00  0.00     0.001 A 
HETATM   26  C   UNK N   1      31.926  15.198   4.630  0.00  0.00     0.009 A 
ENDBRANCH  20  21
ENDBRANCH  19  20
ENDBRANCH  16  19
ENDBRANCH   1  15
BRANCH   1  27
HETATM   27  P   UNK N   1      28.489  18.197   8.877  0.00  0.00     0.264 P 
HETATM   28  O   UNK N   1      27.604  17.093   9.517  0.00  0.00    -0.652 OA
BRANCH  27  29
HETATM   29  O   UNK N   1      29.346  18.892  10.216  0.00  0.00    -0.327 OA
HETATM   30  H   UNK N   1      30.241  19.265  10.268  0.00  0.00     0.220 HD
ENDBRANCH  27  29
BRANCH  27  31
HETATM   31  O   UNK N   1      27.349  19.387   8.331  0.00  0.00    -0.327 OA
HETATM   32  H   UNK N   1      26.593  19.134   7.780  0.00  0.00     0.220 HD
ENDBRANCH  27  31
ENDBRANCH   1  27
TORSDOF 10
ENDMDL
MODEL 3
REMARK VINA RESULT:      -5.9      3.663      5.371
REMARK  10 active torsions:
REMARK  status: ('A' for Active; 'I' for Inactive)
REMARK    1  A    between atoms: C_1  and  C_2 
REMARK    2  A    between atoms: C_1  and  N_19 
REMARK    3  A    between atoms: C_5  and  C_8 
REMARK    4  A    between atoms: C_8  and  N_20 
REMARK    5  A    between atoms: C_8  and  P_26 
REMARK       I    between atoms: C_9  and  N_20 
REMARK    6  A    between atoms: C_9  and  O_22 
REMARK    7  A    between atoms: C_10  and  C_11 
REMARK    8  A    between atoms: C_10  and  O_22 
REMARK    9  A    between atoms: O_24  and  P_26 
REMARK   10  A    between atoms: O_25  and  P_26 
ROOT
HETATM    1  C   UNK N   1      33.007  16.432   8.456  0.00  0.00     0.231 C 
ENDROOT
BRANCH   1   2
HETATM    2  C   UNK N   1      33.986  15.817   9.429  0.00  0.00    -0.024 A 
HETATM    3  C   UNK N   1      33.914  14.465   9.795  0.00  0.00     0.011 A 
HETATM    4  C   UNK N   1      34.774  13.946  10.765  0.00  0.00     0.016 A 
HETATM    5  C   UNK N   1      35.718  14.770  11.390  0.00  0.00     0.007 A 
HETATM    6  C   UNK N   1      35.808  16.118  11.012  0.00  0.00     0.016 A 
HETATM    7  C   UNK N   1      34.947  16.637  10.039  0.00  0.00     0.011 A 
BRANCH   5   8
HETATM    8  C   UNK N   1      36.587  14.223  12.454  0.00  0.00     0.102 C 
HETATM    9  N   UNK N   1      36.549  14.712  13.639  0.00  0.00    -0.385 N 
HETATM   10  H   UNK N   1      36.972  14.251  14.399  0.00  0.00     0.157 HD
ATOM     11  HN  UNK N   1      36.070  15.599  13.798  1.00  0.00     0.157 HD
BRANCH   8  12
HETATM   12  N   UNK N   1      37.426  13.117  12.187  0.00  0.00    -0.385 N 
HETATM   13  H   UNK N   1      38.063  13.138  11.437  0.00  0.00     0.157 HD
HETATM   14  H   UNK N   1      37.373  12.317  12.759  0.00  0.00     0.157 HD
ENDBRANCH   8  12
ENDBRANCH   5   8
ENDBRANCH   1   2
BRANCH   1  15
HETATM   15  N   UNK N   1      32.305  17.527   9.086  0.00  0.00    -0.317 N 
HETATM   16  C   UNK N   1      31.070  17.920   8.698  0.00  0.00     0.361 C 
HETATM   17  O   UNK N   1      30.530  18.851   9.269  0.00  0.00    -0.238 OA
HETATM   18  H   UNK N   1      32.743  18.005   9.826  0.00  0.00     0.166 HD
BRANCH  16  19
HETATM   19  O   UNK N   1      30.428  17.271   7.687  0.00  0.00    -0.299 OA
BRANCH  19  20
HETATM   20  C   UNK N   1      29.049  17.234   7.588  0.00  0.00     0.219 C 
BRANCH  20  21
HETATM   21  C   UNK N   1      28.514  18.285   6.677  0.00  0.00    -0.034 A 
HETATM   22  C   UNK N   1      28.661  18.171   5.291  0.00  0.00     0.009 A 
HETATM   23  C   UNK N   1      28.194  19.190   4.456  0.00  0.00     0.001 A 
HETATM   24  C   UNK N   1      27.594  20.327   5.007  0.00  0.00     0.000 A 
HETATM   25  C   UNK N   1      27.449  20.441   6.393  0.00  0.00     0.001 A 
HETATM   26  C   UNK N   1      27.908  19.420   7.227  0.00  0.00     0.009 A 
ENDBRANCH  20  21
ENDBRANCH  19  20
ENDBRANCH  16  19
ENDBRANCH   1  15
BRANCH   1  27
HETATM   27  P   UNK N   1      33.781  17.064   6.873  0.00  0.00     0.264 P 
HETATM   28  O   UNK N   1      34.544  18.390   7.135  0.00  0.00    -0.652 OA
BRANCH  27  29
HETATM   29  O   UNK N   1      34.964  16.020   6.152  0.00  0.00    -0.327 OA
HETATM   30  H   UNK N   1      35.499  16.131   5.350  0.00  0.00     0.220 HD
ENDBRANCH  27  29
BRANCH  27  31
HETATM   31  O   UNK N   1      32.640  17.473   5.630  0.00  0.00    -0.327 OA
HETATM   32  H   UNK N   1      32.575  18.381   5.294  0.00  0.00     0.220 HD
ENDBRANCH  27  31
ENDBRANCH   1  27
TORSDOF 10
ENDMDL
MODEL 4
REMARK VINA RESULT:      -5.8      9.103     11.728
REMARK  10 active torsions:
REMARK  status: ('A' for Active; 'I' for Inactive)
REMARK    1  A    between atoms: C_1  and  C_2 
REMARK    2  A    between atoms: C_1  and  N_19 
REMARK    3  A    between atoms: C_5  and  C_8 
REMARK    4  A    between atoms: C_8  and  N_20 
REMARK    5  A    between atoms: C_8  and  P_26 
REMARK       I    between atoms: C_9  and  N_20 
REMARK    6  A    between atoms: C_9  and  O_22 
REMARK    7  A    between atoms: C_10  and  C_11 
REMARK    8  A    between atoms: C_10  and  O_22 
REMARK    9  A    between atoms: O_24  and  P_26 
REMARK   10  A    between atoms: O_25  and  P_26 
ROOT
HETATM    1  C   UNK N   1      35.408  12.631  12.208  0.00  0.00     0.231 C 
ENDROOT
BRANCH   1   2
HETATM    2  C   UNK N   1      35.346  12.801  13.708  0.00  0.00    -0.024 A 
HETATM    3  C   UNK N   1      36.334  13.504  14.413  0.00  0.00     0.011 A 
HETATM    4  C   UNK N   1      36.300  13.566  15.808  0.00  0.00     0.016 A 
HETATM    5  C   UNK N   1      35.280  12.925  16.522  0.00  0.00     0.007 A 
HETATM    6  C   UNK N   1      34.278  12.239  15.819  0.00  0.00     0.016 A 
HETATM    7  C   UNK N   1      34.312  12.177  14.423  0.00  0.00     0.011 A 
BRANCH   5   8
HETATM    8  C   UNK N   1      35.284  12.953  18.000  0.00  0.00     0.102 C 
HETATM    9  N   UNK N   1      35.313  11.859  18.671  0.00  0.00    -0.385 N 
HETATM   10  H   UNK N   1      35.503  11.854  19.636  0.00  0.00     0.157 HD
ATOM     11  HN  UNK N   1      35.135  10.976  18.193  1.00  0.00     0.157 HD
BRANCH   8  12
HETATM   12  N   UNK N   1      35.313  14.188  18.688  0.00  0.00    -0.385 N 
HETATM   13  H   UNK N   1      35.583  14.232  19.633  0.00  0.00     0.157 HD
HETATM   14  H   UNK N   1      35.059  15.014  18.215  0.00  0.00     0.157 HD
ENDBRANCH   8  12
ENDBRANCH   5   8
ENDBRANCH   1   2
BRANCH   1  15
HETATM   15  N   UNK N   1      34.366  11.731  11.768  0.00  0.00    -0.317 N 
HETATM   16  C   UNK N   1      34.630  10.513  11.240  0.00  0.00     0.361 C 
HETATM   17  O   UNK N   1      33.706   9.800  10.888  0.00  0.00    -0.238 OA
HETATM   18  H   UNK N   1      33.428  12.016  11.855  0.00  0.00     0.166 HD
BRANCH  16  19
HETATM   19  O   UNK N   1      35.915  10.080  11.118  0.00  0.00    -0.299 OA
BRANCH  19  20
HETATM   20  C   UNK N   1      36.397   8.983  11.809  0.00  0.00     0.219 C 
BRANCH  20  21
HETATM   21  C   UNK N   1      36.599   9.265  13.258  0.00  0.00    -0.034 A 
HETATM   22  C   UNK N   1      37.710   9.992  13.695  0.00  0.00     0.009 A 
HETATM   23  C   UNK N   1      37.907  10.205  15.062  0.00  0.00     0.001 A 
HETATM   24  C   UNK N   1      37.001   9.682  15.990  0.00  0.00     0.000 A 
HETATM   25  C   UNK N   1      35.891   8.954  15.552  0.00  0.00     0.001 A 
HETATM   26  C   UNK N   1      35.690   8.747  14.186  0.00  0.00     0.009 A 
ENDBRANCH  20  21
ENDBRANCH  19  20
ENDBRANCH  16  19
ENDBRANCH   1  15
BRANCH   1  27
HETATM   27  P   UNK N   1      35.254  14.225  11.239  0.00  0.00     0.264 P 
HETATM   28  O   UNK N   1      35.484  13.964   9.726  0.00  0.00    -0.652 OA
BRANCH  27  29
HETATM   29  O   UNK N   1      33.701  14.995  11.312  0.00  0.00    -0.327 OA
HETATM   30  H   UNK N   1      33.273  15.614  10.700  0.00  0.00     0.220 HD
ENDBRANCH  27  29
BRANCH  27  31
HETATM   31  O   UNK N   1      36.437  15.429  11.644  0.00  0.00    -0.327 OA
HETATM   32  H   UNK N   1      37.379  15.278  11.469  0.00  0.00     0.220 HD
ENDBRANCH  27  31
ENDBRANCH   1  27
TORSDOF 10
ENDMDL
MODEL 5
REMARK VINA RESULT:      -5.8     13.741     15.400
REMARK  10 active torsions:
REMARK  status: ('A' for Active; 'I' for Inactive)
REMARK    1  A    between atoms: C_1  and  C_2 
REMARK    2  A    between atoms: C_1  and  N_19 
REMARK    3  A    between atoms: C_5  and  C_8 
REMARK    4  A    between atoms: C_8  and  N_20 
REMARK    5  A    between atoms: C_8  and  P_26 
REMARK       I    between atoms: C_9  and  N_20 
REMARK    6  A    between atoms: C_9  and  O_22 
REMARK    7  A    between atoms: C_10  and  C_11 
REMARK    8  A    between atoms: C_10  and  O_22 
REMARK    9  A    between atoms: O_24  and  P_26 
REMARK   10  A    between atoms: O_25  and  P_26 
ROOT
HETATM    1  C   UNK N   1      28.099  24.689  -4.166  0.00  0.00     0.231 C 
ENDROOT
BRANCH   1   2
HETATM    2  C   UNK N   1      27.502  24.027  -5.387  0.00  0.00    -0.024 A 
HETATM    3  C   UNK N   1      26.177  23.567  -5.404  0.00  0.00     0.011 A 
HETATM    4  C   UNK N   1      25.681  22.878  -6.512  0.00  0.00     0.016 A 
HETATM    5  C   UNK N   1      26.500  22.633  -7.620  0.00  0.00     0.007 A 
HETATM    6  C   UNK N   1      27.820  23.109  -7.616  0.00  0.00     0.016 A 
HETATM    7  C   UNK N   1      28.316  23.801  -6.507  0.00  0.00     0.011 A 
BRANCH   5   8
HETATM    8  C   UNK N   1      25.981  21.855  -8.766  0.00  0.00     0.102 C 
HETATM    9  N   UNK N   1      25.318  20.774  -8.571  0.00  0.00    -0.385 N 
HETATM   10  H   UNK N   1      24.808  20.346  -9.296  0.00  0.00     0.157 HD
ATOM     11  HN  UNK N   1      25.319  20.349  -7.643  1.00  0.00     0.157 HD
BRANCH   8  12
HETATM   12  N   UNK N   1      26.161  22.328 -10.086  0.00  0.00    -0.385 N 
HETATM   13  H   UNK N   1      26.240  23.293 -10.269  0.00  0.00     0.157 HD
HETATM   14  H   UNK N   1      26.210  21.686 -10.831  0.00  0.00     0.157 HD
ENDBRANCH   8  12
ENDBRANCH   5   8
ENDBRANCH   1   2
BRANCH   1  15
HETATM   15  N   UNK N   1      27.052  25.262  -3.351  0.00  0.00    -0.317 N 
HETATM   16  C   UNK N   1      26.773  26.585  -3.347  0.00  0.00     0.361 C 
HETATM   17  O   UNK N   1      25.877  27.007  -2.636  0.00  0.00    -0.238 OA
HETATM   18  H   UNK N   1      26.522  24.665  -2.776  0.00  0.00     0.166 HD
BRANCH  16  19
HETATM   19  O   UNK N   1      27.477  27.439  -4.142  0.00  0.00    -0.299 OA
BRANCH  19  20
HETATM   20  C   UNK N   1      26.868  28.240  -5.091  0.00  0.00     0.219 C 
BRANCH  20  21
HETATM   21  C   UNK N   1      26.811  27.592  -6.432  0.00  0.00    -0.034 A 
HETATM   22  C   UNK N   1      25.694  26.844  -6.815  0.00  0.00     0.009 A 
HETATM   23  C   UNK N   1      25.679  26.204  -8.058  0.00  0.00     0.001 A 
HETATM   24  C   UNK N   1      26.784  26.303  -8.910  0.00  0.00     0.000 A 
HETATM   25  C   UNK N   1      27.901  27.050  -8.524  0.00  0.00     0.001 A 
HETATM   26  C   UNK N   1      27.914  27.695  -7.286  0.00  0.00     0.009 A 
ENDBRANCH  20  21
ENDBRANCH  19  20
ENDBRANCH  16  19
ENDBRANCH   1  15
BRANCH   1  27
HETATM   27  P   UNK N   1      29.124  23.550  -3.090  0.00  0.00     0.264 P 
HETATM   28  O   UNK N   1      30.397  24.282  -2.586  0.00  0.00    -0.652 OA
BRANCH  27  29
HETATM   29  O   UNK N   1      28.347  22.991  -1.644  0.00  0.00    -0.327 OA
HETATM   30  H   UNK N   1      28.191  22.090  -1.318  0.00  0.00     0.220 HD
ENDBRANCH  27  29
BRANCH  27  31
HETATM   31  O   UNK N   1      29.740  22.149  -3.910  0.00  0.00    -0.327 OA
HETATM   32  H   UNK N   1      30.544  21.705  -3.599  0.00  0.00     0.220 HD
ENDBRANCH  27  31
ENDBRANCH   1  27
TORSDOF 10
ENDMDL
MODEL 6
REMARK VINA RESULT:      -5.6      7.906     10.177
REMARK  10 active torsions:
REMARK  status: ('A' for Active; 'I' for Inactive)
REMARK    1  A    between atoms: C_1  and  C_2 
REMARK    2  A    between atoms: C_1  and  N_19 
REMARK    3  A    between atoms: C_5  and  C_8 
REMARK    4  A    between atoms: C_8  and  N_20 
REMARK    5  A    between atoms: C_8  and  P_26 
REMARK       I    between atoms: C_9  and  N_20 
REMARK    6  A    between atoms: C_9  and  O_22 
REMARK    7  A    between atoms: C_10  and  C_11 
REMARK    8  A    between atoms: C_10  and  O_22 
REMARK    9  A    between atoms: O_24  and  P_26 
REMARK   10  A    between atoms: O_25  and  P_26 
ROOT
HETATM    1  C   UNK N   1      35.720  13.486  12.385  0.00  0.00     0.231 C 
ENDROOT
BRANCH   1   2
HETATM    2  C   UNK N   1      35.266  14.503  11.365  0.00  0.00    -0.024 A 
HETATM    3  C   UNK N   1      35.808  15.796  11.319  0.00  0.00     0.011 A 
HETATM    4  C   UNK N   1      35.304  16.744  10.426  0.00  0.00     0.016 A 
HETATM    5  C   UNK N   1      34.248  16.418   9.567  0.00  0.00     0.007 A 
HETATM    6  C   UNK N   1      33.716  15.120   9.595  0.00  0.00     0.016 A 
HETATM    7  C   UNK N   1      34.222  14.170  10.489  0.00  0.00     0.011 A 
BRANCH   5   8
HETATM    8  C   UNK N   1      33.686  17.445   8.663  0.00  0.00     0.102 C 
HETATM    9  N   UNK N   1      34.366  18.492   8.367  0.00  0.00    -0.385 N 
HETATM   10  H   UNK N   1      34.097  19.089   7.632  0.00  0.00     0.157 HD
ATOM     11  HN  UNK N   1      35.205  18.712   8.905  1.00  0.00     0.157 HD
BRANCH   8  12
HETATM   12  N   UNK N   1      32.417  17.253   8.071  0.00  0.00    -0.385 N 
HETATM   13  H   UNK N   1      32.334  17.050   7.111  0.00  0.00     0.157 HD
HETATM   14  H   UNK N   1      31.606  17.324   8.626  0.00  0.00     0.157 HD
ENDBRANCH   8  12
ENDBRANCH   5   8
ENDBRANCH   1   2
BRANCH   1  15
HETATM   15  N   UNK N   1      34.662  12.537  12.645  0.00  0.00    -0.317 N 
HETATM   16  C   UNK N   1      34.516  11.916  13.838  0.00  0.00     0.361 C 
HETATM   17  O   UNK N   1      33.601  11.125  13.994  0.00  0.00    -0.238 OA
HETATM   18  H   UNK N   1      34.021  12.335  11.925  0.00  0.00     0.166 HD
BRANCH  16  19
HETATM   19  O   UNK N   1      35.374  12.182  14.861  0.00  0.00    -0.299 OA
BRANCH  19  20
HETATM   20  C   UNK N   1      35.059  13.058  15.884  0.00  0.00     0.219 C 
BRANCH  20  21
HETATM   21  C   UNK N   1      35.236  12.448  17.232  0.00  0.00    -0.034 A 
HETATM   22  C   UNK N   1      35.446  11.073  17.372  0.00  0.00     0.009 A 
HETATM   23  C   UNK N   1      35.562  10.514  18.647  0.00  0.00     0.001 A 
HETATM   24  C   UNK N   1      35.457  11.326  19.781  0.00  0.00     0.000 A 
HETATM   25  C   UNK N   1      35.245  12.701  19.640  0.00  0.00     0.001 A 
HETATM   26  C   UNK N   1      35.137  13.262  18.366  0.00  0.00     0.009 A 
ENDBRANCH  20  21
ENDBRANCH  19  20
ENDBRANCH  16  19
ENDBRANCH   1  15
BRANCH   1  27
HETATM   27  P   UNK N   1      37.256  12.532  11.899  0.00  0.00     0.264 P 
HETATM   28  O   UNK N   1      36.889  11.362  10.947  0.00  0.00    -0.652 OA
BRANCH  27  29
HETATM   29  O   UNK N   1      38.452  13.438  11.027  0.00  0.00    -0.327 OA
HETATM   30  H   UNK N   1      39.267  13.148  10.588  0.00  0.00     0.220 HD
ENDBRANCH  27  29
BRANCH  27  31
HETATM   31  O   UNK N   1      38.070  11.758  13.223  0.00  0.00    -0.327 OA
HETATM   32  H   UNK N   1      38.751  12.226  13.729  0.00  0.00     0.220 HD
ENDBRANCH  27  31
ENDBRANCH   1  27
TORSDOF 10
ENDMDL
MODEL 7
REMARK VINA RESULT:      -5.5      7.310      9.589
REMARK  10 active torsions:
REMARK  status: ('A' for Active; 'I' for Inactive)
REMARK    1  A    between atoms: C_1  and  C_2 
REMARK    2  A    between atoms: C_1  and  N_19 
REMARK    3  A    between atoms: C_5  and  C_8 
REMARK    4  A    between atoms: C_8  and  N_20 
REMARK    5  A    between atoms: C_8  and  P_26 
REMARK       I    between atoms: C_9  and  N_20 
REMARK    6  A    between atoms: C_9  and  O_22 
REMARK    7  A    between atoms: C_10  and  C_11 
REMARK    8  A    between atoms: C_10  and  O_22 
REMARK    9  A    between atoms: O_24  and  P_26 
REMARK   10  A    between atoms: O_25  and  P_26 
ROOT
HETATM    1  C   UNK N   1      35.615  13.365  12.363  0.00  0.00     0.231 C 
ENDROOT
BRANCH   1   2
HETATM    2  C   UNK N   1      35.192  14.380  11.327  0.00  0.00    -0.024 A 
HETATM    3  C   UNK N   1      34.405  14.024  10.221  0.00  0.00     0.011 A 
HETATM    4  C   UNK N   1      34.106  14.963   9.232  0.00  0.00     0.016 A 
HETATM    5  C   UNK N   1      34.591  16.273   9.328  0.00  0.00     0.007 A 
HETATM    6  C   UNK N   1      35.361  16.640  10.442  0.00  0.00     0.016 A 
HETATM    7  C   UNK N   1      35.659  15.699  11.434  0.00  0.00     0.011 A 
BRANCH   5   8
HETATM    8  C   UNK N   1      34.314  17.245   8.248  0.00  0.00     0.102 C 
HETATM    9  N   UNK N   1      34.062  18.472   8.527  0.00  0.00    -0.385 N 
HETATM   10  H   UNK N   1      34.060  19.167   7.830  0.00  0.00     0.157 HD
ATOM     11  HN  UNK N   1      33.859  18.733   9.492  1.00  0.00     0.157 HD
BRANCH   8  12
HETATM   12  N   UNK N   1      34.381  16.841   6.895  0.00  0.00    -0.385 N 
HETATM   13  H   UNK N   1      35.250  16.724   6.447  0.00  0.00     0.157 HD
HETATM   14  H   UNK N   1      33.549  16.676   6.395  0.00  0.00     0.157 HD
ENDBRANCH   8  12
ENDBRANCH   5   8
ENDBRANCH   1   2
BRANCH   1  15
HETATM   15  N   UNK N   1      34.574  12.380  12.546  0.00  0.00    -0.317 N 
HETATM   16  C   UNK N   1      34.496  11.597  13.646  0.00  0.00     0.361 C 
HETATM   17  O   UNK N   1      33.593  10.785  13.741  0.00  0.00    -0.238 OA
HETATM   18  H   UNK N   1      33.894  12.275  11.842  0.00  0.00     0.166 HD
BRANCH  16  19
HETATM   19  O   UNK N   1      35.411  11.726  14.647  0.00  0.00    -0.299 OA
BRANCH  19  20
HETATM   20  C   UNK N   1      35.048  12.022  15.949  0.00  0.00     0.219 C 
BRANCH  20  21
HETATM   21  C   UNK N   1      35.629  13.310  16.423  0.00  0.00    -0.034 A 
HETATM   22  C   UNK N   1      36.618  13.963  15.682  0.00  0.00     0.009 A 
HETATM   23  C   UNK N   1      37.184  15.145  16.168  0.00  0.00     0.001 A 
HETATM   24  C   UNK N   1      36.770  15.666  17.398  0.00  0.00     0.000 A 
HETATM   25  C   UNK N   1      35.781  15.011  18.139  0.00  0.00     0.001 A 
HETATM   26  C   UNK N   1      35.210  13.834  17.651  0.00  0.00     0.009 A 
ENDBRANCH  20  21
ENDBRANCH  19  20
ENDBRANCH  16  19
ENDBRANCH   1  15
BRANCH   1  27
HETATM   27  P   UNK N   1      37.208  12.467  11.963  0.00  0.00     0.264 P 
HETATM   28  O   UNK N   1      36.920  11.212  11.096  0.00  0.00    -0.652 OA
BRANCH  27  29
HETATM   29  O   UNK N   1      38.364  13.373  11.039  0.00  0.00    -0.327 OA
HETATM   30  H   UNK N   1      38.242  14.128  10.442  0.00  0.00     0.220 HD
ENDBRANCH  27  29
BRANCH  27  31
HETATM   31  O   UNK N   1      38.046  11.838  13.348  0.00  0.00    -0.327 OA
HETATM   32  H   UNK N   1      38.531  11.000  13.297  0.00  0.00     0.220 HD
ENDBRANCH  27  31
ENDBRANCH   1  27
TORSDOF 10
ENDMDL
MODEL 8
REMARK VINA RESULT:      -5.5     13.350     15.154
REMARK  10 active torsions:
REMARK  status: ('A' for Active; 'I' for Inactive)
REMARK    1  A    between atoms: C_1  and  C_2 
REMARK    2  A    between atoms: C_1  and  N_19 
REMARK    3  A    between atoms: C_5  and  C_8 
REMARK    4  A    between atoms: C_8  and  N_20 
REMARK    5  A    between atoms: C_8  and  P_26 
REMARK       I    between atoms: C_9  and  N_20 
REMARK    6  A    between atoms: C_9  and  O_22 
REMARK    7  A    between atoms: C_10  and  C_11 
REMARK    8  A    between atoms: C_10  and  O_22 
REMARK    9  A    between atoms: O_24  and  P_26 
REMARK   10  A    between atoms: O_25  and  P_26 
ROOT
HETATM    1  C   UNK N   1      29.345  22.947  -4.447  0.00  0.00     0.231 C 
ENDROOT
BRANCH   1   2
HETATM    2  C   UNK N   1      28.617  24.257  -4.254  0.00  0.00    -0.024 A 
HETATM    3  C   UNK N   1      29.192  25.482  -4.622  0.00  0.00     0.011 A 
HETATM    4  C   UNK N   1      28.535  26.683  -4.347  0.00  0.00     0.016 A 
HETATM    5  C   UNK N   1      27.295  26.682  -3.697  0.00  0.00     0.007 A 
HETATM    6  C   UNK N   1      26.707  25.457  -3.346  0.00  0.00     0.016 A 
HETATM    7  C   UNK N   1      27.364  24.254  -3.622  0.00  0.00     0.011 A 
BRANCH   5   8
HETATM    8  C   UNK N   1      26.634  27.961  -3.363  0.00  0.00     0.102 C 
HETATM    9  N   UNK N   1      25.504  28.266  -3.889  0.00  0.00    -0.385 N 
HETATM   10  H   UNK N   1      24.962  29.012  -3.546  0.00  0.00     0.157 HD
ATOM     11  HN  UNK N   1      25.160  27.723  -4.682  1.00  0.00     0.157 HD
BRANCH   8  12
HETATM   12  N   UNK N   1      27.214  28.835  -2.415  0.00  0.00    -0.385 N 
HETATM   13  H   UNK N   1      26.714  29.611  -2.072  0.00  0.00     0.157 HD
HETATM   14  H   UNK N   1      28.130  28.665  -2.094  0.00  0.00     0.157 HD
ENDBRANCH   8  12
ENDBRANCH   5   8
ENDBRANCH   1   2
BRANCH   1  15
HETATM   15  N   UNK N   1      29.984  22.921  -5.743  0.00  0.00    -0.317 N 
HETATM   16  C   UNK N   1      29.322  22.592  -6.876  0.00  0.00     0.361 C 
HETATM   17  O   UNK N   1      29.918  22.589  -7.939  0.00  0.00    -0.238 OA
HETATM   18  H   UNK N   1      30.938  23.153  -5.803  0.00  0.00     0.166 HD
BRANCH  16  19
HETATM   19  O   UNK N   1      27.997  22.280  -6.832  0.00  0.00    -0.299 OA
BRANCH  19  20
HETATM   20  C   UNK N   1      27.097  22.738  -7.777  0.00  0.00     0.219 C 
BRANCH  20  21
HETATM   21  C   UNK N   1      26.804  24.192  -7.628  0.00  0.00    -0.034 A 
HETATM   22  C   UNK N   1      27.637  25.151  -8.211  0.00  0.00     0.009 A 
HETATM   23  C   UNK N   1      27.372  26.510  -8.020  0.00  0.00     0.001 A 
HETATM   24  C   UNK N   1      26.284  26.908  -7.238  0.00  0.00     0.000 A 
HETATM   25  C   UNK N   1      25.452  25.948  -6.654  0.00  0.00     0.001 A 
HETATM   26  C   UNK N   1      25.711  24.590  -6.850  0.00  0.00     0.009 A 
ENDBRANCH  20  21
ENDBRANCH  19  20
ENDBRANCH  16  19
ENDBRANCH   1  15
BRANCH   1  27
HETATM   27  P   UNK N   1      30.640  22.580  -3.146  0.00  0.00     0.264 P 
HETATM   28  O   UNK N   1      31.946  23.362  -3.447  0.00  0.00    -0.652 OA
BRANCH  27  29
HETATM   29  O   UNK N   1      30.223  23.042  -1.527  0.00  0.00    -0.327 OA
HETATM   30  H   UNK N   1      29.396  23.399  -1.165  0.00  0.00     0.220 HD
ENDBRANCH  27  29
BRANCH  27  31
HETATM   31  O   UNK N   1      31.148  20.920  -3.086  0.00  0.00    -0.327 OA
HETATM   32  H   UNK N   1      32.033  20.683  -2.769  0.00  0.00     0.220 HD
ENDBRANCH  27  31
ENDBRANCH   1  27
TORSDOF 10
ENDMDL
MODEL 9
REMARK VINA RESULT:      -5.5      6.908      9.308
REMARK  10 active torsions:
REMARK  status: ('A' for Active; 'I' for Inactive)
REMARK    1  A    between atoms: C_1  and  C_2 
REMARK    2  A    between atoms: C_1  and  N_19 
REMARK    3  A    between atoms: C_5  and  C_8 
REMARK    4  A    between atoms: C_8  and  N_20 
REMARK    5  A    between atoms: C_8  and  P_26 
REMARK       I    between atoms: C_9  and  N_20 
REMARK    6  A    between atoms: C_9  and  O_22 
REMARK    7  A    between atoms: C_10  and  C_11 
REMARK    8  A    between atoms: C_10  and  O_22 
REMARK    9  A    between atoms: O_24  and  P_26 
REMARK   10  A    between atoms: O_25  and  P_26 
ROOT
HETATM    1  C   UNK N   1      36.004  13.702  12.258  0.00  0.00     0.231 C 
ENDROOT
BRANCH   1   2
HETATM    2  C   UNK N   1      35.857  13.518  13.751  0.00  0.00    -0.024 A 
HETATM    3  C   UNK N   1      34.850  12.712  14.301  0.00  0.00     0.011 A 
HETATM    4  C   UNK N   1      34.681  12.635  15.685  0.00  0.00     0.016 A 
HETATM    5  C   UNK N   1      35.514  13.364  16.543  0.00  0.00     0.007 A 
HETATM    6  C   UNK N   1      36.536  14.155  15.998  0.00  0.00     0.016 A 
HETATM    7  C   UNK N   1      36.705  14.232  14.611  0.00  0.00     0.011 A 
BRANCH   5   8
HETATM    8  C   UNK N   1      35.292  13.316  18.004  0.00  0.00     0.102 C 
HETATM    9  N   UNK N   1      35.200  12.190  18.611  0.00  0.00    -0.385 N 
HETATM   10  H   UNK N   1      35.241  12.131  19.593  0.00  0.00     0.157 HD
ATOM     11  HN  UNK N   1      35.082  11.336  18.065  1.00  0.00     0.157 HD
BRANCH   8  12
HETATM   12  N   UNK N   1      35.237  14.514  18.753  0.00  0.00    -0.385 N 
HETATM   13  H   UNK N   1      35.530  14.534  19.693  0.00  0.00     0.157 HD
HETATM   14  H   UNK N   1      34.901  15.337  18.330  0.00  0.00     0.157 HD
ENDBRANCH   8  12
ENDBRANCH   5   8
ENDBRANCH   1   2
BRANCH   1  15
HETATM   15  N   UNK N   1      36.367  15.068  11.960  0.00  0.00    -0.317 N 
HETATM   16  C   UNK N   1      35.831  15.756  10.926  0.00  0.00     0.361 C 
HETATM   17  O   UNK N   1      36.180  16.907  10.727  0.00  0.00    -0.238 OA
HETATM   18  H   UNK N   1      37.032  15.515  12.532  0.00  0.00     0.166 HD
BRANCH  16  19
HETATM   19  O   UNK N   1      34.898  15.174  10.123  0.00  0.00    -0.299 OA
BRANCH  19  20
HETATM   20  C   UNK N   1      35.122  14.935   8.779  0.00  0.00     0.219 C 
BRANCH  20  21
HETATM   21  C   UNK N   1      34.310  15.822   7.899  0.00  0.00    -0.034 A 
HETATM   22  C   UNK N   1      33.193  16.496   8.401  0.00  0.00     0.009 A 
HETATM   23  C   UNK N   1      32.416  17.286   7.547  0.00  0.00     0.001 A 
HETATM   24  C   UNK N   1      32.750  17.391   6.194  0.00  0.00     0.000 A 
HETATM   25  C   UNK N   1      33.867  16.715   5.692  0.00  0.00     0.001 A 
HETATM   26  C   UNK N   1      34.647  15.932   6.545  0.00  0.00     0.009 A 
ENDBRANCH  20  21
ENDBRANCH  19  20
ENDBRANCH  16  19
ENDBRANCH   1  15
BRANCH   1  27
HETATM   27  P   UNK N   1      37.263  12.571  11.457  0.00  0.00     0.264 P 
HETATM   28  O   UNK N   1      36.685  11.952  10.157  0.00  0.00    -0.652 OA
BRANCH  27  29
HETATM   29  O   UNK N   1      38.737  13.335  10.953  0.00  0.00    -0.327 OA
HETATM   30  H   UNK N   1      38.909  13.962  10.232  0.00  0.00     0.220 HD
ENDBRANCH  27  29
BRANCH  27  31
HETATM   31  O   UNK N   1      37.707  11.195  12.418  0.00  0.00    -0.327 OA
HETATM   32  H   UNK N   1      37.271  10.339  12.291  0.00  0.00     0.220 HD
ENDBRANCH  27  31
ENDBRANCH   1  27
TORSDOF 10
ENDMDL
