MODEL 1
REMARK VINA RESULT:      -5.4      0.000      0.000
REMARK  3 active torsions:
REMARK  status: ('A' for Active; 'I' for Inactive)
REMARK    1  A    between atoms: O_1  and  C_2 
REMARK    2  A    between atoms: C_6  and  S_7 
REMARK    3  A    between atoms: S_7  and  N_8 
ROOT
HETATM    1  C   UNK N   1      26.072  27.475  -3.606  0.00  0.00     0.067 A 
HETATM    2  C   UNK N   1      26.742  26.243  -3.677  0.00  0.00     0.057 A 
HETATM    3  C   UNK N   1      26.490  25.434  -4.776  0.00  0.00     0.037 A 
HETATM    4  S   UNK N   1      27.044  23.929  -5.142  0.00  0.00    -0.057 SA
HETATM    5  C   UNK N   1      26.204  23.746  -6.584  0.00  0.00     0.192 A 
HETATM    6  N   UNK N   1      25.434  24.863  -6.788  0.00  0.00    -0.339 N 
ATOM      7  HN  UNK N   1      24.807  24.986  -7.583  1.00  0.00     0.167 HD
HETATM    8  C   UNK N   1      25.610  25.797  -5.793  0.00  0.00     0.051 A 
HETATM    9  C   UNK N   1      24.944  27.023  -5.734  0.00  0.00     0.034 A 
HETATM   10  C   UNK N   1      25.181  27.863  -4.631  0.00  0.00     0.039 A 
ENDROOT
BRANCH   5  11
HETATM   11  S   UNK N   1      26.050  22.194  -7.554  0.00  0.00     0.279 S 
HETATM   12  O   UNK N   1      24.836  22.069  -6.621  0.00  0.00    -0.199 OA
HETATM   13  O   UNK N   1      25.442  23.246  -8.494  0.00  0.00    -0.199 OA
BRANCH  11  14
HETATM   14  N   UNK N   1      24.952  21.245  -8.556  0.00  0.00    -0.323 N 
HETATM   15  H   UNK N   1      25.203  20.772  -9.424  0.00  0.00     0.169 HD
HETATM   16  H   UNK N   1      23.985  21.161  -8.240  0.00  0.00     0.169 HD
ENDBRANCH  11  14
ENDBRANCH   5  11
BRANCH   1  17
HETATM   17  O   UNK N   1      26.270  28.282  -2.552  0.00  0.00    -0.361 OA
HETATM   18  H   UNK N   1      26.299  27.923  -1.686  0.00  0.00     0.217 HD
ENDBRANCH   1  17
TORSDOF 3
ENDMDL
MODEL 2
REMARK VINA RESULT:      -5.2     16.948     18.174
REMARK  3 active torsions:
REMARK  status: ('A' for Active; 'I' for Inactive)
REMARK    1  A    between atoms: O_1  and  C_2 
REMARK    2  A    between atoms: C_6  and  S_7 
REMARK    3  A    between atoms: S_7  and  N_8 
ROOT
HETATM    1  C   UNK N   1      39.434  23.205  -0.989  0.00  0.00     0.067 A 
HETATM    2  C   UNK N   1      39.936  22.104  -0.276  0.00  0.00     0.057 A 
HETATM    3  C   UNK N   1      40.812  22.359   0.769  0.00  0.00     0.037 A 
HETATM    4  S   UNK N   1      41.623  21.324   1.757  0.00  0.00    -0.057 SA
HETATM    5  C   UNK N   1      42.442  22.488   2.648  0.00  0.00     0.192 A 
HETATM    6  N   UNK N   1      42.117  23.725   2.154  0.00  0.00    -0.339 N 
ATOM      7  HN  UNK N   1      42.506  24.601   2.507  1.00  0.00     0.167 HD
HETATM    8  C   UNK N   1      41.205  23.647   1.127  0.00  0.00     0.051 A 
HETATM    9  C   UNK N   1      40.706  24.747   0.428  0.00  0.00     0.034 A 
HETATM   10  C   UNK N   1      39.816  24.518  -0.637  0.00  0.00     0.039 A 
ENDROOT
BRANCH   5  11
HETATM   11  S   UNK N   1      43.804  22.175   3.839  0.00  0.00     0.279 S 
HETATM   12  O   UNK N   1      44.429  21.637   2.544  0.00  0.00    -0.199 OA
HETATM   13  O   UNK N   1      43.973  23.666   3.511  0.00  0.00    -0.199 OA
BRANCH  11  14
HETATM   14  N   UNK N   1      45.516  22.459   4.150  0.00  0.00    -0.323 N 
HETATM   15  H   UNK N   1      45.898  22.937   4.966  0.00  0.00     0.169 HD
HETATM   16  H   UNK N   1      46.180  22.115   3.456  0.00  0.00     0.169 HD
ENDBRANCH  11  14
ENDBRANCH   5  11
BRANCH   1  17
HETATM   17  O   UNK N   1      38.598  23.005  -2.021  0.00  0.00    -0.361 OA
HETATM   18  H   UNK N   1      38.941  22.840  -2.877  0.00  0.00     0.217 HD
ENDBRANCH   1  17
TORSDOF 3
ENDMDL
MODEL 3
REMARK VINA RESULT:      -5.1     16.669     17.782
REMARK  3 active torsions:
REMARK  status: ('A' for Active; 'I' for Inactive)
REMARK    1  A    between atoms: O_1  and  C_2 
REMARK    2  A    between atoms: C_6  and  S_7 
REMARK    3  A    between atoms: S_7  and  N_8 
ROOT
HETATM    1  C   UNK N   1      31.151  17.390   4.855  0.00  0.00     0.067 A 
HETATM    2  C   UNK N   1      30.924  17.066   6.203  0.00  0.00     0.057 A 
HETATM    3  C   UNK N   1      32.029  16.955   7.035  0.00  0.00     0.037 A 
HETATM    4  S   UNK N   1      32.132  16.538   8.622  0.00  0.00    -0.057 SA
HETATM    5  C   UNK N   1      33.803  16.629   8.752  0.00  0.00     0.192 A 
HETATM    6  N   UNK N   1      34.320  16.956   7.524  0.00  0.00    -0.339 N 
ATOM      7  HN  UNK N   1      35.318  17.045   7.331  1.00  0.00     0.167 HD
HETATM    8  C   UNK N   1      33.333  17.149   6.585  0.00  0.00     0.051 A 
HETATM    9  C   UNK N   1      33.568  17.478   5.249  0.00  0.00     0.034 A 
HETATM   10  C   UNK N   1      32.466  17.597   4.383  0.00  0.00     0.039 A 
ENDROOT
BRANCH   5  11
HETATM   11  S   UNK N   1      34.809  16.051  10.175  0.00  0.00     0.279 S 
HETATM   12  O   UNK N   1      35.535  15.357   9.014  0.00  0.00    -0.199 OA
HETATM   13  O   UNK N   1      35.363  17.459   9.915  0.00  0.00    -0.199 OA
BRANCH  11  14
HETATM   14  N   UNK N   1      36.450  15.956  10.814  0.00  0.00    -0.323 N 
HETATM   15  H   UNK N   1      36.777  15.282  11.506  0.00  0.00     0.169 HD
HETATM   16  H   UNK N   1      37.128  16.632  10.462  0.00  0.00     0.169 HD
ENDBRANCH  11  14
ENDBRANCH   5  11
BRANCH   1  17
HETATM   17  O   UNK N   1      30.113  17.488   4.010  0.00  0.00    -0.361 OA
HETATM   18  H   UNK N   1      30.262  17.500   3.084  0.00  0.00     0.217 HD
ENDBRANCH   1  17
TORSDOF 3
ENDMDL
MODEL 4
REMARK VINA RESULT:      -5.1     15.142     15.679
REMARK  3 active torsions:
REMARK  status: ('A' for Active; 'I' for Inactive)
REMARK    1  A    between atoms: O_1  and  C_2 
REMARK    2  A    between atoms: C_6  and  S_7 
REMARK    3  A    between atoms: S_7  and  N_8 
ROOT
HETATM    1  C   UNK N   1      28.583  18.011   8.816  0.00  0.00     0.067 A 
HETATM    2  C   UNK N   1      28.589  17.278   7.618  0.00  0.00     0.057 A 
HETATM    3  C   UNK N   1      29.818  17.015   7.030  0.00  0.00     0.037 A 
HETATM    4  S   UNK N   1      30.184  16.251   5.620  0.00  0.00    -0.057 SA
HETATM    5  C   UNK N   1      31.850  16.438   5.710  0.00  0.00     0.192 A 
HETATM    6  N   UNK N   1      32.150  17.147   6.846  0.00  0.00    -0.339 N 
ATOM      7  HN  UNK N   1      33.096  17.417   7.116  1.00  0.00     0.167 HD
HETATM    8  C   UNK N   1      31.024  17.448   7.577  0.00  0.00     0.051 A 
HETATM    9  C   UNK N   1      31.028  18.172   8.770  0.00  0.00     0.034 A 
HETATM   10  C   UNK N   1      29.796  18.453   9.389  0.00  0.00     0.039 A 
ENDROOT
BRANCH   5  11
HETATM   11  S   UNK N   1      33.051  16.082   4.367  0.00  0.00     0.279 S 
HETATM   12  O   UNK N   1      31.823  15.307   3.865  0.00  0.00    -0.199 OA
HETATM   13  O   UNK N   1      32.537  17.482   4.003  0.00  0.00    -0.199 OA
BRANCH  11  14
HETATM   14  N   UNK N   1      33.299  16.153   2.623  0.00  0.00    -0.323 N 
HETATM   15  H   UNK N   1      32.883  15.521   1.940  0.00  0.00     0.169 HD
HETATM   16  H   UNK N   1      33.909  16.890   2.268  0.00  0.00     0.169 HD
ENDBRANCH  11  14
ENDBRANCH   5  11
BRANCH   1  17
HETATM   17  O   UNK N   1      27.416  18.306   9.411  0.00  0.00    -0.361 OA
HETATM   18  H   UNK N   1      27.226  17.966  10.264  0.00  0.00     0.217 HD
ENDBRANCH   1  17
TORSDOF 3
ENDMDL
MODEL 5
REMARK VINA RESULT:      -5.0     19.186     20.231
REMARK  3 active torsions:
REMARK  status: ('A' for Active; 'I' for Inactive)
REMARK    1  A    between atoms: O_1  and  C_2 
REMARK    2  A    between atoms: C_6  and  S_7 
REMARK    3  A    between atoms: S_7  and  N_8 
ROOT
HETATM    1  C   UNK N   1      32.590  16.765   6.910  0.00  0.00     0.067 A 
HETATM    2  C   UNK N   1      32.659  15.673   7.790  0.00  0.00     0.057 A 
HETATM    3  C   UNK N   1      33.465  15.799   8.912  0.00  0.00     0.037 A 
HETATM    4  S   UNK N   1      33.821  14.716  10.098  0.00  0.00    -0.057 SA
HETATM    5  C   UNK N   1      34.865  15.700  10.970  0.00  0.00     0.192 A 
HETATM    6  N   UNK N   1      34.984  16.900  10.316  0.00  0.00    -0.339 N 
ATOM      7  HN  UNK N   1      35.585  17.664  10.629  1.00  0.00     0.167 HD
HETATM    8  C   UNK N   1      34.196  16.953   9.189  0.00  0.00     0.051 A 
HETATM    9  C   UNK N   1      34.128  18.046   8.324  0.00  0.00     0.034 A 
HETATM   10  C   UNK N   1      33.318  17.945   7.178  0.00  0.00     0.039 A 
ENDROOT
BRANCH   5  11
HETATM   11  S   UNK N   1      35.944  15.169  12.357  0.00  0.00     0.279 S 
HETATM   12  O   UNK N   1      34.817  14.130  12.459  0.00  0.00    -0.199 OA
HETATM   13  O   UNK N   1      36.638  14.558  11.132  0.00  0.00    -0.199 OA
BRANCH  11  14
HETATM   14  N   UNK N   1      36.814  13.794  13.038  0.00  0.00    -0.323 N 
HETATM   15  H   UNK N   1      36.426  12.863  13.186  0.00  0.00     0.169 HD
HETATM   16  H   UNK N   1      37.787  13.943  13.306  0.00  0.00     0.169 HD
ENDBRANCH  11  14
ENDBRANCH   5  11
BRANCH   1  17
HETATM   17  O   UNK N   1      31.837  16.680   5.802  0.00  0.00    -0.361 OA
HETATM   18  H   UNK N   1      31.000  16.259   5.834  0.00  0.00     0.217 HD
ENDBRANCH   1  17
TORSDOF 3
ENDMDL
MODEL 6
REMARK VINA RESULT:      -5.0     22.678     23.774
REMARK  3 active torsions:
REMARK  status: ('A' for Active; 'I' for Inactive)
REMARK    1  A    between atoms: O_1  and  C_2 
REMARK    2  A    between atoms: C_6  and  S_7 
REMARK    3  A    between atoms: S_7  and  N_8 
ROOT
HETATM    1  C   UNK N   1      35.905  12.427  15.380  0.00  0.00     0.067 A 
HETATM    2  C   UNK N   1      35.330  12.264  14.109  0.00  0.00     0.057 A 
HETATM    3  C   UNK N   1      35.503  13.287  13.188  0.00  0.00     0.037 A 
HETATM    4  S   UNK N   1      34.925  13.453  11.656  0.00  0.00    -0.057 SA
HETATM    5  C   UNK N   1      35.587  14.964  11.349  0.00  0.00     0.192 A 
HETATM    6  N   UNK N   1      36.252  15.388  12.471  0.00  0.00    -0.339 N 
ATOM      7  HN  UNK N   1      36.719  16.292  12.550  1.00  0.00     0.167 HD
HETATM    8  C   UNK N   1      36.213  14.450  13.477  0.00  0.00     0.051 A 
HETATM    9  C   UNK N   1      36.794  14.617  14.735  0.00  0.00     0.034 A 
HETATM   10  C   UNK N   1      36.634  13.595  15.689  0.00  0.00     0.039 A 
ENDROOT
BRANCH   5  11
HETATM   11  S   UNK N   1      35.208  16.036   9.906  0.00  0.00     0.279 S 
HETATM   12  O   UNK N   1      33.817  15.456  10.203  0.00  0.00    -0.199 OA
HETATM   13  O   UNK N   1      35.238  17.033  11.073  0.00  0.00    -0.199 OA
BRANCH  11  14
HETATM   14  N   UNK N   1      34.171  17.343   9.337  0.00  0.00    -0.323 N 
HETATM   15  H   UNK N   1      34.350  18.339   9.466  0.00  0.00     0.169 HD
HETATM   16  H   UNK N   1      33.321  17.081   8.837  0.00  0.00     0.169 HD
ENDBRANCH  11  14
ENDBRANCH   5  11
BRANCH   1  17
HETATM   17  O   UNK N   1      35.747  11.471  16.309  0.00  0.00    -0.361 OA
HETATM   18  H   UNK N   1      35.185  11.621  17.045  0.00  0.00     0.217 HD
ENDBRANCH   1  17
TORSDOF 3
ENDMDL
MODEL 7
REMARK VINA RESULT:      -5.0     11.110     11.886
REMARK  3 active torsions:
REMARK  status: ('A' for Active; 'I' for Inactive)
REMARK    1  A    between atoms: O_1  and  C_2 
REMARK    2  A    between atoms: C_6  and  S_7 
REMARK    3  A    between atoms: S_7  and  N_8 
ROOT
HETATM    1  C   UNK N   1      19.849  19.046   2.690  0.00  0.00     0.067 A 
HETATM    2  C   UNK N   1      20.688  18.340   3.568  0.00  0.00     0.057 A 
HETATM    3  C   UNK N   1      21.986  18.801   3.730  0.00  0.00     0.037 A 
HETATM    4  S   UNK N   1      23.231  18.193   4.615  0.00  0.00    -0.057 SA
HETATM    5  C   UNK N   1      24.374  19.345   4.184  0.00  0.00     0.192 A 
HETATM    6  N   UNK N   1      23.800  20.218   3.295  0.00  0.00    -0.339 N 
ATOM      7  HN  UNK N   1      24.296  20.997   2.860  1.00  0.00     0.167 HD
HETATM    8  C   UNK N   1      22.477  19.921   3.062  0.00  0.00     0.051 A 
HETATM    9  C   UNK N   1      21.650  20.633   2.193  0.00  0.00     0.034 A 
HETATM   10  C   UNK N   1      20.328  20.187   2.009  0.00  0.00     0.039 A 
ENDROOT
BRANCH   5  11
HETATM   11  S   UNK N   1      26.173  19.268   4.542  0.00  0.00     0.279 S 
HETATM   12  O   UNK N   1      26.058  18.207   3.437  0.00  0.00    -0.199 OA
HETATM   13  O   UNK N   1      26.060  20.494   3.624  0.00  0.00    -0.199 OA
BRANCH  11  14
HETATM   14  N   UNK N   1      27.776  19.367   3.813  0.00  0.00    -0.323 N 
HETATM   15  H   UNK N   1      28.587  19.826   4.227  0.00  0.00     0.169 HD
HETATM   16  H   UNK N   1      27.902  18.927   2.901  0.00  0.00     0.169 HD
ENDBRANCH  11  14
ENDBRANCH   5  11
BRANCH   1  17
HETATM   17  O   UNK N   1      18.591  18.625   2.487  0.00  0.00    -0.361 OA
HETATM   18  H   UNK N   1      18.128  18.183   3.173  0.00  0.00     0.217 HD
ENDBRANCH   1  17
TORSDOF 3
ENDMDL
MODEL 8
REMARK VINA RESULT:      -5.0     18.727     19.481
REMARK  3 active torsions:
REMARK  status: ('A' for Active; 'I' for Inactive)
REMARK    1  A    between atoms: O_1  and  C_2 
REMARK    2  A    between atoms: C_6  and  S_7 
REMARK    3  A    between atoms: S_7  and  N_8 
ROOT
HETATM    1  C   UNK N   1      22.619  11.902  11.756  0.00  0.00     0.067 A 
HETATM    2  C   UNK N   1      21.448  12.547  11.327  0.00  0.00     0.057 A 
HETATM    3  C   UNK N   1      21.515  13.296  10.161  0.00  0.00     0.037 A 
HETATM    4  S   UNK N   1      20.373  14.216   9.416  0.00  0.00    -0.057 SA
HETATM    5  C   UNK N   1      21.335  14.754   8.150  0.00  0.00     0.192 A 
HETATM    6  N   UNK N   1      22.598  14.244   8.312  0.00  0.00    -0.339 N 
ATOM      7  HN  UNK N   1      23.379  14.446   7.688  1.00  0.00     0.167 HD
HETATM    8  C   UNK N   1      22.685  13.428   9.416  0.00  0.00     0.051 A 
HETATM    9  C   UNK N   1      23.852  12.784   9.832  0.00  0.00     0.034 A 
HETATM   10  C   UNK N   1      23.812  12.018  11.011  0.00  0.00     0.039 A 
ENDROOT
BRANCH   5  11
HETATM   11  S   UNK N   1      20.899  16.073   6.948  0.00  0.00     0.279 S 
HETATM   12  O   UNK N   1      20.854  16.862   8.266  0.00  0.00    -0.199 OA
HETATM   13  O   UNK N   1      22.429  16.002   6.837  0.00  0.00    -0.199 OA
BRANCH  11  14
HETATM   14  N   UNK N   1      21.332  17.688   6.388  0.00  0.00    -0.323 N 
HETATM   15  H   UNK N   1      22.258  18.109   6.456  0.00  0.00     0.169 HD
HETATM   16  H   UNK N   1      20.594  18.247   5.960  0.00  0.00     0.169 HD
ENDBRANCH  11  14
ENDBRANCH   5  11
BRANCH   1  17
HETATM   17  O   UNK N   1      22.605  11.182  12.889  0.00  0.00    -0.361 OA
HETATM   18  H   UNK N   1      22.105  10.390  12.936  0.00  0.00     0.217 HD
ENDBRANCH   1  17
TORSDOF 3
ENDMDL
MODEL 9
REMARK VINA RESULT:      -5.0     20.533     21.581
REMARK  3 active torsions:
REMARK  status: ('A' for Active; 'I' for Inactive)
REMARK    1  A    between atoms: O_1  and  C_2 
REMARK    2  A    between atoms: C_6  and  S_7 
REMARK    3  A    between atoms: S_7  and  N_8 
ROOT
HETATM    1  C   UNK N   1      33.396  17.079   8.338  0.00  0.00     0.067 A 
HETATM    2  C   UNK N   1      34.521  17.137   9.176  0.00  0.00     0.057 A 
HETATM    3  C   UNK N   1      34.701  16.105  10.086  0.00  0.00     0.037 A 
HETATM    4  S   UNK N   1      35.854  15.889  11.239  0.00  0.00    -0.057 SA
HETATM    5  C   UNK N   1      35.261  14.444  11.855  0.00  0.00     0.192 A 
HETATM    6  N   UNK N   1      34.111  14.120  11.181  0.00  0.00    -0.339 N 
ATOM      7  HN  UNK N   1      33.542  13.298  11.387  1.00  0.00     0.167 HD
HETATM    8  C   UNK N   1      33.816  15.034  10.196  0.00  0.00     0.051 A 
HETATM    9  C   UNK N   1      32.699  14.965   9.364  0.00  0.00     0.034 A 
HETATM   10  C   UNK N   1      32.492  15.997   8.431  0.00  0.00     0.039 A 
ENDROOT
BRANCH   5  11
HETATM   11  S   UNK N   1      35.831  13.609  13.388  0.00  0.00     0.279 S 
HETATM   12  O   UNK N   1      36.925  13.172  12.403  0.00  0.00    -0.199 OA
HETATM   13  O   UNK N   1      36.329  15.049  13.579  0.00  0.00    -0.199 OA
BRANCH  11  14
HETATM   14  N   UNK N   1      37.204  13.413  14.477  0.00  0.00    -0.323 N 
HETATM   15  H   UNK N   1      37.933  14.108  14.640  0.00  0.00     0.169 HD
HETATM   16  H   UNK N   1      37.275  12.533  14.986  0.00  0.00     0.169 HD
ENDBRANCH  11  14
ENDBRANCH   5  11
BRANCH   1  17
HETATM   17  O   UNK N   1      33.171  18.064   7.455  0.00  0.00    -0.361 OA
HETATM   18  H   UNK N   1      32.360  18.097   6.986  0.00  0.00     0.217 HD
ENDBRANCH   1  17
TORSDOF 3
ENDMDL
