MODEL 1
REMARK VINA RESULT:      -6.7      0.000      0.000
REMARK  7 active torsions:
REMARK  status: ('A' for Active; 'I' for Inactive)
REMARK    1  A    between atoms: C_2  and  S_20 
REMARK    2  A    between atoms: C_7  and  C_8 
REMARK    3  A    between atoms: C_8  and  O_16 
REMARK    4  A    between atoms: C_10  and  S_20 
REMARK    5  A    between atoms: C_13  and  C_14 
REMARK    6  A    between atoms: C_13  and  C_15 
REMARK       I    between atoms: C_14  and  N_19 
REMARK    7  A    between atoms: C_15  and  S_21 
ROOT
HETATM    1  C   UNK N   1      20.349  16.756   8.652  0.00  0.00     0.186 C 
HETATM    2  C   UNK N   1      20.583  15.325   9.148  0.00  0.00     0.053 C 
HETATM    3  C   UNK N   1      21.664  14.774   8.215  0.00  0.00     0.073 C 
HETATM    4  C   UNK N   1      21.282  15.409   6.911  0.00  0.00     0.142 C 
HETATM    5  C   UNK N   1      21.124  17.847   6.551  0.00  0.00     0.225 C 
HETATM    6  O   UNK N   1      20.813  18.939   7.008  0.00  0.00    -0.273 OA
HETATM    7  N   UNK N   1      20.858  16.721   7.294  0.00  0.00    -0.336 N 
ENDROOT
BRANCH   3   8
HETATM    8  S   UNK N   1      21.681  12.962   7.970  0.00  0.00    -0.123 SA
BRANCH   8   9
HETATM    9  C   UNK N   1      22.574  12.499   9.447  0.00  0.00     0.001 A 
HETATM   10  C   UNK N   1      21.878  12.194  10.621  0.00  0.00     0.018 A 
HETATM   11  C   UNK N   1      22.583  11.878  11.786  0.00  0.00     0.001 A 
HETATM   12  C   UNK N   1      23.982  11.867  11.775  0.00  0.00     0.000 A 
HETATM   13  C   UNK N   1      24.676  12.177  10.603  0.00  0.00     0.001 A 
HETATM   14  C   UNK N   1      23.973  12.502   9.442  0.00  0.00     0.018 A 
ENDBRANCH   8   9
ENDBRANCH   3   8
BRANCH   1  15
HETATM   15  C   UNK N   1      18.885  17.140   8.752  0.00  0.00     0.163 C 
HETATM   16  O   UNK N   1      18.017  16.380   8.347  0.00  0.00    -0.648 OA
BRANCH  15  17
HETATM   17  O   UNK N   1      18.525  18.304   9.324  0.00  0.00    -0.775 OA
HETATM   18  H   UNK N   1      17.687  18.385   9.733  0.00  0.00     0.167 HD
ENDBRANCH  15  17
ENDBRANCH   1  15
BRANCH   5  19
HETATM   19  C   UNK N   1      21.868  17.836   5.200  0.00  0.00     0.083 C 
HETATM   20  C   UNK N   1      21.399  18.805   4.127  0.00  0.00     0.020 C 
BRANCH  19  21
HETATM   21  C   UNK N   1      23.361  18.089   5.370  0.00  0.00     0.084 C 
BRANCH  21  22
HETATM   22  S   UNK N   1      24.082  18.934   3.929  0.00  0.00    -0.181 SA
HETATM   23  H   UNK N   1      23.480  19.703   2.983  0.00  0.00     0.101 HD
ENDBRANCH  21  22
ENDBRANCH  19  21
ENDBRANCH   5  19
TORSDOF 7
ENDMDL
MODEL 2
REMARK VINA RESULT:      -6.1      4.227      5.817
REMARK  7 active torsions:
REMARK  status: ('A' for Active; 'I' for Inactive)
REMARK    1  A    between atoms: C_2  and  S_20 
REMARK    2  A    between atoms: C_7  and  C_8 
REMARK    3  A    between atoms: C_8  and  O_16 
REMARK    4  A    between atoms: C_10  and  S_20 
REMARK    5  A    between atoms: C_13  and  C_14 
REMARK    6  A    between atoms: C_13  and  C_15 
REMARK       I    between atoms: C_14  and  N_19 
REMARK    7  A    between atoms: C_15  and  S_21 
ROOT
HETATM    1  C   UNK N   1      21.112  19.842   3.010  0.00  0.00     0.186 C 
HETATM    2  C   UNK N   1      20.274  18.633   3.441  0.00  0.00     0.053 C 
HETATM    3  C   UNK N   1      21.228  17.798   4.298  0.00  0.00     0.073 C 
HETATM    4  C   UNK N   1      22.528  18.001   3.578  0.00  0.00     0.142 C 
HETATM    5  C   UNK N   1      23.569  20.207   3.194  0.00  0.00     0.225 C 
HETATM    6  O   UNK N   1      23.408  21.394   2.937  0.00  0.00    -0.273 OA
HETATM    7  N   UNK N   1      22.475  19.375   3.180  0.00  0.00    -0.336 N 
ENDROOT
BRANCH   3   8
HETATM    8  S   UNK N   1      20.901  16.000   4.364  0.00  0.00    -0.123 SA
BRANCH   8   9
HETATM    9  C   UNK N   1      20.690  15.830   6.130  0.00  0.00     0.001 A 
HETATM   10  C   UNK N   1      20.531  16.965   6.930  0.00  0.00     0.018 A 
HETATM   11  C   UNK N   1      20.413  16.828   8.317  0.00  0.00     0.001 A 
HETATM   12  C   UNK N   1      20.455  15.558   8.900  0.00  0.00     0.000 A 
HETATM   13  C   UNK N   1      20.621  14.424   8.100  0.00  0.00     0.001 A 
HETATM   14  C   UNK N   1      20.747  14.561   6.716  0.00  0.00     0.018 A 
ENDBRANCH   8   9
ENDBRANCH   3   8
BRANCH   1  15
HETATM   15  C   UNK N   1      20.778  20.265   1.592  0.00  0.00     0.163 C 
HETATM   16  O   UNK N   1      20.688  21.450   1.304  0.00  0.00    -0.648 OA
BRANCH  15  17
HETATM   17  O   UNK N   1      20.617  19.340   0.627  0.00  0.00    -0.775 OA
HETATM   18  H   UNK N   1      20.788  19.561  -0.267  0.00  0.00     0.167 HD
ENDBRANCH  15  17
ENDBRANCH   1  15
BRANCH   5  19
HETATM   19  C   UNK N   1      24.991  19.762   3.593  0.00  0.00     0.083 C 
HETATM   20  C   UNK N   1      26.164  20.512   2.984  0.00  0.00     0.020 C 
BRANCH  19  21
HETATM   21  C   UNK N   1      25.200  19.809   5.102  0.00  0.00     0.084 C 
BRANCH  21  22
HETATM   22  S   UNK N   1      26.823  20.500   5.548  0.00  0.00    -0.181 SA
HETATM   23  H   UNK N   1      28.064  19.967   5.396  0.00  0.00     0.101 HD
ENDBRANCH  21  22
ENDBRANCH  19  21
ENDBRANCH   5  19
TORSDOF 7
ENDMDL
MODEL 3
REMARK VINA RESULT:      -6.1     10.094     12.738
REMARK  7 active torsions:
REMARK  status: ('A' for Active; 'I' for Inactive)
REMARK    1  A    between atoms: C_2  and  S_20 
REMARK    2  A    between atoms: C_7  and  C_8 
REMARK    3  A    between atoms: C_8  and  O_16 
REMARK    4  A    between atoms: C_10  and  S_20 
REMARK    5  A    between atoms: C_13  and  C_14 
REMARK    6  A    between atoms: C_13  and  C_15 
REMARK       I    between atoms: C_14  and  N_19 
REMARK    7  A    between atoms: C_15  and  S_21 
ROOT
HETATM    1  C   UNK N   1      33.308  17.697   8.656  0.00  0.00     0.186 C 
HETATM    2  C   UNK N   1      32.037  17.773   7.803  0.00  0.00     0.053 C 
HETATM    3  C   UNK N   1      31.306  16.461   8.095  0.00  0.00     0.073 C 
HETATM    4  C   UNK N   1      32.455  15.505   8.226  0.00  0.00     0.142 C 
HETATM    5  C   UNK N   1      34.281  15.751   9.869  0.00  0.00     0.225 C 
HETATM    6  O   UNK N   1      35.031  16.508  10.473  0.00  0.00    -0.273 OA
HETATM    7  N   UNK N   1      33.449  16.275   8.908  0.00  0.00    -0.336 N 
ENDROOT
BRANCH   3   8
HETATM    8  S   UNK N   1      30.203  15.832   6.779  0.00  0.00    -0.123 SA
BRANCH   8   9
HETATM    9  C   UNK N   1      29.283  17.330   6.460  0.00  0.00     0.001 A 
HETATM   10  C   UNK N   1      28.626  17.986   7.506  0.00  0.00     0.018 A 
HETATM   11  C   UNK N   1      27.869  19.132   7.243  0.00  0.00     0.001 A 
HETATM   12  C   UNK N   1      27.770  19.619   5.935  0.00  0.00     0.000 A 
HETATM   13  C   UNK N   1      28.422  18.959   4.890  0.00  0.00     0.001 A 
HETATM   14  C   UNK N   1      29.171  17.810   5.151  0.00  0.00     0.018 A 
ENDBRANCH   8   9
ENDBRANCH   3   8
BRANCH   1  15
HETATM   15  C   UNK N   1      34.490  18.315   7.935  0.00  0.00     0.163 C 
HETATM   16  O   UNK N   1      34.701  18.061   6.758  0.00  0.00    -0.648 OA
BRANCH  15  17
HETATM   17  O   UNK N   1      35.298  19.181   8.574  0.00  0.00    -0.775 OA
HETATM   18  H   UNK N   1      35.392  20.057   8.256  0.00  0.00     0.167 HD
ENDBRANCH  15  17
ENDBRANCH   1  15
BRANCH   5  19
HETATM   19  C   UNK N   1      34.280  14.271  10.302  0.00  0.00     0.083 C 
HETATM   20  C   UNK N   1      35.031  13.279   9.428  0.00  0.00     0.020 C 
BRANCH  19  21
HETATM   21  C   UNK N   1      34.829  14.089  11.711  0.00  0.00     0.084 C 
BRANCH  21  22
HETATM   22  S   UNK N   1      36.511  13.395  11.707  0.00  0.00    -0.181 SA
HETATM   23  H   UNK N   1      37.082  12.508  10.850  0.00  0.00     0.101 HD
ENDBRANCH  21  22
ENDBRANCH  19  21
ENDBRANCH   5  19
TORSDOF 7
ENDMDL
MODEL 4
REMARK VINA RESULT:      -6.0      1.808      6.817
REMARK  7 active torsions:
REMARK  status: ('A' for Active; 'I' for Inactive)
REMARK    1  A    between atoms: C_2  and  S_20 
REMARK    2  A    between atoms: C_7  and  C_8 
REMARK    3  A    between atoms: C_8  and  O_16 
REMARK    4  A    between atoms: C_10  and  S_20 
REMARK    5  A    between atoms: C_13  and  C_14 
REMARK    6  A    between atoms: C_13  and  C_15 
REMARK       I    between atoms: C_14  and  N_19 
REMARK    7  A    between atoms: C_15  and  S_21 
ROOT
HETATM    1  C   UNK N   1      19.649  16.293   7.794  0.00  0.00     0.186 C 
HETATM    2  C   UNK N   1      20.265  16.915   6.536  0.00  0.00     0.053 C 
HETATM    3  C   UNK N   1      21.371  15.937   6.134  0.00  0.00     0.073 C 
HETATM    4  C   UNK N   1      21.882  15.499   7.475  0.00  0.00     0.142 C 
HETATM    5  C   UNK N   1      20.488  14.417   9.202  0.00  0.00     0.225 C 
HETATM    6  O   UNK N   1      19.398  14.352   9.757  0.00  0.00    -0.273 OA
HETATM    7  N   UNK N   1      20.693  15.403   8.266  0.00  0.00    -0.336 N 
ENDROOT
BRANCH   3   8
HETATM    8  S   UNK N   1      22.779  16.639   5.202  0.00  0.00    -0.123 SA
BRANCH   8   9
HETATM    9  C   UNK N   1      21.860  17.582   3.995  0.00  0.00     0.001 A 
HETATM   10  C   UNK N   1      21.080  16.925   3.038  0.00  0.00     0.018 A 
HETATM   11  C   UNK N   1      20.400  17.665   2.067  0.00  0.00     0.001 A 
HETATM   12  C   UNK N   1      20.502  19.060   2.053  0.00  0.00     0.000 A 
HETATM   13  C   UNK N   1      21.287  19.715   3.005  0.00  0.00     0.001 A 
HETATM   14  C   UNK N   1      21.973  18.976   3.970  0.00  0.00     0.018 A 
ENDBRANCH   8   9
ENDBRANCH   3   8
BRANCH   1  15
HETATM   15  C   UNK N   1      19.251  17.360   8.795  0.00  0.00     0.163 C 
HETATM   16  O   UNK N   1      19.919  18.378   8.915  0.00  0.00    -0.648 OA
BRANCH  15  17
HETATM   17  O   UNK N   1      18.136  17.216   9.536  0.00  0.00    -0.775 OA
HETATM   18  H   UNK N   1      18.140  17.458  10.440  0.00  0.00     0.167 HD
ENDBRANCH  15  17
ENDBRANCH   1  15
BRANCH   5  19
HETATM   19  C   UNK N   1      21.520  13.325   9.549  0.00  0.00     0.083 C 
HETATM   20  C   UNK N   1      21.281  12.500  10.804  0.00  0.00     0.020 C 
BRANCH  19  21
HETATM   21  C   UNK N   1      21.691  12.322   8.415  0.00  0.00     0.084 C 
BRANCH  21  22
HETATM   22  S   UNK N   1      23.335  11.542   8.432  0.00  0.00    -0.181 SA
HETATM   23  H   UNK N   1      23.720  10.319   7.980  0.00  0.00     0.101 HD
ENDBRANCH  21  22
ENDBRANCH  19  21
ENDBRANCH   5  19
TORSDOF 7
ENDMDL
MODEL 5
REMARK VINA RESULT:      -5.8     11.090     13.383
REMARK  7 active torsions:
REMARK  status: ('A' for Active; 'I' for Inactive)
REMARK    1  A    between atoms: C_2  and  S_20 
REMARK    2  A    between atoms: C_7  and  C_8 
REMARK    3  A    between atoms: C_8  and  O_16 
REMARK    4  A    between atoms: C_10  and  S_20 
REMARK    5  A    between atoms: C_13  and  C_14 
REMARK    6  A    between atoms: C_13  and  C_15 
REMARK       I    between atoms: C_14  and  N_19 
REMARK    7  A    between atoms: C_15  and  S_21 
ROOT
HETATM    1  C   UNK N   1      33.301  17.551   8.584  0.00  0.00     0.186 C 
HETATM    2  C   UNK N   1      32.076  17.523   7.665  0.00  0.00     0.053 C 
HETATM    3  C   UNK N   1      31.430  16.163   7.937  0.00  0.00     0.073 C 
HETATM    4  C   UNK N   1      32.638  15.297   8.142  0.00  0.00     0.142 C 
HETATM    5  C   UNK N   1      34.351  15.698   9.876  0.00  0.00     0.225 C 
HETATM    6  O   UNK N   1      35.008  16.515  10.507  0.00  0.00    -0.273 OA
HETATM    7  N   UNK N   1      33.535  16.147   8.864  0.00  0.00    -0.336 N 
ENDROOT
BRANCH   3   8
HETATM    8  S   UNK N   1      30.450  15.439   6.573  0.00  0.00    -0.123 SA
BRANCH   8   9
HETATM    9  C   UNK N   1      31.545  15.830   5.217  0.00  0.00     0.001 A 
HETATM   10  C   UNK N   1      31.428  17.054   4.551  0.00  0.00     0.018 A 
HETATM   11  C   UNK N   1      32.257  17.335   3.460  0.00  0.00     0.001 A 
HETATM   12  C   UNK N   1      33.201  16.393   3.038  0.00  0.00     0.000 A 
HETATM   13  C   UNK N   1      33.313  15.169   3.701  0.00  0.00     0.001 A 
HETATM   14  C   UNK N   1      32.480  14.883   4.784  0.00  0.00     0.018 A 
ENDBRANCH   8   9
ENDBRANCH   3   8
BRANCH   1  15
HETATM   15  C   UNK N   1      34.471  18.250   7.918  0.00  0.00     0.163 C 
HETATM   16  O   UNK N   1      34.721  18.052   6.738  0.00  0.00    -0.648 OA
BRANCH  15  17
HETATM   17  O   UNK N   1      35.224  19.124   8.611  0.00  0.00    -0.775 OA
HETATM   18  H   UNK N   1      34.924  20.002   8.740  0.00  0.00     0.167 HD
ENDBRANCH  15  17
ENDBRANCH   1  15
BRANCH   5  19
HETATM   19  C   UNK N   1      34.437  14.226  10.329  0.00  0.00     0.083 C 
HETATM   20  C   UNK N   1      35.341  13.295   9.538  0.00  0.00     0.020 C 
BRANCH  19  21
HETATM   21  C   UNK N   1      34.876  14.103  11.782  0.00  0.00     0.084 C 
BRANCH  21  22
HETATM   22  S   UNK N   1      36.561  13.432  11.935  0.00  0.00    -0.181 SA
HETATM   23  H   UNK N   1      37.034  12.196  11.624  0.00  0.00     0.101 HD
ENDBRANCH  21  22
ENDBRANCH  19  21
ENDBRANCH   5  19
TORSDOF 7
ENDMDL
MODEL 6
REMARK VINA RESULT:      -5.7      7.250      9.905
REMARK  7 active torsions:
REMARK  status: ('A' for Active; 'I' for Inactive)
REMARK    1  A    between atoms: C_2  and  S_20 
REMARK    2  A    between atoms: C_7  and  C_8 
REMARK    3  A    between atoms: C_8  and  O_16 
REMARK    4  A    between atoms: C_10  and  S_20 
REMARK    5  A    between atoms: C_13  and  C_14 
REMARK    6  A    between atoms: C_13  and  C_15 
REMARK       I    between atoms: C_14  and  N_19 
REMARK    7  A    between atoms: C_15  and  S_21 
ROOT
HETATM    1  C   UNK N   1      28.690  17.121   7.475  0.00  0.00     0.186 C 
HETATM    2  C   UNK N   1      27.842  16.854   6.227  0.00  0.00     0.053 C 
HETATM    3  C   UNK N   1      28.861  16.467   5.153  0.00  0.00     0.073 C 
HETATM    4  C   UNK N   1      30.011  17.367   5.498  0.00  0.00     0.142 C 
HETATM    5  C   UNK N   1      31.159  17.372   7.683  0.00  0.00     0.225 C 
HETATM    6  O   UNK N   1      31.063  17.270   8.900  0.00  0.00    -0.273 OA
HETATM    7  N   UNK N   1      30.010  17.371   6.928  0.00  0.00    -0.336 N 
ENDROOT
BRANCH   3   8
HETATM    8  S   UNK N   1      28.386  16.806   3.420  0.00  0.00    -0.123 SA
BRANCH   8   9
HETATM    9  C   UNK N   1      27.197  18.106   3.716  0.00  0.00     0.001 A 
HETATM   10  C   UNK N   1      25.829  17.850   3.579  0.00  0.00     0.018 A 
HETATM   11  C   UNK N   1      24.905  18.882   3.766  0.00  0.00     0.001 A 
HETATM   12  C   UNK N   1      25.350  20.168   4.088  0.00  0.00     0.000 A 
HETATM   13  C   UNK N   1      26.717  20.424   4.218  0.00  0.00     0.001 A 
HETATM   14  C   UNK N   1      27.641  19.396   4.023  0.00  0.00     0.018 A 
ENDBRANCH   8   9
ENDBRANCH   3   8
BRANCH   1  15
HETATM   15  C   UNK N   1      28.129  18.275   8.284  0.00  0.00     0.163 C 
HETATM   16  O   UNK N   1      28.191  19.419   7.856  0.00  0.00    -0.648 OA
BRANCH  15  17
HETATM   17  O   UNK N   1      27.523  18.048   9.463  0.00  0.00    -0.775 OA
HETATM   18  H   UNK N   1      27.055  18.737   9.891  0.00  0.00     0.167 HD
ENDBRANCH  15  17
ENDBRANCH   1  15
BRANCH   5  19
HETATM   19  C   UNK N   1      32.583  17.413   7.092  0.00  0.00     0.083 C 
HETATM   20  C   UNK N   1      33.641  18.200   7.850  0.00  0.00     0.020 C 
BRANCH  19  21
HETATM   21  C   UNK N   1      33.159  16.016   6.897  0.00  0.00     0.084 C 
BRANCH  21  22
HETATM   22  S   UNK N   1      33.452  15.635   5.142  0.00  0.00    -0.181 SA
HETATM   23  H   UNK N   1      34.616  15.623   4.439  0.00  0.00     0.101 HD
ENDBRANCH  21  22
ENDBRANCH  19  21
ENDBRANCH   5  19
TORSDOF 7
ENDMDL
MODEL 7
REMARK VINA RESULT:      -5.7     16.514     17.500
REMARK  7 active torsions:
REMARK  status: ('A' for Active; 'I' for Inactive)
REMARK    1  A    between atoms: C_2  and  S_20 
REMARK    2  A    between atoms: C_7  and  C_8 
REMARK    3  A    between atoms: C_8  and  O_16 
REMARK    4  A    between atoms: C_10  and  S_20 
REMARK    5  A    between atoms: C_13  and  C_14 
REMARK    6  A    between atoms: C_13  and  C_15 
REMARK       I    between atoms: C_14  and  N_19 
REMARK    7  A    between atoms: C_15  and  S_21 
ROOT
HETATM    1  C   UNK N   1      26.541  25.711  -4.123  0.00  0.00     0.186 C 
HETATM    2  C   UNK N   1      27.706  24.787  -4.491  0.00  0.00     0.053 C 
HETATM    3  C   UNK N   1      28.956  25.598  -4.144  0.00  0.00     0.073 C 
HETATM    4  C   UNK N   1      28.525  26.984  -4.522  0.00  0.00     0.142 C 
HETATM    5  C   UNK N   1      26.566  28.138  -3.557  0.00  0.00     0.225 C 
HETATM    6  O   UNK N   1      25.417  28.049  -3.143  0.00  0.00    -0.273 OA
HETATM    7  N   UNK N   1      27.154  27.026  -4.115  0.00  0.00    -0.336 N 
ENDROOT
BRANCH   3   8
HETATM    8  S   UNK N   1      30.470  25.206  -5.091  0.00  0.00    -0.123 SA
BRANCH   8   9
HETATM    9  C   UNK N   1      30.657  23.497  -4.605  0.00  0.00     0.001 A 
HETATM   10  C   UNK N   1      30.305  22.473  -5.491  0.00  0.00     0.018 A 
HETATM   11  C   UNK N   1      30.409  21.138  -5.089  0.00  0.00     0.001 A 
HETATM   12  C   UNK N   1      30.864  20.829  -3.803  0.00  0.00     0.000 A 
HETATM   13  C   UNK N   1      31.210  21.853  -2.917  0.00  0.00     0.001 A 
HETATM   14  C   UNK N   1      31.097  23.186  -3.315  0.00  0.00     0.018 A 
ENDBRANCH   8   9
ENDBRANCH   3   8
BRANCH   1  15
HETATM   15  C   UNK N   1      25.396  25.572  -5.108  0.00  0.00     0.163 C 
HETATM   16  O   UNK N   1      25.015  24.465  -5.462  0.00  0.00    -0.648 OA
BRANCH  15  17
HETATM   17  O   UNK N   1      24.762  26.664  -5.573  0.00  0.00    -0.775 OA
HETATM   18  H   UNK N   1      24.191  27.150  -5.011  0.00  0.00     0.167 HD
ENDBRANCH  15  17
ENDBRANCH   1  15
BRANCH   5  19
HETATM   19  C   UNK N   1      27.289  29.482  -3.341  0.00  0.00     0.083 C 
HETATM   20  C   UNK N   1      26.489  30.757  -3.555  0.00  0.00     0.020 C 
BRANCH  19  21
HETATM   21  C   UNK N   1      27.885  29.590  -1.943  0.00  0.00     0.084 C 
BRANCH  21  22
HETATM   22  S   UNK N   1      29.701  29.695  -1.979  0.00  0.00    -0.181 SA
HETATM   23  H   UNK N   1      30.504  30.761  -2.242  0.00  0.00     0.101 HD
ENDBRANCH  21  22
ENDBRANCH  19  21
ENDBRANCH   5  19
TORSDOF 7
ENDMDL
MODEL 8
REMARK VINA RESULT:      -5.7      5.990      7.084
REMARK  7 active torsions:
REMARK  status: ('A' for Active; 'I' for Inactive)
REMARK    1  A    between atoms: C_2  and  S_20 
REMARK    2  A    between atoms: C_7  and  C_8 
REMARK    3  A    between atoms: C_8  and  O_16 
REMARK    4  A    between atoms: C_10  and  S_20 
REMARK    5  A    between atoms: C_13  and  C_14 
REMARK    6  A    between atoms: C_13  and  C_15 
REMARK       I    between atoms: C_14  and  N_19 
REMARK    7  A    between atoms: C_15  and  S_21 
ROOT
HETATM    1  C   UNK N   1      21.183  20.064   3.041  0.00  0.00     0.186 C 
HETATM    2  C   UNK N   1      20.264  18.991   3.634  0.00  0.00     0.053 C 
HETATM    3  C   UNK N   1      21.168  18.201   4.582  0.00  0.00     0.073 C 
HETATM    4  C   UNK N   1      22.465  18.206   3.828  0.00  0.00     0.142 C 
HETATM    5  C   UNK N   1      23.665  20.254   3.149  0.00  0.00     0.225 C 
HETATM    6  O   UNK N   1      23.590  21.407   2.742  0.00  0.00    -0.273 OA
HETATM    7  N   UNK N   1      22.509  19.516   3.256  0.00  0.00    -0.336 N 
ENDROOT
BRANCH   3   8
HETATM    8  S   UNK N   1      20.705  16.458   4.885  0.00  0.00    -0.123 SA
BRANCH   8   9
HETATM    9  C   UNK N   1      21.250  15.761   3.332  0.00  0.00     0.001 A 
HETATM   10  C   UNK N   1      20.447  15.873   2.193  0.00  0.00     0.018 A 
HETATM   11  C   UNK N   1      20.857  15.286   0.992  0.00  0.00     0.001 A 
HETATM   12  C   UNK N   1      22.067  14.587   0.933  0.00  0.00     0.000 A 
HETATM   13  C   UNK N   1      22.865  14.470   2.074  0.00  0.00     0.001 A 
HETATM   14  C   UNK N   1      22.453  15.049   3.275  0.00  0.00     0.018 A 
ENDBRANCH   8   9
ENDBRANCH   3   8
BRANCH   1  15
HETATM   15  C   UNK N   1      20.854  20.326   1.584  0.00  0.00     0.163 C 
HETATM   16  O   UNK N   1      20.796  21.471   1.158  0.00  0.00    -0.648 OA
BRANCH  15  17
HETATM   17  O   UNK N   1      20.660  19.299   0.736  0.00  0.00    -0.775 OA
HETATM   18  H   UNK N   1      21.360  19.008   0.185  0.00  0.00     0.167 HD
ENDBRANCH  15  17
ENDBRANCH   1  15
BRANCH   5  19
HETATM   19  C   UNK N   1      25.056  19.753   3.588  0.00  0.00     0.083 C 
HETATM   20  C   UNK N   1      26.274  20.481   3.043  0.00  0.00     0.020 C 
BRANCH  19  21
HETATM   21  C   UNK N   1      25.210  19.754   5.104  0.00  0.00     0.084 C 
BRANCH  21  22
HETATM   22  S   UNK N   1      26.593  20.802   5.652  0.00  0.00    -0.181 SA
HETATM   23  H   UNK N   1      27.497  20.595   6.646  0.00  0.00     0.101 HD
ENDBRANCH  21  22
ENDBRANCH  19  21
ENDBRANCH   5  19
TORSDOF 7
ENDMDL
MODEL 9
REMARK VINA RESULT:      -5.6     16.669     18.519
REMARK  7 active torsions:
REMARK  status: ('A' for Active; 'I' for Inactive)
REMARK    1  A    between atoms: C_2  and  S_20 
REMARK    2  A    between atoms: C_7  and  C_8 
REMARK    3  A    between atoms: C_8  and  O_16 
REMARK    4  A    between atoms: C_10  and  S_20 
REMARK    5  A    between atoms: C_13  and  C_14 
REMARK    6  A    between atoms: C_13  and  C_15 
REMARK       I    between atoms: C_14  and  N_19 
REMARK    7  A    between atoms: C_15  and  S_21 
ROOT
HETATM    1  C   UNK N   1      29.336  23.272  -3.901  0.00  0.00     0.186 C 
HETATM    2  C   UNK N   1      28.574  24.459  -4.498  0.00  0.00     0.053 C 
HETATM    3  C   UNK N   1      28.475  24.133  -5.989  0.00  0.00     0.073 C 
HETATM    4  C   UNK N   1      29.799  23.473  -6.237  0.00  0.00     0.142 C 
HETATM    5  C   UNK N   1      30.581  21.450  -5.057  0.00  0.00     0.225 C 
HETATM    6  O   UNK N   1      30.627  20.821  -4.008  0.00  0.00    -0.273 OA
HETATM    7  N   UNK N   1      30.011  22.701  -5.051  0.00  0.00    -0.336 N 
ENDROOT
BRANCH   3   8
HETATM    8  S   UNK N   1      28.339  25.558  -7.127  0.00  0.00    -0.123 SA
BRANCH   8   9
HETATM    9  C   UNK N   1      27.101  26.493  -6.242  0.00  0.00     0.001 A 
HETATM   10  C   UNK N   1      25.770  26.064  -6.236  0.00  0.00     0.018 A 
HETATM   11  C   UNK N   1      24.796  26.824  -5.581  0.00  0.00     0.001 A 
HETATM   12  C   UNK N   1      25.154  28.011  -4.934  0.00  0.00     0.000 A 
HETATM   13  C   UNK N   1      26.484  28.442  -4.946  0.00  0.00     0.001 A 
HETATM   14  C   UNK N   1      27.455  27.688  -5.608  0.00  0.00     0.018 A 
ENDBRANCH   8   9
ENDBRANCH   3   8
BRANCH   1  15
HETATM   15  C   UNK N   1      30.274  23.720  -2.796  0.00  0.00     0.163 C 
HETATM   16  O   UNK N   1      30.801  24.822  -2.840  0.00  0.00    -0.648 OA
BRANCH  15  17
HETATM   17  O   UNK N   1      30.505  22.924  -1.736  0.00  0.00    -0.775 OA
HETATM   18  H   UNK N   1      31.380  22.665  -1.526  0.00  0.00     0.167 HD
ENDBRANCH  15  17
ENDBRANCH   1  15
BRANCH   5  19
HETATM   19  C   UNK N   1      31.101  20.742  -6.324  0.00  0.00     0.083 C 
HETATM   20  C   UNK N   1      32.458  20.061  -6.246  0.00  0.00     0.020 C 
BRANCH  19  21
HETATM   21  C   UNK N   1      30.128  19.683  -6.826  0.00  0.00     0.084 C 
BRANCH  21  22
HETATM   22  S   UNK N   1      28.913  20.367  -7.995  0.00  0.00    -0.181 SA
HETATM   23  H   UNK N   1      29.070  20.733  -9.295  0.00  0.00     0.101 HD
ENDBRANCH  21  22
ENDBRANCH  19  21
ENDBRANCH   5  19
TORSDOF 7
ENDMDL
