MODEL 1
REMARK VINA RESULT:      -5.0      0.000      0.000
REMARK  3 active torsions:
REMARK  status: ('A' for Active; 'I' for Inactive)
REMARK       I    between atoms: C_2  and  N_3 
REMARK    1  A    between atoms: C_2  and  C_4 
REMARK    2  A    between atoms: C_4  and  C_5 
REMARK    3  A    between atoms: C_8  and  O_9 
ROOT
HETATM    1  C   UNK N   1      22.138  12.426   9.648  0.00  0.00    -0.049 A 
HETATM    2  C   UNK N   1      22.164  12.251   8.259  0.00  0.00     0.010 A 
HETATM    3  C   UNK N   1      21.409  13.089   7.426  0.00  0.00     0.037 A 
HETATM    4  C   UNK N   1      20.620  14.114   7.981  0.00  0.00     0.068 A 
HETATM    5  C   UNK N   1      20.599  14.285   9.365  0.00  0.00     0.037 A 
HETATM    6  C   UNK N   1      21.349  13.450  10.189  0.00  0.00     0.010 A 
ENDROOT
BRANCH   1   7
HETATM    7  C   UNK N   1      22.958  11.498  10.514  0.00  0.00     0.141 C 
BRANCH   7   8
HETATM    8  C   UNK N   1      24.038  12.066  11.414  0.00  0.00     0.219 C 
HETATM    9  O   UNK N   1      23.906  11.974  12.620  0.00  0.00    -0.273 OA
HETATM   10  N   UNK N   1      25.139  12.673  10.920  0.00  0.00    -0.370 N 
HETATM   11  H   UNK N   1      25.825  13.022  11.533  0.00  0.00     0.159 HD
HETATM   12  H   UNK N   1      25.255  12.766   9.948  0.00  0.00     0.159 HD
ENDBRANCH   7   8
ENDBRANCH   1   7
BRANCH   4  13
HETATM   13  O   UNK N   1      19.876  14.944   7.214  0.00  0.00    -0.356 OA
HETATM   14  C   UNK N   1      19.708  16.281   7.488  0.00  0.00     0.210 C 
ENDBRANCH   4  13
TORSDOF 3
ENDMDL
MODEL 2
REMARK VINA RESULT:      -5.0     11.304     11.713
REMARK  3 active torsions:
REMARK  status: ('A' for Active; 'I' for Inactive)
REMARK       I    between atoms: C_2  and  N_3 
REMARK    1  A    between atoms: C_2  and  C_4 
REMARK    2  A    between atoms: C_4  and  C_5 
REMARK    3  A    between atoms: C_8  and  O_9 
ROOT
HETATM    1  C   UNK N   1      33.057  17.304   6.329  0.00  0.00    -0.049 A 
HETATM    2  C   UNK N   1      33.058  17.544   4.949  0.00  0.00     0.010 A 
HETATM    3  C   UNK N   1      31.851  17.598   4.239  0.00  0.00     0.037 A 
HETATM    4  C   UNK N   1      30.627  17.411   4.910  0.00  0.00     0.068 A 
HETATM    5  C   UNK N   1      30.631  17.173   6.283  0.00  0.00     0.037 A 
HETATM    6  C   UNK N   1      31.833  17.119   6.985  0.00  0.00     0.010 A 
ENDROOT
BRANCH   1   7
HETATM    7  C   UNK N   1      34.380  17.244   7.058  0.00  0.00     0.141 C 
BRANCH   7   8
HETATM    8  C   UNK N   1      34.548  17.982   8.372  0.00  0.00     0.219 C 
HETATM    9  O   UNK N   1      34.957  19.128   8.353  0.00  0.00    -0.273 OA
HETATM   10  N   UNK N   1      34.264  17.407   9.560  0.00  0.00    -0.370 N 
HETATM   11  H   UNK N   1      34.376  17.918  10.393  0.00  0.00     0.159 HD
HETATM   12  H   UNK N   1      33.944  16.477   9.592  0.00  0.00     0.159 HD
ENDBRANCH   7   8
ENDBRANCH   1   7
BRANCH   4  13
HETATM   13  O   UNK N   1      29.439  17.454   4.263  0.00  0.00    -0.356 OA
HETATM   14  C   UNK N   1      28.384  18.239   4.667  0.00  0.00     0.210 C 
ENDBRANCH   4  13
TORSDOF 3
ENDMDL
MODEL 3
REMARK VINA RESULT:      -4.8     15.454     16.658
REMARK  3 active torsions:
REMARK  status: ('A' for Active; 'I' for Inactive)
REMARK       I    between atoms: C_2  and  N_3 
REMARK    1  A    between atoms: C_2  and  C_4 
REMARK    2  A    between atoms: C_4  and  C_5 
REMARK    3  A    between atoms: C_8  and  O_9 
ROOT
HETATM    1  C   UNK N   1      35.346  12.685  17.082  0.00  0.00    -0.049 A 
HETATM    2  C   UNK N   1      35.449  11.288  17.101  0.00  0.00     0.010 A 
HETATM    3  C   UNK N   1      35.421  10.593  18.317  0.00  0.00     0.037 A 
HETATM    4  C   UNK N   1      35.289  11.295  19.530  0.00  0.00     0.068 A 
HETATM    5  C   UNK N   1      35.186  12.685  19.507  0.00  0.00     0.037 A 
HETATM    6  C   UNK N   1      35.215  13.372  18.295  0.00  0.00     0.010 A 
ENDROOT
BRANCH   1   7
HETATM    7  C   UNK N   1      35.388  13.400  15.751  0.00  0.00     0.141 C 
BRANCH   7   8
HETATM    8  C   UNK N   1      36.724  13.772  15.139  0.00  0.00     0.219 C 
HETATM    9  O   UNK N   1      37.409  14.614  15.690  0.00  0.00    -0.273 OA
HETATM   10  N   UNK N   1      37.177  13.202  14.001  0.00  0.00    -0.370 N 
HETATM   11  H   UNK N   1      38.054  13.460  13.636  0.00  0.00     0.159 HD
HETATM   12  H   UNK N   1      36.630  12.529  13.537  0.00  0.00     0.159 HD
ENDBRANCH   7   8
ENDBRANCH   1   7
BRANCH   4  13
HETATM   13  O   UNK N   1      35.260  10.664  20.727  0.00  0.00    -0.356 OA
HETATM   14  C   UNK N   1      34.150  10.014  21.214  0.00  0.00     0.210 C 
ENDBRANCH   4  13
TORSDOF 3
ENDMDL
MODEL 4
REMARK VINA RESULT:      -4.8     14.828     15.967
REMARK  3 active torsions:
REMARK  status: ('A' for Active; 'I' for Inactive)
REMARK       I    between atoms: C_2  and  N_3 
REMARK    1  A    between atoms: C_2  and  C_4 
REMARK    2  A    between atoms: C_4  and  C_5 
REMARK    3  A    between atoms: C_8  and  O_9 
ROOT
HETATM    1  C   UNK N   1      36.140  13.157  15.899  0.00  0.00    -0.049 A 
HETATM    2  C   UNK N   1      36.379  11.785  15.745  0.00  0.00     0.010 A 
HETATM    3  C   UNK N   1      35.972  10.881  16.735  0.00  0.00     0.037 A 
HETATM    4  C   UNK N   1      35.320  11.345  17.893  0.00  0.00     0.068 A 
HETATM    5  C   UNK N   1      35.084  12.711  18.042  0.00  0.00     0.037 A 
HETATM    6  C   UNK N   1      35.491  13.607  17.056  0.00  0.00     0.010 A 
ENDROOT
BRANCH   1   7
HETATM    7  C   UNK N   1      36.601  14.102  14.814  0.00  0.00     0.141 C 
BRANCH   7   8
HETATM    8  C   UNK N   1      36.159  13.875  13.381  0.00  0.00     0.219 C 
HETATM    9  O   UNK N   1      34.969  13.794  13.140  0.00  0.00    -0.273 OA
HETATM   10  N   UNK N   1      37.043  13.757  12.367  0.00  0.00    -0.370 N 
HETATM   11  H   UNK N   1      36.721  13.619  11.447  0.00  0.00     0.159 HD
HETATM   12  H   UNK N   1      38.008  13.808  12.548  0.00  0.00     0.159 HD
ENDBRANCH   7   8
ENDBRANCH   1   7
BRANCH   4  13
HETATM   13  O   UNK N   1      34.912  10.507  18.874  0.00  0.00    -0.356 OA
HETATM   14  C   UNK N   1      34.323   9.288  18.633  0.00  0.00     0.210 C 
ENDBRANCH   4  13
TORSDOF 3
ENDMDL
MODEL 5
REMARK VINA RESULT:      -4.6      8.959     10.415
REMARK  3 active torsions:
REMARK  status: ('A' for Active; 'I' for Inactive)
REMARK       I    between atoms: C_2  and  N_3 
REMARK    1  A    between atoms: C_2  and  C_4 
REMARK    2  A    between atoms: C_4  and  C_5 
REMARK    3  A    between atoms: C_8  and  O_9 
ROOT
HETATM    1  C   UNK N   1      27.122  19.905   4.486  0.00  0.00    -0.049 A 
HETATM    2  C   UNK N   1      27.794  18.687   4.322  0.00  0.00     0.010 A 
HETATM    3  C   UNK N   1      28.410  18.066   5.417  0.00  0.00     0.037 A 
HETATM    4  C   UNK N   1      28.357  18.663   6.691  0.00  0.00     0.068 A 
HETATM    5  C   UNK N   1      27.686  19.875   6.850  0.00  0.00     0.037 A 
HETATM    6  C   UNK N   1      27.076  20.489   5.758  0.00  0.00     0.010 A 
ENDROOT
BRANCH   1   7
HETATM    7  C   UNK N   1      26.477  20.548   3.280  0.00  0.00     0.141 C 
BRANCH   7   8
HETATM    8  C   UNK N   1      25.002  20.328   3.008  0.00  0.00     0.219 C 
HETATM    9  O   UNK N   1      24.485  20.903   2.069  0.00  0.00    -0.273 OA
HETATM   10  N   UNK N   1      24.243  19.519   3.778  0.00  0.00    -0.370 N 
HETATM   11  H   UNK N   1      23.290  19.391   3.568  0.00  0.00     0.159 HD
HETATM   12  H   UNK N   1      24.643  19.056   4.549  0.00  0.00     0.159 HD
ENDBRANCH   7   8
ENDBRANCH   1   7
BRANCH   4  13
HETATM   13  O   UNK N   1      28.939  18.099   7.775  0.00  0.00    -0.356 OA
HETATM   14  C   UNK N   1      28.628  18.446   9.069  0.00  0.00     0.210 C 
ENDBRANCH   4  13
TORSDOF 3
ENDMDL
MODEL 6
REMARK VINA RESULT:      -4.6     14.795     15.912
REMARK  3 active torsions:
REMARK  status: ('A' for Active; 'I' for Inactive)
REMARK       I    between atoms: C_2  and  N_3 
REMARK    1  A    between atoms: C_2  and  C_4 
REMARK    2  A    between atoms: C_4  and  C_5 
REMARK    3  A    between atoms: C_8  and  O_9 
ROOT
HETATM    1  C   UNK N   1      35.372  11.545  18.763  0.00  0.00    -0.049 A 
HETATM    2  C   UNK N   1      35.209  12.931  18.637  0.00  0.00     0.010 A 
HETATM    3  C   UNK N   1      34.967  13.504  17.381  0.00  0.00     0.037 A 
HETATM    4  C   UNK N   1      34.885  12.689  16.236  0.00  0.00     0.068 A 
HETATM    5  C   UNK N   1      35.047  11.311  16.366  0.00  0.00     0.037 A 
HETATM    6  C   UNK N   1      35.288  10.745  17.616  0.00  0.00     0.010 A 
ENDROOT
BRANCH   1   7
HETATM    7  C   UNK N   1      35.640  10.966  20.132  0.00  0.00     0.141 C 
BRANCH   7   8
HETATM    8  C   UNK N   1      34.514  10.306  20.904  0.00  0.00     0.219 C 
HETATM    9  O   UNK N   1      34.317   9.114  20.752  0.00  0.00    -0.273 OA
HETATM   10  N   UNK N   1      33.720  10.998  21.749  0.00  0.00    -0.370 N 
HETATM   11  H   UNK N   1      33.004  10.536  22.242  0.00  0.00     0.159 HD
HETATM   12  H   UNK N   1      33.859  11.964  21.874  0.00  0.00     0.159 HD
ENDBRANCH   7   8
ENDBRANCH   1   7
BRANCH   4  13
HETATM   13  O   UNK N   1      34.654  13.201  15.004  0.00  0.00    -0.356 OA
HETATM   14  C   UNK N   1      35.656  13.544  14.127  0.00  0.00     0.210 C 
ENDBRANCH   4  13
TORSDOF 3
ENDMDL
MODEL 7
REMARK VINA RESULT:      -4.4     12.253     12.948
REMARK  3 active torsions:
REMARK  status: ('A' for Active; 'I' for Inactive)
REMARK       I    between atoms: C_2  and  N_3 
REMARK    1  A    between atoms: C_2  and  C_4 
REMARK    2  A    between atoms: C_4  and  C_5 
REMARK    3  A    between atoms: C_8  and  O_9 
ROOT
HETATM    1  C   UNK N   1      33.786  17.187   5.979  0.00  0.00    -0.049 A 
HETATM    2  C   UNK N   1      34.358  15.914   5.855  0.00  0.00     0.010 A 
HETATM    3  C   UNK N   1      34.189  15.174   4.677  0.00  0.00     0.037 A 
HETATM    4  C   UNK N   1      33.441  15.705   3.609  0.00  0.00     0.068 A 
HETATM    5  C   UNK N   1      32.874  16.972   3.736  0.00  0.00     0.037 A 
HETATM    6  C   UNK N   1      33.044  17.705   4.909  0.00  0.00     0.010 A 
ENDROOT
BRANCH   1   7
HETATM    7  C   UNK N   1      33.983  17.951   7.268  0.00  0.00     0.141 C 
BRANCH   7   8
HETATM    8  C   UNK N   1      33.339  17.450   8.546  0.00  0.00     0.219 C 
HETATM    9  O   UNK N   1      32.130  17.318   8.581  0.00  0.00    -0.273 OA
HETATM   10  N   UNK N   1      34.064  17.149   9.645  0.00  0.00    -0.370 N 
HETATM   11  H   UNK N   1      33.614  16.817  10.455  0.00  0.00     0.159 HD
HETATM   12  H   UNK N   1      35.041  17.262   9.636  0.00  0.00     0.159 HD
ENDBRANCH   7   8
ENDBRANCH   1   7
BRANCH   4  13
HETATM   13  O   UNK N   1      33.252  15.024   2.455  0.00  0.00    -0.356 OA
HETATM   14  C   UNK N   1      33.563  13.693   2.301  0.00  0.00     0.210 C 
ENDBRANCH   4  13
TORSDOF 3
ENDMDL
MODEL 8
REMARK VINA RESULT:      -4.3     12.658     13.340
REMARK  3 active torsions:
REMARK  status: ('A' for Active; 'I' for Inactive)
REMARK       I    between atoms: C_2  and  N_3 
REMARK    1  A    between atoms: C_2  and  C_4 
REMARK    2  A    between atoms: C_4  and  C_5 
REMARK    3  A    between atoms: C_8  and  O_9 
ROOT
HETATM    1  C   UNK N   1      34.902  14.449  11.239  0.00  0.00    -0.049 A 
HETATM    2  C   UNK N   1      35.662  15.576  11.580  0.00  0.00     0.010 A 
HETATM    3  C   UNK N   1      35.563  16.751  10.823  0.00  0.00     0.037 A 
HETATM    4  C   UNK N   1      34.697  16.809   9.715  0.00  0.00     0.068 A 
HETATM    5  C   UNK N   1      33.941  15.686   9.380  0.00  0.00     0.037 A 
HETATM    6  C   UNK N   1      34.044  14.519  10.134  0.00  0.00     0.010 A 
ENDROOT
BRANCH   1   7
HETATM    7  C   UNK N   1      35.043  13.197  12.073  0.00  0.00     0.141 C 
BRANCH   7   8
HETATM    8  C   UNK N   1      35.599  13.290  13.481  0.00  0.00     0.219 C 
HETATM    9  O   UNK N   1      34.827  13.449  14.408  0.00  0.00    -0.273 OA
HETATM   10  N   UNK N   1      36.922  13.205  13.737  0.00  0.00    -0.370 N 
HETATM   11  H   UNK N   1      37.249  13.260  14.664  0.00  0.00     0.159 HD
HETATM   12  H   UNK N   1      37.560  13.089  12.997  0.00  0.00     0.159 HD
ENDBRANCH   7   8
ENDBRANCH   1   7
BRANCH   4  13
HETATM   13  O   UNK N   1      34.571  17.923   8.957  0.00  0.00    -0.356 OA
HETATM   14  C   UNK N   1      33.543  18.121   8.065  0.00  0.00     0.210 C 
ENDBRANCH   4  13
TORSDOF 3
ENDMDL
MODEL 9
REMARK VINA RESULT:      -4.2      2.977      5.574
REMARK  3 active torsions:
REMARK  status: ('A' for Active; 'I' for Inactive)
REMARK       I    between atoms: C_2  and  N_3 
REMARK    1  A    between atoms: C_2  and  C_4 
REMARK    2  A    between atoms: C_4  and  C_5 
REMARK    3  A    between atoms: C_8  and  O_9 
ROOT
HETATM    1  C   UNK N   1      20.975  15.480   7.842  0.00  0.00    -0.049 A 
HETATM    2  C   UNK N   1      20.431  15.053   9.060  0.00  0.00     0.010 A 
HETATM    3  C   UNK N   1      21.040  14.018   9.782  0.00  0.00     0.037 A 
HETATM    4  C   UNK N   1      22.204  13.399   9.288  0.00  0.00     0.068 A 
HETATM    5  C   UNK N   1      22.742  13.829   8.076  0.00  0.00     0.037 A 
HETATM    6  C   UNK N   1      22.134  14.858   7.360  0.00  0.00     0.010 A 
ENDROOT
BRANCH   1   7
HETATM    7  C   UNK N   1      20.285  16.594   7.088  0.00  0.00     0.141 C 
BRANCH   7   8
HETATM    8  C   UNK N   1      20.997  17.917   6.883  0.00  0.00     0.219 C 
HETATM    9  O   UNK N   1      20.734  18.846   7.624  0.00  0.00    -0.273 OA
HETATM   10  N   UNK N   1      21.910  18.098   5.905  0.00  0.00    -0.370 N 
HETATM   11  H   UNK N   1      22.360  18.967   5.806  0.00  0.00     0.159 HD
HETATM   12  H   UNK N   1      22.125  17.360   5.290  0.00  0.00     0.159 HD
ENDBRANCH   7   8
ENDBRANCH   1   7
BRANCH   4  13
HETATM   13  O   UNK N   1      22.823  12.395   9.952  0.00  0.00    -0.356 OA
HETATM   14  C   UNK N   1      22.721  12.210  11.311  0.00  0.00     0.210 C 
ENDBRANCH   4  13
TORSDOF 3
ENDMDL
