MODEL 1
REMARK VINA RESULT:      -5.7      0.000      0.000
REMARK  3 active torsions:
REMARK  status: ('A' for Active; 'I' for Inactive)
REMARK    1  A    between atoms: C_4  and  C_5 
REMARK    2  A    between atoms: C_5  and  N_6 
REMARK    3  A    between atoms: N_6  and  C_7 
ROOT
HETATM    1  C   UNK N   1      21.594  13.544   9.746  0.00  0.00     0.133 A 
HETATM    2  C   UNK N   1      22.801  13.079  10.227  0.00  0.00     0.122 A 
HETATM    3  N   UNK N   1      24.047  13.335   9.801  0.00  0.00    -0.346 N 
ATOM      4  HN  UNK N   1      24.334  13.931   9.025  1.00  0.00     0.167 HD
HETATM    5  C   UNK N   1      22.842  12.244  11.275  0.00  0.00     0.138 A 
HETATM    6  N   UNK N   1      24.110  11.928  11.566  0.00  0.00    -0.337 N 
HETATM    7  C   UNK N   1      24.837  12.613  10.641  0.00  0.00     0.182 A 
HETATM    8  N   UNK N   1      21.721  11.818  11.907  0.00  0.00    -0.337 N 
ATOM      9  HN  UNK N   1      21.776  11.182  12.702  1.00  0.00     0.168 HD
HETATM   10  C   UNK N   1      20.512  12.268  11.443  0.00  0.00     0.183 A 
HETATM   11  N   UNK N   1      20.450  13.125  10.369  0.00  0.00    -0.337 N 
ATOM     12  HN  UNK N   1      19.543  13.452  10.035  1.00  0.00     0.168 HD
HETATM   13  H   UNK N   1      24.439  11.337  12.281  0.00  0.00     0.168 HD
ENDROOT
BRANCH   1  14
HETATM   14  N   UNK N   1      21.571  14.422   8.642  0.00  0.00    -0.371 N 
HETATM   15  H   UNK N   1      22.408  14.561   8.145  0.00  0.00     0.161 HD
BRANCH  14  16
HETATM   16  C   UNK N   1      20.399  15.125   8.201  0.00  0.00     0.148 C 
BRANCH  16  17
HETATM   17  C   UNK N   1      20.394  16.568   8.666  0.00  0.00    -0.005 C 
HETATM   18  C   UNK N   1      19.341  17.325   9.044  0.00  0.00    -0.090 C 
HETATM   19  C   UNK N   1      19.590  18.730   9.464  0.00  0.00     0.042 C 
HETATM   20  C   UNK N   1      17.926  16.836   9.067  0.00  0.00     0.042 C 
ENDBRANCH  16  17
ENDBRANCH  14  16
ENDBRANCH   1  14
TORSDOF 3
ENDMDL
MODEL 2
REMARK VINA RESULT:      -5.4      7.459      9.802
REMARK  3 active torsions:
REMARK  status: ('A' for Active; 'I' for Inactive)
REMARK    1  A    between atoms: C_4  and  C_5 
REMARK    2  A    between atoms: C_5  and  N_6 
REMARK    3  A    between atoms: N_6  and  C_7 
ROOT
HETATM    1  C   UNK N   1      22.270  19.303   3.364  0.00  0.00     0.133 A 
HETATM    2  C   UNK N   1      21.193  18.445   3.446  0.00  0.00     0.122 A 
HETATM    3  N   UNK N   1      21.059  17.305   4.140  0.00  0.00    -0.346 N 
ATOM      4  HN  UNK N   1      21.745  16.856   4.746  1.00  0.00     0.167 HD
HETATM    5  C   UNK N   1      20.065  18.700   2.768  0.00  0.00     0.138 A 
HETATM    6  N   UNK N   1      19.160  17.739   2.996  0.00  0.00    -0.337 N 
HETATM    7  C   UNK N   1      19.798  16.887   3.847  0.00  0.00     0.182 A 
HETATM    8  N   UNK N   1      19.923  19.793   1.981  0.00  0.00    -0.337 N 
ATOM      9  HN  UNK N   1      19.054  19.967   1.474  1.00  0.00     0.168 HD
HETATM   10  C   UNK N   1      20.981  20.659   1.886  0.00  0.00     0.183 A 
HETATM   11  N   UNK N   1      22.148  20.415   2.574  0.00  0.00    -0.337 N 
ATOM     12  HN  UNK N   1      22.928  21.067   2.495  1.00  0.00     0.168 HD
HETATM   13  H   UNK N   1      18.249  17.665   2.633  0.00  0.00     0.168 HD
ENDROOT
BRANCH   1  14
HETATM   14  N   UNK N   1      23.449  19.020   4.084  0.00  0.00    -0.371 N 
HETATM   15  H   UNK N   1      23.365  18.524   4.930  0.00  0.00     0.161 HD
BRANCH  14  16
HETATM   16  C   UNK N   1      24.764  19.410   3.658  0.00  0.00     0.148 C 
BRANCH  16  17
HETATM   17  C   UNK N   1      25.434  20.332   4.658  0.00  0.00    -0.005 C 
HETATM   18  C   UNK N   1      26.748  20.435   4.956  0.00  0.00    -0.090 C 
HETATM   19  C   UNK N   1      27.168  21.424   5.984  0.00  0.00     0.042 C 
HETATM   20  C   UNK N   1      27.817  19.609   4.312  0.00  0.00     0.042 C 
ENDBRANCH  16  17
ENDBRANCH  14  16
ENDBRANCH   1  14
TORSDOF 3
ENDMDL
MODEL 3
REMARK VINA RESULT:      -5.4     11.447     14.336
REMARK  3 active torsions:
REMARK  status: ('A' for Active; 'I' for Inactive)
REMARK    1  A    between atoms: C_4  and  C_5 
REMARK    2  A    between atoms: C_5  and  N_6 
REMARK    3  A    between atoms: N_6  and  C_7 
ROOT
HETATM    1  C   UNK N   1      34.589  14.511  11.213  0.00  0.00     0.133 A 
HETATM    2  C   UNK N   1      33.750  14.803  10.157  0.00  0.00     0.122 A 
HETATM    3  N   UNK N   1      32.827  14.035   9.561  0.00  0.00    -0.346 N 
ATOM      4  HN  UNK N   1      32.571  13.073   9.785  1.00  0.00     0.167 HD
HETATM    5  C   UNK N   1      33.788  16.007   9.569  0.00  0.00     0.138 A 
HETATM    6  N   UNK N   1      32.893  16.065   8.575  0.00  0.00    -0.337 N 
HETATM    7  C   UNK N   1      32.311  14.834   8.588  0.00  0.00     0.182 A 
HETATM    8  N   UNK N   1      34.634  16.985   9.973  0.00  0.00    -0.337 N 
ATOM      9  HN  UNK N   1      34.645  17.895   9.511  1.00  0.00     0.168 HD
HETATM   10  C   UNK N   1      35.475  16.715  11.021  0.00  0.00     0.183 A 
HETATM   11  N   UNK N   1      35.452  15.485  11.637  0.00  0.00    -0.337 N 
ATOM     12  HN  UNK N   1      36.084  15.297  12.415  1.00  0.00     0.168 HD
HETATM   13  H   UNK N   1      32.701  16.821   7.975  0.00  0.00     0.168 HD
ENDROOT
BRANCH   1  14
HETATM   14  N   UNK N   1      34.536  13.238  11.819  0.00  0.00    -0.371 N 
HETATM   15  H   UNK N   1      33.773  12.656  11.604  0.00  0.00     0.161 HD
BRANCH  14  16
HETATM   16  C   UNK N   1      35.529  12.741  12.730  0.00  0.00     0.148 C 
BRANCH  16  17
HETATM   17  C   UNK N   1      35.016  12.690  14.156  0.00  0.00    -0.005 C 
HETATM   18  C   UNK N   1      35.560  13.238  15.264  0.00  0.00    -0.090 C 
HETATM   19  C   UNK N   1      34.865  13.050  16.565  0.00  0.00     0.042 C 
HETATM   20  C   UNK N   1      36.832  14.028  15.267  0.00  0.00     0.042 C 
ENDBRANCH  16  17
ENDBRANCH  14  16
ENDBRANCH   1  14
TORSDOF 3
ENDMDL
MODEL 4
REMARK VINA RESULT:      -5.3      8.168      9.216
REMARK  3 active torsions:
REMARK  status: ('A' for Active; 'I' for Inactive)
REMARK    1  A    between atoms: C_4  and  C_5 
REMARK    2  A    between atoms: C_5  and  N_6 
REMARK    3  A    between atoms: N_6  and  C_7 
ROOT
HETATM    1  C   UNK N   1      28.838  17.236   7.181  0.00  0.00     0.133 A 
HETATM    2  C   UNK N   1      30.170  17.298   7.537  0.00  0.00     0.122 A 
HETATM    3  N   UNK N   1      31.265  17.199   6.768  0.00  0.00    -0.346 N 
ATOM      4  HN  UNK N   1      31.312  17.057   5.760  1.00  0.00     0.167 HD
HETATM    5  C   UNK N   1      30.527  17.481   8.816  0.00  0.00     0.138 A 
HETATM    6  N   UNK N   1      31.862  17.508   8.925  0.00  0.00    -0.337 N 
HETATM    7  C   UNK N   1      32.296  17.332   7.646  0.00  0.00     0.182 A 
HETATM    8  N   UNK N   1      29.618  17.613   9.811  0.00  0.00    -0.337 N 
ATOM      9  HN  UNK N   1      29.913  17.752  10.778  1.00  0.00     0.168 HD
HETATM   10  C   UNK N   1      28.289  17.555   9.479  0.00  0.00     0.183 A 
HETATM   11  N   UNK N   1      27.902  17.367   8.172  0.00  0.00    -0.337 N 
ATOM     12  HN  UNK N   1      26.910  17.326   7.939  1.00  0.00     0.168 HD
HETATM   13  H   UNK N   1      32.402  17.627   9.738  0.00  0.00     0.168 HD
ENDROOT
BRANCH   1  14
HETATM   14  N   UNK N   1      28.481  17.042   5.831  0.00  0.00    -0.371 N 
HETATM   15  H   UNK N   1      28.361  16.119   5.513  0.00  0.00     0.161 HD
BRANCH  14  16
HETATM   16  C   UNK N   1      28.281  18.111   4.892  0.00  0.00     0.148 C 
BRANCH  16  17
HETATM   17  C   UNK N   1      27.972  19.424   5.584  0.00  0.00    -0.005 C 
HETATM   18  C   UNK N   1      27.213  20.449   5.139  0.00  0.00    -0.090 C 
HETATM   19  C   UNK N   1      27.056  21.647   6.008  0.00  0.00     0.042 C 
HETATM   20  C   UNK N   1      26.514  20.458   3.816  0.00  0.00     0.042 C 
ENDBRANCH  16  17
ENDBRANCH  14  16
ENDBRANCH   1  14
TORSDOF 3
ENDMDL
MODEL 5
REMARK VINA RESULT:      -5.3     13.446     15.761
REMARK  3 active torsions:
REMARK  status: ('A' for Active; 'I' for Inactive)
REMARK    1  A    between atoms: C_4  and  C_5 
REMARK    2  A    between atoms: C_5  and  N_6 
REMARK    3  A    between atoms: N_6  and  C_7 
ROOT
HETATM    1  C   UNK N   1      36.304  14.059  12.288  0.00  0.00     0.133 A 
HETATM    2  C   UNK N   1      35.684  14.731  11.254  0.00  0.00     0.122 A 
HETATM    3  N   UNK N   1      34.575  15.484  11.268  0.00  0.00    -0.346 N 
ATOM      4  HN  UNK N   1      33.974  15.702  12.063  1.00  0.00     0.167 HD
HETATM    5  C   UNK N   1      36.189  14.687  10.013  0.00  0.00     0.138 A 
HETATM    6  N   UNK N   1      35.428  15.407   9.178  0.00  0.00    -0.337 N 
HETATM    7  C   UNK N   1      34.437  15.891   9.977  0.00  0.00     0.182 A 
HETATM    8  N   UNK N   1      37.313  13.994   9.711  0.00  0.00    -0.337 N 
ATOM      9  HN  UNK N   1      37.678  13.974   8.758  1.00  0.00     0.168 HD
HETATM   10  C   UNK N   1      37.943  13.319  10.723  0.00  0.00     0.183 A 
HETATM   11  N   UNK N   1      37.441  13.352  12.004  0.00  0.00    -0.337 N 
ATOM     12  HN  UNK N   1      37.920  12.845  12.749  1.00  0.00     0.168 HD
HETATM   13  H   UNK N   1      35.556  15.553   8.214  0.00  0.00     0.168 HD
ENDROOT
BRANCH   1  14
HETATM   14  N   UNK N   1      35.759  14.116  13.587  0.00  0.00    -0.371 N 
HETATM   15  H   UNK N   1      34.794  14.287  13.677  0.00  0.00     0.161 HD
BRANCH  14  16
HETATM   16  C   UNK N   1      36.527  13.942  14.788  0.00  0.00     0.148 C 
BRANCH  16  17
HETATM   17  C   UNK N   1      36.159  12.664  15.517  0.00  0.00    -0.005 C 
HETATM   18  C   UNK N   1      35.569  12.526  16.724  0.00  0.00    -0.090 C 
HETATM   19  C   UNK N   1      35.306  11.153  17.234  0.00  0.00     0.042 C 
HETATM   20  C   UNK N   1      35.160  13.676  17.590  0.00  0.00     0.042 C 
ENDBRANCH  16  17
ENDBRANCH  14  16
ENDBRANCH   1  14
TORSDOF 3
ENDMDL
MODEL 6
REMARK VINA RESULT:      -5.2      8.720     11.259
REMARK  3 active torsions:
REMARK  status: ('A' for Active; 'I' for Inactive)
REMARK    1  A    between atoms: C_4  and  C_5 
REMARK    2  A    between atoms: C_5  and  N_6 
REMARK    3  A    between atoms: N_6  and  C_7 
ROOT
HETATM    1  C   UNK N   1      30.716  17.352   8.183  0.00  0.00     0.133 A 
HETATM    2  C   UNK N   1      29.494  17.173   7.568  0.00  0.00     0.122 A 
HETATM    3  N   UNK N   1      29.189  16.491   6.455  0.00  0.00    -0.346 N 
ATOM      4  HN  UNK N   1      29.820  15.969   5.846  1.00  0.00     0.167 HD
HETATM    5  C   UNK N   1      28.385  17.723   8.083  0.00  0.00     0.138 A 
HETATM    6  N   UNK N   1      27.323  17.419   7.325  0.00  0.00    -0.337 N 
HETATM    7  C   UNK N   1      27.845  16.657   6.324  0.00  0.00     0.182 A 
HETATM    8  N   UNK N   1      28.402  18.469   9.213  0.00  0.00    -0.337 N 
ATOM      9  HN  UNK N   1      27.545  18.878   9.587  1.00  0.00     0.168 HD
HETATM   10  C   UNK N   1      29.606  18.659   9.840  0.00  0.00     0.183 A 
HETATM   11  N   UNK N   1      30.756  18.103   9.327  0.00  0.00    -0.337 N 
ATOM     12  HN  UNK N   1      31.646  18.252   9.803  1.00  0.00     0.168 HD
HETATM   13  H   UNK N   1      26.386  17.684   7.460  0.00  0.00     0.168 HD
ENDROOT
BRANCH   1  14
HETATM   14  N   UNK N   1      31.873  16.766   7.628  0.00  0.00    -0.371 N 
HETATM   15  H   UNK N   1      31.998  15.796   7.738  0.00  0.00     0.161 HD
BRANCH  14  16
HETATM   16  C   UNK N   1      32.879  17.499   6.912  0.00  0.00     0.148 C 
BRANCH  16  17
HETATM   17  C   UNK N   1      32.684  17.413   5.411  0.00  0.00    -0.005 C 
HETATM   18  C   UNK N   1      33.238  16.541   4.541  0.00  0.00    -0.090 C 
HETATM   19  C   UNK N   1      32.889  16.656   3.099  0.00  0.00     0.042 C 
HETATM   20  C   UNK N   1      34.190  15.456   4.938  0.00  0.00     0.042 C 
ENDBRANCH  16  17
ENDBRANCH  14  16
ENDBRANCH   1  14
TORSDOF 3
ENDMDL
MODEL 7
REMARK VINA RESULT:      -5.2     22.324     23.343
REMARK  3 active torsions:
REMARK  status: ('A' for Active; 'I' for Inactive)
REMARK    1  A    between atoms: C_4  and  C_5 
REMARK    2  A    between atoms: C_5  and  N_6 
REMARK    3  A    between atoms: N_6  and  C_7 
ROOT
HETATM    1  C   UNK N   1      41.227  23.007   1.690  0.00  0.00     0.133 A 
HETATM    2  C   UNK N   1      42.208  22.634   2.586  0.00  0.00     0.122 A 
HETATM    3  N   UNK N   1      43.077  23.395   3.266  0.00  0.00    -0.346 N 
ATOM      4  HN  UNK N   1      43.173  24.410   3.245  1.00  0.00     0.167 HD
HETATM    5  C   UNK N   1      42.400  21.342   2.888  0.00  0.00     0.138 A 
HETATM    6  N   UNK N   1      43.398  21.217   3.772  0.00  0.00    -0.337 N 
HETATM    7  C   UNK N   1      43.801  22.500   3.992  0.00  0.00     0.182 A 
HETATM    8  N   UNK N   1      41.657  20.351   2.341  0.00  0.00    -0.337 N 
ATOM      9  HN  UNK N   1      41.821  19.374   2.586  1.00  0.00     0.168 HD
HETATM   10  C   UNK N   1      40.677  20.700   1.449  0.00  0.00     0.183 A 
HETATM   11  N   UNK N   1      40.464  22.021   1.125  0.00  0.00    -0.337 N 
ATOM     12  HN  UNK N   1      39.731  22.267   0.460  1.00  0.00     0.168 HD
HETATM   13  H   UNK N   1      43.756  20.392   4.171  0.00  0.00     0.168 HD
ENDROOT
BRANCH   1  14
HETATM   14  N   UNK N   1      41.038  24.371   1.384  0.00  0.00    -0.371 N 
HETATM   15  H   UNK N   1      40.738  24.969   2.105  0.00  0.00     0.161 HD
BRANCH  14  16
HETATM   16  C   UNK N   1      41.258  24.940   0.083  0.00  0.00     0.148 C 
BRANCH  16  17
HETATM   17  C   UNK N   1      40.053  25.719  -0.406  0.00  0.00    -0.005 C 
HETATM   18  C   UNK N   1      38.984  25.267  -1.096  0.00  0.00    -0.090 C 
HETATM   19  C   UNK N   1      37.916  26.233  -1.467  0.00  0.00     0.042 C 
HETATM   20  C   UNK N   1      38.803  23.841  -1.514  0.00  0.00     0.042 C 
ENDBRANCH  16  17
ENDBRANCH  14  16
ENDBRANCH   1  14
TORSDOF 3
ENDMDL
MODEL 8
REMARK VINA RESULT:      -5.2      9.396     11.012
REMARK  3 active torsions:
REMARK  status: ('A' for Active; 'I' for Inactive)
REMARK    1  A    between atoms: C_4  and  C_5 
REMARK    2  A    between atoms: C_5  and  N_6 
REMARK    3  A    between atoms: N_6  and  C_7 
ROOT
HETATM    1  C   UNK N   1      31.009  17.367   6.668  0.00  0.00     0.133 A 
HETATM    2  C   UNK N   1      32.201  17.405   7.362  0.00  0.00     0.122 A 
HETATM    3  N   UNK N   1      32.419  17.419   8.685  0.00  0.00    -0.346 N 
ATOM      4  HN  UNK N   1      31.728  17.404   9.435  1.00  0.00     0.167 HD
HETATM    5  C   UNK N   1      33.371  17.434   6.708  0.00  0.00     0.138 A 
HETATM    6  N   UNK N   1      34.387  17.467   7.579  0.00  0.00    -0.337 N 
HETATM    7  C   UNK N   1      33.774  17.458   8.795  0.00  0.00     0.182 A 
HETATM    8  N   UNK N   1      33.446  17.428   5.356  0.00  0.00    -0.337 N 
ATOM      9  HN  UNK N   1      34.348  17.450   4.879  1.00  0.00     0.168 HD
HETATM   10  C   UNK N   1      32.274  17.391   4.647  0.00  0.00     0.183 A 
HETATM   11  N   UNK N   1      31.062  17.361   5.300  0.00  0.00    -0.337 N 
ATOM     12  HN  UNK N   1      30.197  17.333   4.760  1.00  0.00     0.168 HD
HETATM   13  H   UNK N   1      35.351  17.493   7.386  0.00  0.00     0.168 HD
ENDROOT
BRANCH   1  14
HETATM   14  N   UNK N   1      29.788  17.337   7.372  0.00  0.00    -0.371 N 
HETATM   15  H   UNK N   1      29.818  17.181   8.343  0.00  0.00     0.161 HD
BRANCH  14  16
HETATM   16  C   UNK N   1      28.502  17.521   6.758  0.00  0.00     0.148 C 
BRANCH  16  17
HETATM   17  C   UNK N   1      27.986  18.936   6.935  0.00  0.00    -0.005 C 
HETATM   18  C   UNK N   1      27.740  19.864   5.985  0.00  0.00    -0.090 C 
HETATM   19  C   UNK N   1      27.232  21.197   6.408  0.00  0.00     0.042 C 
HETATM   20  C   UNK N   1      27.949  19.636   4.520  0.00  0.00     0.042 C 
ENDBRANCH  16  17
ENDBRANCH  14  16
ENDBRANCH   1  14
TORSDOF 3
ENDMDL
MODEL 9
REMARK VINA RESULT:      -5.1      5.696      8.493
REMARK  3 active torsions:
REMARK  status: ('A' for Active; 'I' for Inactive)
REMARK    1  A    between atoms: C_4  and  C_5 
REMARK    2  A    between atoms: C_5  and  N_6 
REMARK    3  A    between atoms: N_6  and  C_7 
ROOT
HETATM    1  C   UNK N   1      21.236  18.489   3.863  0.00  0.00     0.133 A 
HETATM    2  C   UNK N   1      20.680  17.676   2.897  0.00  0.00     0.122 A 
HETATM    3  N   UNK N   1      20.573  16.340   2.863  0.00  0.00    -0.346 N 
ATOM      4  HN  UNK N   1      20.889  15.667   3.561  1.00  0.00     0.167 HD
HETATM    5  C   UNK N   1      20.141  18.204   1.788  0.00  0.00     0.138 A 
HETATM    6  N   UNK N   1      19.666  17.234   0.997  0.00  0.00    -0.337 N 
HETATM    7  C   UNK N   1      19.944  16.090   1.682  0.00  0.00     0.182 A 
HETATM    8  N   UNK N   1      20.113  19.539   1.561  0.00  0.00    -0.337 N 
ATOM      9  HN  UNK N   1      19.698  19.919   0.710  1.00  0.00     0.168 HD
HETATM   10  C   UNK N   1      20.660  20.364   2.509  0.00  0.00     0.183 A 
HETATM   11  N   UNK N   1      21.218  19.842   3.653  0.00  0.00    -0.337 N 
ATOM     12  HN  UNK N   1      21.621  20.467   4.351  1.00  0.00     0.168 HD
HETATM   13  H   UNK N   1      19.221  17.326   0.125  0.00  0.00     0.168 HD
ENDROOT
BRANCH   1  14
HETATM   14  N   UNK N   1      21.798  17.917   5.023  0.00  0.00    -0.371 N 
HETATM   15  H   UNK N   1      22.569  17.315   4.914  0.00  0.00     0.161 HD
BRANCH  14  16
HETATM   16  C   UNK N   1      21.314  18.158   6.354  0.00  0.00     0.148 C 
BRANCH  16  17
HETATM   17  C   UNK N   1      21.064  16.867   7.109  0.00  0.00    -0.005 C 
HETATM   18  C   UNK N   1      20.313  16.674   8.215  0.00  0.00    -0.090 C 
HETATM   19  C   UNK N   1      20.219  15.301   8.780  0.00  0.00     0.042 C 
HETATM   20  C   UNK N   1      19.562  17.763   8.916  0.00  0.00     0.042 C 
ENDBRANCH  16  17
ENDBRANCH  14  16
ENDBRANCH   1  14
TORSDOF 3
ENDMDL
