MODEL 1
REMARK VINA RESULT:      -8.4      0.000      0.000
REMARK  5 active torsions:
REMARK  status: ('A' for Active; 'I' for Inactive)
REMARK    1  A    between atoms: C_3  and  O_4 
REMARK    2  A    between atoms: C_8  and  C_7 
REMARK    3  A    between atoms: C_9  and  C_8 
REMARK    4  A    between atoms: N_10  and  C_9 
REMARK       I    between atoms: C_11  and  N_10 
REMARK       I    between atoms: C_16  and  N_17 
REMARK    5  A    between atoms: C_25  and  C_24 
ROOT
HETATM    1  N   UNK N   1      36.316  12.555  14.096  0.00  0.00    -0.225 N 
HETATM    2  C   UNK N   1      36.166  13.074  12.794  0.00  0.00     0.707 A 
HETATM    3  N   UNK N   1      34.922  13.351  12.301  0.00  0.00    -0.019 N 
ATOM      4  HN  UNK N   1      34.080  13.102  12.819  1.00  0.00     0.203 HD
HETATM    5  N   UNK N   1      37.288  13.367  12.063  0.00  0.00    -0.020 N 
ATOM      6  HN  UNK N   1      38.211  13.154  12.441  1.00  0.00     0.203 HD
HETATM    7  C   UNK N   1      37.175  13.943  10.838  0.00  0.00     0.727 A 
HETATM    8  N   UNK N   1      38.324  14.320  10.114  0.00  0.00    -0.232 N 
HETATM    9  N   UNK N   1      35.945  14.262  10.408  0.00  0.00     0.092 N 
HETATM   10  N   UNK N   1      35.611  15.035   9.398  0.00  0.00    -0.246 N 
ATOM     11  HN  UNK N   1      36.222  15.400   8.668  1.00  0.00     0.190 HD
HETATM   12  C   UNK N   1      34.853  13.968  11.101  0.00  0.00     0.735 A 
HETATM   13  N   UNK N   1      33.766  14.552  10.590  0.00  0.00    -0.170 N 
ATOM     14  HN  UNK N   1      32.799  14.497  10.909  1.00  0.00     0.186 HD
HETATM   15  C   UNK N   1      34.283  15.238   9.537  0.00  0.00     0.171 A 
HETATM   16  H   UNK N   1      37.086  12.842  14.637  0.00  0.00     0.177 HD
HETATM   17  H   UNK N   1      38.343  15.126   9.548  0.00  0.00     0.174 HD
HETATM   18  H   UNK N   1      39.133  13.761  10.174  0.00  0.00     0.174 HD
ENDROOT
BRANCH   1  19
HETATM   19  C   UNK N   1      35.380  11.618  14.657  0.00  0.00     0.142 C 
BRANCH  19  20
HETATM   20  C   UNK N   1      36.002  10.910  15.878  0.00  0.00     0.058 C 
BRANCH  20  21
HETATM   21  C   UNK N   1      35.706  11.596  17.188  0.00  0.00    -0.057 A 
HETATM   22  C   UNK N   1      35.703  10.867  18.381  0.00  0.00     0.010 A 
HETATM   23  C   UNK N   1      35.361  11.498  19.583  0.00  0.00     0.037 A 
HETATM   24  C   UNK N   1      35.013  12.855  19.593  0.00  0.00     0.065 A 
HETATM   25  C   UNK N   1      35.031  13.587  18.406  0.00  0.00     0.037 A 
HETATM   26  C   UNK N   1      35.387  12.961  17.212  0.00  0.00     0.010 A 
BRANCH  24  27
HETATM   27  O   UNK N   1      34.665  13.454  20.742  0.00  0.00    -0.361 OA
HETATM   28  H   UNK N   1      34.931  13.136  21.582  0.00  0.00     0.217 HD
ENDBRANCH  24  27
ENDBRANCH  20  21
ENDBRANCH  19  20
ENDBRANCH   1  19
BRANCH  15  29
HETATM   29  C   UNK N   1      33.678  16.474   9.080  0.00  0.00     0.120 A 
HETATM   30  C   UNK N   1      34.389  17.555   8.613  0.00  0.00     0.043 A 
HETATM   31  C   UNK N   1      33.466  18.340   7.952  0.00  0.00     0.027 A 
HETATM   32  C   UNK N   1      32.254  17.677   8.043  0.00  0.00     0.142 A 
HETATM   33  O   UNK N   1      32.428  16.562   8.710  0.00  0.00    -0.319 OA
ENDBRANCH  15  29
TORSDOF 5
ENDMDL
MODEL 2
REMARK VINA RESULT:      -8.2      2.441      3.777
REMARK  5 active torsions:
REMARK  status: ('A' for Active; 'I' for Inactive)
REMARK    1  A    between atoms: C_3  and  O_4 
REMARK    2  A    between atoms: C_8  and  C_7 
REMARK    3  A    between atoms: C_9  and  C_8 
REMARK    4  A    between atoms: N_10  and  C_9 
REMARK       I    between atoms: C_11  and  N_10 
REMARK       I    between atoms: C_16  and  N_17 
REMARK    5  A    between atoms: C_25  and  C_24 
ROOT
HETATM    1  N   UNK N   1      35.496  15.190  12.045  0.00  0.00    -0.225 N 
HETATM    2  C   UNK N   1      34.777  15.709  10.950  0.00  0.00     0.707 A 
HETATM    3  N   UNK N   1      33.568  15.176  10.603  0.00  0.00    -0.019 N 
ATOM      4  HN  UNK N   1      33.208  14.338  11.061  1.00  0.00     0.203 HD
HETATM    5  N   UNK N   1      35.271  16.804  10.289  0.00  0.00    -0.020 N 
ATOM      6  HN  UNK N   1      36.176  17.192  10.556  1.00  0.00     0.203 HD
HETATM    7  C   UNK N   1      34.561  17.375   9.282  0.00  0.00     0.727 A 
HETATM    8  N   UNK N   1      35.024  18.546   8.651  0.00  0.00    -0.232 N 
HETATM    9  N   UNK N   1      33.349  16.869   9.007  0.00  0.00     0.092 N 
HETATM   10  N   UNK N   1      32.396  17.394   8.270  0.00  0.00    -0.246 N 
ATOM     11  HN  UNK N   1      32.465  18.201   7.651  1.00  0.00     0.190 HD
HETATM   12  C   UNK N   1      32.869  15.799   9.630  0.00  0.00     0.735 A 
HETATM   13  N   UNK N   1      31.580  15.596   9.347  0.00  0.00    -0.170 N 
ATOM     14  HN  UNK N   1      30.961  14.854   9.673  1.00  0.00     0.186 HD
HETATM   15  C   UNK N   1      31.306  16.633   8.512  0.00  0.00     0.171 A 
HETATM   16  H   UNK N   1      36.006  15.808  12.616  0.00  0.00     0.177 HD
HETATM   17  H   UNK N   1      34.409  19.248   8.337  0.00  0.00     0.174 HD
HETATM   18  H   UNK N   1      35.993  18.668   8.520  0.00  0.00     0.174 HD
ENDROOT
BRANCH   1  19
HETATM   19  C   UNK N   1      35.508  13.785  12.354  0.00  0.00     0.142 C 
BRANCH  19  20
HETATM   20  C   UNK N   1      36.632  13.472  13.362  0.00  0.00     0.058 C 
BRANCH  20  21
HETATM   21  C   UNK N   1      36.240  13.721  14.797  0.00  0.00    -0.057 A 
HETATM   22  C   UNK N   1      36.966  14.622  15.581  0.00  0.00     0.010 A 
HETATM   23  C   UNK N   1      36.637  14.796  16.931  0.00  0.00     0.037 A 
HETATM   24  C   UNK N   1      35.588  14.062  17.501  0.00  0.00     0.065 A 
HETATM   25  C   UNK N   1      34.853  13.174  16.716  0.00  0.00     0.037 A 
HETATM   26  C   UNK N   1      35.172  13.014  15.368  0.00  0.00     0.010 A 
BRANCH  24  27
HETATM   27  O   UNK N   1      35.287  14.213  18.799  0.00  0.00    -0.361 OA
HETATM   28  H   UNK N   1      34.484  13.907  19.174  0.00  0.00     0.217 HD
ENDBRANCH  24  27
ENDBRANCH  20  21
ENDBRANCH  19  20
ENDBRANCH   1  19
BRANCH  15  29
HETATM   29  C   UNK N   1      29.978  17.211   8.446  0.00  0.00     0.120 A 
HETATM   30  C   UNK N   1      29.220  17.531   9.548  0.00  0.00     0.043 A 
HETATM   31  C   UNK N   1      28.229  18.369   9.077  0.00  0.00     0.027 A 
HETATM   32  C   UNK N   1      28.460  18.521   7.720  0.00  0.00     0.142 A 
HETATM   33  O   UNK N   1      29.520  17.826   7.388  0.00  0.00    -0.319 OA
ENDBRANCH  15  29
TORSDOF 5
ENDMDL
MODEL 3
REMARK VINA RESULT:      -8.1      2.470      8.740
REMARK  5 active torsions:
REMARK  status: ('A' for Active; 'I' for Inactive)
REMARK    1  A    between atoms: C_3  and  O_4 
REMARK    2  A    between atoms: C_8  and  C_7 
REMARK    3  A    between atoms: C_9  and  C_8 
REMARK    4  A    between atoms: N_10  and  C_9 
REMARK       I    between atoms: C_11  and  N_10 
REMARK       I    between atoms: C_16  and  N_17 
REMARK    5  A    between atoms: C_25  and  C_24 
ROOT
HETATM    1  N   UNK N   1      34.260  15.863   7.822  0.00  0.00    -0.225 N 
HETATM    2  C   UNK N   1      35.102  15.439   8.870  0.00  0.00     0.707 A 
HETATM    3  N   UNK N   1      34.843  15.814  10.158  0.00  0.00    -0.019 N 
ATOM      4  HN  UNK N   1      34.102  16.480  10.376  1.00  0.00     0.203 HD
HETATM    5  N   UNK N   1      36.136  14.584   8.587  0.00  0.00    -0.020 N 
ATOM      6  HN  UNK N   1      36.321  14.313   7.621  1.00  0.00     0.203 HD
HETATM    7  C   UNK N   1      36.914  14.096   9.588  0.00  0.00     0.727 A 
HETATM    8  N   UNK N   1      37.927  13.156   9.315  0.00  0.00    -0.232 N 
HETATM    9  N   UNK N   1      36.596  14.431  10.847  0.00  0.00     0.092 N 
HETATM   10  N   UNK N   1      37.031  13.896  11.966  0.00  0.00    -0.246 N 
ATOM     11  HN  UNK N   1      37.803  13.240  12.081  1.00  0.00     0.190 HD
HETATM   12  C   UNK N   1      35.607  15.271  11.130  0.00  0.00     0.735 A 
HETATM   13  N   UNK N   1      35.339  15.302  12.437  0.00  0.00    -0.170 N 
ATOM     14  HN  UNK N   1      34.643  15.855  12.937  1.00  0.00     0.186 HD
HETATM   15  C   UNK N   1      36.232  14.404  12.931  0.00  0.00     0.171 A 
HETATM   16  H   UNK N   1      34.080  15.246   7.077  0.00  0.00     0.177 HD
HETATM   17  H   UNK N   1      38.149  12.430   9.943  0.00  0.00     0.174 HD
HETATM   18  H   UNK N   1      38.431  13.226   8.471  0.00  0.00     0.174 HD
ENDROOT
BRANCH   1  19
HETATM   19  C   UNK N   1      33.657  17.168   7.807  0.00  0.00     0.142 C 
BRANCH  19  20
HETATM   20  C   UNK N   1      32.454  17.188   6.843  0.00  0.00     0.058 C 
BRANCH  20  21
HETATM   21  C   UNK N   1      31.134  17.428   7.531  0.00  0.00    -0.057 A 
HETATM   22  C   UNK N   1      29.938  17.039   6.920  0.00  0.00     0.010 A 
HETATM   23  C   UNK N   1      28.714  17.326   7.536  0.00  0.00     0.037 A 
HETATM   24  C   UNK N   1      28.683  18.012   8.757  0.00  0.00     0.065 A 
HETATM   25  C   UNK N   1      29.875  18.387   9.375  0.00  0.00     0.037 A 
HETATM   26  C   UNK N   1      31.094  18.085   8.769  0.00  0.00     0.010 A 
BRANCH  24  27
HETATM   27  O   UNK N   1      27.509  18.306   9.336  0.00  0.00    -0.361 OA
HETATM   28  H   UNK N   1      27.279  19.173   9.608  0.00  0.00     0.217 HD
ENDBRANCH  24  27
ENDBRANCH  20  21
ENDBRANCH  19  20
ENDBRANCH   1  19
BRANCH  15  29
HETATM   29  C   UNK N   1      35.938  13.632  14.122  0.00  0.00     0.120 A 
HETATM   30  C   UNK N   1      36.785  13.521  15.200  0.00  0.00     0.043 A 
HETATM   31  C   UNK N   1      36.004  13.036  16.229  0.00  0.00     0.027 A 
HETATM   32  C   UNK N   1      34.724  12.900  15.716  0.00  0.00     0.142 A 
HETATM   33  O   UNK N   1      34.726  13.279  14.462  0.00  0.00    -0.319 OA
ENDBRANCH  15  29
TORSDOF 5
ENDMDL
MODEL 4
REMARK VINA RESULT:      -7.8      4.079     10.295
REMARK  5 active torsions:
REMARK  status: ('A' for Active; 'I' for Inactive)
REMARK    1  A    between atoms: C_3  and  O_4 
REMARK    2  A    between atoms: C_8  and  C_7 
REMARK    3  A    between atoms: C_9  and  C_8 
REMARK    4  A    between atoms: N_10  and  C_9 
REMARK       I    between atoms: C_11  and  N_10 
REMARK       I    between atoms: C_16  and  N_17 
REMARK    5  A    between atoms: C_25  and  C_24 
ROOT
HETATM    1  N   UNK N   1      31.956  16.757   5.540  0.00  0.00    -0.225 N 
HETATM    2  C   UNK N   1      32.524  16.821   6.828  0.00  0.00     0.707 A 
HETATM    3  N   UNK N   1      32.249  15.854   7.753  0.00  0.00    -0.019 N 
ATOM      4  HN  UNK N   1      31.558  15.126   7.568  1.00  0.00     0.203 HD
HETATM    5  N   UNK N   1      33.416  17.823   7.112  0.00  0.00    -0.020 N 
ATOM      6  HN  UNK N   1      33.612  18.541   6.414  1.00  0.00     0.203 HD
HETATM    7  C   UNK N   1      34.040  17.863   8.318  0.00  0.00     0.727 A 
HETATM    8  N   UNK N   1      35.016  18.843   8.589  0.00  0.00    -0.232 N 
HETATM    9  N   UNK N   1      33.798  16.865   9.180  0.00  0.00     0.092 N 
HETATM   10  N   UNK N   1      34.457  16.558  10.276  0.00  0.00    -0.246 N 
ATOM     11  HN  UNK N   1      35.169  17.114  10.747  1.00  0.00     0.190 HD
HETATM   12  C   UNK N   1      32.924  15.899   8.921  0.00  0.00     0.735 A 
HETATM   13  N   UNK N   1      32.992  14.913   9.818  0.00  0.00    -0.170 N 
ATOM     14  HN  UNK N   1      32.441  14.056   9.873  1.00  0.00     0.186 HD
HETATM   15  C   UNK N   1      33.986  15.345  10.639  0.00  0.00     0.171 A 
HETATM   16  H   UNK N   1      32.492  17.050   4.768  0.00  0.00     0.177 HD
HETATM   17  H   UNK N   1      35.807  18.652   9.143  0.00  0.00     0.174 HD
HETATM   18  H   UNK N   1      34.904  19.747   8.213  0.00  0.00     0.174 HD
ENDROOT
BRANCH   1  19
HETATM   19  C   UNK N   1      30.618  16.278   5.318  0.00  0.00     0.142 C 
BRANCH  19  20
HETATM   20  C   UNK N   1      29.803  17.322   4.530  0.00  0.00     0.058 C 
BRANCH  20  21
HETATM   21  C   UNK N   1      28.908  18.170   5.399  0.00  0.00    -0.057 A 
HETATM   22  C   UNK N   1      28.169  19.218   4.842  0.00  0.00     0.010 A 
HETATM   23  C   UNK N   1      27.393  20.041   5.667  0.00  0.00     0.037 A 
HETATM   24  C   UNK N   1      27.362  19.824   7.050  0.00  0.00     0.065 A 
HETATM   25  C   UNK N   1      28.086  18.769   7.606  0.00  0.00     0.037 A 
HETATM   26  C   UNK N   1      28.845  17.940   6.780  0.00  0.00     0.010 A 
BRANCH  24  27
HETATM   27  O   UNK N   1      26.636  20.626   7.843  0.00  0.00    -0.361 OA
HETATM   28  H   UNK N   1      26.107  21.325   7.512  0.00  0.00     0.217 HD
ENDBRANCH  24  27
ENDBRANCH  20  21
ENDBRANCH  19  20
ENDBRANCH   1  19
BRANCH  15  29
HETATM   29  C   UNK N   1      34.840  14.406  11.340  0.00  0.00     0.120 A 
HETATM   30  C   UNK N   1      36.123  14.093  10.954  0.00  0.00     0.043 A 
HETATM   31  C   UNK N   1      36.694  13.482  12.053  0.00  0.00     0.027 A 
HETATM   32  C   UNK N   1      35.726  13.478  13.044  0.00  0.00     0.142 A 
HETATM   33  O   UNK N   1      34.642  14.052  12.582  0.00  0.00    -0.319 OA
ENDBRANCH  15  29
TORSDOF 5
ENDMDL
MODEL 5
REMARK VINA RESULT:      -7.7      9.395     14.949
REMARK  5 active torsions:
REMARK  status: ('A' for Active; 'I' for Inactive)
REMARK    1  A    between atoms: C_3  and  O_4 
REMARK    2  A    between atoms: C_8  and  C_7 
REMARK    3  A    between atoms: C_9  and  C_8 
REMARK    4  A    between atoms: N_10  and  C_9 
REMARK       I    between atoms: C_11  and  N_10 
REMARK       I    between atoms: C_16  and  N_17 
REMARK    5  A    between atoms: C_25  and  C_24 
ROOT
HETATM    1  N   UNK N   1      25.761  20.293   4.462  0.00  0.00    -0.225 N 
HETATM    2  C   UNK N   1      26.647  19.485   5.201  0.00  0.00     0.707 A 
HETATM    3  N   UNK N   1      27.521  18.653   4.560  0.00  0.00    -0.019 N 
ATOM      4  HN  UNK N   1      27.485  18.526   3.549  1.00  0.00     0.203 HD
HETATM    5  N   UNK N   1      26.673  19.605   6.567  0.00  0.00    -0.020 N 
ATOM      6  HN  UNK N   1      26.015  20.229   7.035  1.00  0.00     0.203 HD
HETATM    7  C   UNK N   1      27.573  18.899   7.300  0.00  0.00     0.727 A 
HETATM    8  N   UNK N   1      27.659  19.075   8.695  0.00  0.00    -0.232 N 
HETATM    9  N   UNK N   1      28.459  18.140   6.638  0.00  0.00     0.092 N 
HETATM   10  N   UNK N   1      29.555  17.579   7.099  0.00  0.00    -0.246 N 
ATOM     11  HN  UNK N   1      29.844  17.491   8.072  1.00  0.00     0.190 HD
HETATM   12  C   UNK N   1      28.431  18.005   5.318  0.00  0.00     0.735 A 
HETATM   13  N   UNK N   1      29.516  17.375   4.859  0.00  0.00    -0.170 N 
ATOM     14  HN  UNK N   1      29.757  17.129   3.899  1.00  0.00     0.186 HD
HETATM   15  C   UNK N   1      30.215  17.147   6.002  0.00  0.00     0.171 A 
HETATM   16  H   UNK N   1      25.553  21.198   4.791  0.00  0.00     0.177 HD
HETATM   17  H   UNK N   1      28.518  19.032   9.174  0.00  0.00     0.174 HD
HETATM   18  H   UNK N   1      26.835  19.247   9.207  0.00  0.00     0.174 HD
ENDROOT
BRANCH   1  19
HETATM   19  C   UNK N   1      25.149  19.838   3.242  0.00  0.00     0.142 C 
BRANCH  19  20
HETATM   20  C   UNK N   1      23.930  20.717   2.898  0.00  0.00     0.058 C 
BRANCH  20  21
HETATM   21  C   UNK N   1      22.612  19.994   3.019  0.00  0.00    -0.057 A 
HETATM   22  C   UNK N   1      22.512  18.833   3.791  0.00  0.00     0.010 A 
HETATM   23  C   UNK N   1      21.301  18.132   3.844  0.00  0.00     0.037 A 
HETATM   24  C   UNK N   1      20.193  18.584   3.117  0.00  0.00     0.065 A 
HETATM   25  C   UNK N   1      20.286  19.751   2.359  0.00  0.00     0.037 A 
HETATM   26  C   UNK N   1      21.488  20.457   2.321  0.00  0.00     0.010 A 
BRANCH  24  27
HETATM   27  O   UNK N   1      19.039  17.901   3.150  0.00  0.00    -0.361 OA
HETATM   28  H   UNK N   1      18.996  16.969   3.055  0.00  0.00     0.217 HD
ENDBRANCH  24  27
ENDBRANCH  20  21
ENDBRANCH  19  20
ENDBRANCH   1  19
BRANCH  15  29
HETATM   29  C   UNK N   1      31.664  17.087   5.994  0.00  0.00     0.120 A 
HETATM   30  C   UNK N   1      32.429  17.041   4.852  0.00  0.00     0.043 A 
HETATM   31  C   UNK N   1      33.708  17.364   5.258  0.00  0.00     0.027 A 
HETATM   32  C   UNK N   1      33.637  17.603   6.620  0.00  0.00     0.142 A 
HETATM   33  O   UNK N   1      32.398  17.442   7.016  0.00  0.00    -0.319 OA
ENDBRANCH  15  29
TORSDOF 5
ENDMDL
MODEL 6
REMARK VINA RESULT:      -7.6      7.803     11.162
REMARK  5 active torsions:
REMARK  status: ('A' for Active; 'I' for Inactive)
REMARK    1  A    between atoms: C_3  and  O_4 
REMARK    2  A    between atoms: C_8  and  C_7 
REMARK    3  A    between atoms: C_9  and  C_8 
REMARK    4  A    between atoms: N_10  and  C_9 
REMARK       I    between atoms: C_11  and  N_10 
REMARK       I    between atoms: C_16  and  N_17 
REMARK    5  A    between atoms: C_25  and  C_24 
ROOT
HETATM    1  N   UNK N   1      30.875  16.534   5.510  0.00  0.00    -0.225 N 
HETATM    2  C   UNK N   1      29.856  17.484   5.720  0.00  0.00     0.707 A 
HETATM    3  N   UNK N   1      29.279  18.123   4.660  0.00  0.00    -0.019 N 
ATOM      4  HN  UNK N   1      29.634  18.001   3.711  1.00  0.00     0.203 HD
HETATM    5  N   UNK N   1      29.402  17.700   6.996  0.00  0.00    -0.020 N 
ATOM      6  HN  UNK N   1      29.842  17.218   7.780  1.00  0.00     0.203 HD
HETATM    7  C   UNK N   1      28.366  18.550   7.219  0.00  0.00     0.727 A 
HETATM    8  N   UNK N   1      27.841  18.717   8.516  0.00  0.00    -0.232 N 
HETATM    9  N   UNK N   1      27.779  19.113   6.153  0.00  0.00     0.092 N 
HETATM   10  N   UNK N   1      26.631  19.753   6.099  0.00  0.00    -0.246 N 
ATOM     11  HN  UNK N   1      26.062  20.071   6.882  1.00  0.00     0.190 HD
HETATM   12  C   UNK N   1      28.222  18.923   4.916  0.00  0.00     0.735 A 
HETATM   13  N   UNK N   1      27.375  19.408   4.005  0.00  0.00    -0.170 N 
ATOM     14  HN  UNK N   1      27.459  19.409   2.988  1.00  0.00     0.186 HD
HETATM   15  C   UNK N   1      26.372  19.896   4.781  0.00  0.00     0.171 A 
HETATM   16  H   UNK N   1      30.912  15.739   6.090  0.00  0.00     0.177 HD
HETATM   17  H   UNK N   1      26.881  18.863   8.676  0.00  0.00     0.174 HD
HETATM   18  H   UNK N   1      28.454  18.686   9.288  0.00  0.00     0.174 HD
ENDROOT
BRANCH   1  19
HETATM   19  C   UNK N   1      31.861  16.687   4.475  0.00  0.00     0.142 C 
BRANCH  19  20
HETATM   20  C   UNK N   1      33.013  17.586   4.966  0.00  0.00     0.058 C 
BRANCH  20  21
HETATM   21  C   UNK N   1      33.585  17.162   6.295  0.00  0.00    -0.057 A 
HETATM   22  C   UNK N   1      33.437  17.978   7.420  0.00  0.00     0.010 A 
HETATM   23  C   UNK N   1      34.028  17.607   8.635  0.00  0.00     0.037 A 
HETATM   24  C   UNK N   1      34.776  16.426   8.722  0.00  0.00     0.065 A 
HETATM   25  C   UNK N   1      34.911  15.602   7.605  0.00  0.00     0.037 A 
HETATM   26  C   UNK N   1      34.308  15.965   6.401  0.00  0.00     0.010 A 
BRANCH  24  27
HETATM   27  O   UNK N   1      35.360  16.082   9.880  0.00  0.00    -0.361 OA
HETATM   28  H   UNK N   1      34.875  15.797  10.630  0.00  0.00     0.217 HD
ENDBRANCH  24  27
ENDBRANCH  20  21
ENDBRANCH  19  20
ENDBRANCH   1  19
BRANCH  15  29
HETATM   29  C   UNK N   1      25.003  19.932   4.302  0.00  0.00     0.120 A 
HETATM   30  C   UNK N   1      24.589  20.644   3.201  0.00  0.00     0.043 A 
HETATM   31  C   UNK N   1      23.350  20.127   2.879  0.00  0.00     0.027 A 
HETATM   32  C   UNK N   1      23.097  19.120   3.795  0.00  0.00     0.142 A 
HETATM   33  O   UNK N   1      24.114  19.027   4.616  0.00  0.00    -0.319 OA
ENDBRANCH  15  29
TORSDOF 5
ENDMDL
MODEL 7
REMARK VINA RESULT:      -7.6      2.524      9.577
REMARK  5 active torsions:
REMARK  status: ('A' for Active; 'I' for Inactive)
REMARK    1  A    between atoms: C_3  and  O_4 
REMARK    2  A    between atoms: C_8  and  C_7 
REMARK    3  A    between atoms: C_9  and  C_8 
REMARK    4  A    between atoms: N_10  and  C_9 
REMARK       I    between atoms: C_11  and  N_10 
REMARK       I    between atoms: C_16  and  N_17 
REMARK    5  A    between atoms: C_25  and  C_24 
ROOT
HETATM    1  N   UNK N   1      33.608  14.764   8.812  0.00  0.00    -0.225 N 
HETATM    2  C   UNK N   1      34.595  14.645   9.810  0.00  0.00     0.707 A 
HETATM    3  N   UNK N   1      34.238  14.457  11.115  0.00  0.00    -0.019 N 
ATOM      4  HN  UNK N   1      33.262  14.495  11.407  1.00  0.00     0.203 HD
HETATM    5  N   UNK N   1      35.916  14.644   9.441  0.00  0.00    -0.020 N 
ATOM      6  HN  UNK N   1      36.171  14.787   8.464  1.00  0.00     0.203 HD
HETATM    7  C   UNK N   1      36.887  14.450  10.372  0.00  0.00     0.727 A 
HETATM    8  N   UNK N   1      38.241  14.367   9.990  0.00  0.00    -0.232 N 
HETATM    9  N   UNK N   1      36.503  14.204  11.633  0.00  0.00     0.092 N 
HETATM   10  N   UNK N   1      37.228  13.747  12.630  0.00  0.00    -0.246 N 
ATOM     11  HN  UNK N   1      38.242  13.648  12.665  1.00  0.00     0.190 HD
HETATM   12  C   UNK N   1      35.228  14.219  12.003  0.00  0.00     0.735 A 
HETATM   13  N   UNK N   1      35.064  13.753  13.243  0.00  0.00    -0.170 N 
ATOM     14  HN  UNK N   1      34.204  13.657  13.784  1.00  0.00     0.186 HD
HETATM   15  C   UNK N   1      36.337  13.437  13.598  0.00  0.00     0.171 A 
HETATM   16  H   UNK N   1      33.778  14.373   7.925  0.00  0.00     0.177 HD
HETATM   17  H   UNK N   1      38.875  13.767  10.444  0.00  0.00     0.174 HD
HETATM   18  H   UNK N   1      38.563  14.928   9.247  0.00  0.00     0.174 HD
ENDROOT
BRANCH   1  19
HETATM   19  C   UNK N   1      32.360  15.439   9.048  0.00  0.00     0.142 C 
BRANCH  19  20
HETATM   20  C   UNK N   1      32.470  16.920   8.634  0.00  0.00     0.058 C 
BRANCH  20  21
HETATM   21  C   UNK N   1      32.263  17.150   7.158  0.00  0.00    -0.057 A 
HETATM   22  C   UNK N   1      30.987  17.044   6.598  0.00  0.00     0.010 A 
HETATM   23  C   UNK N   1      30.816  17.193   5.216  0.00  0.00     0.037 A 
HETATM   24  C   UNK N   1      31.922  17.439   4.392  0.00  0.00     0.065 A 
HETATM   25  C   UNK N   1      33.194  17.561   4.950  0.00  0.00     0.037 A 
HETATM   26  C   UNK N   1      33.360  17.428   6.329  0.00  0.00     0.010 A 
BRANCH  24  27
HETATM   27  O   UNK N   1      31.761  17.560   3.065  0.00  0.00    -0.361 OA
HETATM   28  H   UNK N   1      31.311  16.922   2.547  0.00  0.00     0.217 HD
ENDBRANCH  24  27
ENDBRANCH  20  21
ENDBRANCH  19  20
ENDBRANCH   1  19
BRANCH  15  29
HETATM   29  C   UNK N   1      36.610  12.360  14.529  0.00  0.00     0.120 A 
HETATM   30  C   UNK N   1      36.000  12.225  15.754  0.00  0.00     0.043 A 
HETATM   31  C   UNK N   1      36.247  10.923  16.142  0.00  0.00     0.027 A 
HETATM   32  C   UNK N   1      36.977  10.342  15.118  0.00  0.00     0.142 A 
HETATM   33  O   UNK N   1      37.158  11.229  14.170  0.00  0.00    -0.319 OA
ENDBRANCH  15  29
TORSDOF 5
ENDMDL
MODEL 8
REMARK VINA RESULT:      -7.6      2.160      8.164
REMARK  5 active torsions:
REMARK  status: ('A' for Active; 'I' for Inactive)
REMARK    1  A    between atoms: C_3  and  O_4 
REMARK    2  A    between atoms: C_8  and  C_7 
REMARK    3  A    between atoms: C_9  and  C_8 
REMARK    4  A    between atoms: N_10  and  C_9 
REMARK       I    between atoms: C_11  and  N_10 
REMARK       I    between atoms: C_16  and  N_17 
REMARK    5  A    between atoms: C_25  and  C_24 
ROOT
HETATM    1  N   UNK N   1      35.362  12.786   7.584  0.00  0.00    -0.225 N 
HETATM    2  C   UNK N   1      35.842  13.204   8.842  0.00  0.00     0.707 A 
HETATM    3  N   UNK N   1      34.970  13.563   9.829  0.00  0.00    -0.019 N 
ATOM      4  HN  UNK N   1      33.968  13.630   9.651  1.00  0.00     0.203 HD
HETATM    5  N   UNK N   1      37.192  13.170   9.082  0.00  0.00    -0.020 N 
ATOM      6  HN  UNK N   1      37.835  12.901   8.336  1.00  0.00     0.203 HD
HETATM    7  C   UNK N   1      37.677  13.490  10.309  0.00  0.00     0.727 A 
HETATM    8  N   UNK N   1      39.054  13.381  10.588  0.00  0.00    -0.232 N 
HETATM    9  N   UNK N   1      36.792  13.776  11.276  0.00  0.00     0.092 N 
HETATM   10  N   UNK N   1      37.002  13.866  12.571  0.00  0.00    -0.246 N 
ATOM     11  HN  UNK N   1      37.899  13.889  13.053  1.00  0.00     0.190 HD
HETATM   12  C   UNK N   1      35.486  13.828  11.049  0.00  0.00     0.735 A 
HETATM   13  N   UNK N   1      34.787  13.928  12.182  0.00  0.00    -0.170 N 
ATOM     14  HN  UNK N   1      33.777  13.993  12.310  1.00  0.00     0.186 HD
HETATM   15  C   UNK N   1      35.770  13.920  13.122  0.00  0.00     0.171 A 
HETATM   16  H   UNK N   1      35.838  12.068   7.107  0.00  0.00     0.177 HD
HETATM   17  H   UNK N   1      39.388  13.098  11.470  0.00  0.00     0.174 HD
HETATM   18  H   UNK N   1      39.704  13.594   9.878  0.00  0.00     0.174 HD
ENDROOT
BRANCH   1  19
HETATM   19  C   UNK N   1      34.199  13.374   6.977  0.00  0.00     0.142 C 
BRANCH  19  20
HETATM   20  C   UNK N   1      34.478  14.844   6.605  0.00  0.00     0.058 C 
BRANCH  20  21
HETATM   21  C   UNK N   1      33.516  15.819   7.235  0.00  0.00    -0.057 A 
HETATM   22  C   UNK N   1      33.773  17.192   7.193  0.00  0.00     0.010 A 
HETATM   23  C   UNK N   1      32.908  18.084   7.839  0.00  0.00     0.037 A 
HETATM   24  C   UNK N   1      31.792  17.604   8.535  0.00  0.00     0.065 A 
HETATM   25  C   UNK N   1      31.525  16.235   8.565  0.00  0.00     0.037 A 
HETATM   26  C   UNK N   1      32.378  15.350   7.908  0.00  0.00     0.010 A 
BRANCH  24  27
HETATM   27  O   UNK N   1      30.975  18.457   9.172  0.00  0.00    -0.361 OA
HETATM   28  H   UNK N   1      30.395  18.190   9.858  0.00  0.00     0.217 HD
ENDBRANCH  24  27
ENDBRANCH  20  21
ENDBRANCH  19  20
ENDBRANCH   1  19
BRANCH  15  29
HETATM   29  C   UNK N   1      35.534  13.381  14.447  0.00  0.00     0.120 A 
HETATM   30  C   UNK N   1      36.377  13.568  15.518  0.00  0.00     0.043 A 
HETATM   31  C   UNK N   1      35.632  13.233  16.630  0.00  0.00     0.027 A 
HETATM   32  C   UNK N   1      34.375  12.880  16.167  0.00  0.00     0.142 A 
HETATM   33  O   UNK N   1      34.355  12.997  14.861  0.00  0.00    -0.319 OA
ENDBRANCH  15  29
TORSDOF 5
ENDMDL
MODEL 9
REMARK VINA RESULT:      -7.6      3.121      9.735
REMARK  5 active torsions:
REMARK  status: ('A' for Active; 'I' for Inactive)
REMARK    1  A    between atoms: C_3  and  O_4 
REMARK    2  A    between atoms: C_8  and  C_7 
REMARK    3  A    between atoms: C_9  and  C_8 
REMARK    4  A    between atoms: N_10  and  C_9 
REMARK       I    between atoms: C_11  and  N_10 
REMARK       I    between atoms: C_16  and  N_17 
REMARK    5  A    between atoms: C_25  and  C_24 
ROOT
HETATM    1  N   UNK N   1      35.414  13.164   7.593  0.00  0.00    -0.225 N 
HETATM    2  C   UNK N   1      35.915  13.476   8.873  0.00  0.00     0.707 A 
HETATM    3  N   UNK N   1      35.065  13.851   9.875  0.00  0.00    -0.019 N 
ATOM      4  HN  UNK N   1      34.073  14.005   9.697  1.00  0.00     0.203 HD
HETATM    5  N   UNK N   1      37.256  13.324   9.116  0.00  0.00    -0.020 N 
ATOM      6  HN  UNK N   1      37.882  13.046   8.360  1.00  0.00     0.203 HD
HETATM    7  C   UNK N   1      37.755  13.540  10.361  0.00  0.00     0.727 A 
HETATM    8  N   UNK N   1      39.117  13.309  10.639  0.00  0.00    -0.232 N 
HETATM    9  N   UNK N   1      36.887  13.844  11.338  0.00  0.00     0.092 N 
HETATM   10  N   UNK N   1      37.092  13.848  12.637  0.00  0.00    -0.246 N 
ATOM     11  HN  UNK N   1      37.985  13.776  13.123  1.00  0.00     0.190 HD
HETATM   12  C   UNK N   1      35.590  14.009  11.109  0.00  0.00     0.735 A 
HETATM   13  N   UNK N   1      34.893  14.104  12.243  0.00  0.00    -0.170 N 
ATOM     14  HN  UNK N   1      33.890  14.241  12.370  1.00  0.00     0.186 HD
HETATM   15  C   UNK N   1      35.863  13.969  13.185  0.00  0.00     0.171 A 
HETATM   16  H   UNK N   1      35.836  12.438   7.081  0.00  0.00     0.177 HD
HETATM   17  H   UNK N   1      39.420  12.956  11.506  0.00  0.00     0.174 HD
HETATM   18  H   UNK N   1      39.787  13.508   9.944  0.00  0.00     0.174 HD
ENDROOT
BRANCH   1  19
HETATM   19  C   UNK N   1      34.305  13.873   7.013  0.00  0.00     0.142 C 
BRANCH  19  20
HETATM   20  C   UNK N   1      34.764  15.253   6.503  0.00  0.00     0.058 C 
BRANCH  20  21
HETATM   21  C   UNK N   1      33.937  15.778   5.356  0.00  0.00    -0.057 A 
HETATM   22  C   UNK N   1      33.667  14.966   4.251  0.00  0.00     0.010 A 
HETATM   23  C   UNK N   1      32.955  15.484   3.162  0.00  0.00     0.037 A 
HETATM   24  C   UNK N   1      32.521  16.816   3.173  0.00  0.00     0.065 A 
HETATM   25  C   UNK N   1      32.776  17.623   4.281  0.00  0.00     0.037 A 
HETATM   26  C   UNK N   1      33.471  17.100   5.372  0.00  0.00     0.010 A 
BRANCH  24  27
HETATM   27  O   UNK N   1      31.858  17.318   2.120  0.00  0.00    -0.361 OA
HETATM   28  H   UNK N   1      31.977  18.196   1.816  0.00  0.00     0.217 HD
ENDBRANCH  24  27
ENDBRANCH  20  21
ENDBRANCH  19  20
ENDBRANCH   1  19
BRANCH  15  29
HETATM   29  C   UNK N   1      35.576  13.382  14.479  0.00  0.00     0.120 A 
HETATM   30  C   UNK N   1      36.383  13.515  15.584  0.00  0.00     0.043 A 
HETATM   31  C   UNK N   1      35.596  13.145  16.656  0.00  0.00     0.027 A 
HETATM   32  C   UNK N   1      34.352  12.828  16.137  0.00  0.00     0.142 A 
HETATM   33  O   UNK N   1      34.379  12.997  14.837  0.00  0.00    -0.319 OA
ENDBRANCH  15  29
TORSDOF 5
ENDMDL
