MODEL 1
REMARK VINA RESULT:      -6.3      0.000      0.000
REMARK  3 active torsions:
REMARK  status: ('A' for Active; 'I' for Inactive)
REMARK    1  A    between atoms: N_7  and  C_5 
REMARK    2  A    between atoms: C_8  and  N_7 
REMARK    3  A    between atoms: C_10  and  C_16 
ROOT
HETATM    1  C   UNK N   1      28.234  23.922  -3.427  0.00  0.00     0.148 C 
HETATM    2  S   UNK N   1      29.372  24.590  -4.645  0.00  0.00    -0.079 SA
HETATM    3  C   UNK N   1      30.751  24.160  -3.503  0.00  0.00     0.151 C 
HETATM    4  C   UNK N   1      30.104  23.336  -2.429  0.00  0.00     0.238 C 
HETATM    5  N   UNK N   1      28.765  23.317  -2.439  0.00  0.00    -0.306 N 
ATOM      6  HN  UNK N   1      28.214  22.858  -1.714  1.00  0.00     0.171 HD
HETATM    7  O   UNK N   1      30.739  22.820  -1.525  0.00  0.00    -0.272 OA
ENDROOT
BRANCH   1   8
HETATM    8  N   UNK N   1      26.840  24.218  -3.490  0.00  0.00    -0.334 N 
HETATM    9  H   UNK N   1      26.221  23.530  -3.152  0.00  0.00     0.168 HD
BRANCH   8  10
HETATM   10  C   UNK N   1      26.261  25.418  -3.997  0.00  0.00     0.073 A 
HETATM   11  C   UNK N   1      25.617  25.391  -5.245  0.00  0.00     0.143 A 
HETATM   12  C   UNK N   1      25.065  26.559  -5.779  0.00  0.00     0.044 A 
HETATM   13  F   UNK N   1      25.546  24.237  -5.953  0.00  0.00    -0.204 F 
HETATM   14  C   UNK N   1      25.145  27.760  -5.072  0.00  0.00     0.003 A 
HETATM   15  C   UNK N   1      25.782  27.797  -3.830  0.00  0.00     0.002 A 
HETATM   16  C   UNK N   1      26.342  26.632  -3.296  0.00  0.00     0.033 A 
ENDBRANCH   8  10
ENDBRANCH   1   8
BRANCH   3  17
HETATM   17  C   UNK N   1      31.928  23.450  -4.190  0.00  0.00     0.001 C 
HETATM   18  C   UNK N   1      31.527  22.271  -5.059  0.00  0.00     0.011 C 
HETATM   19  C   UNK N   1      32.762  24.432  -4.998  0.00  0.00     0.011 C 
ENDBRANCH   3  17
TORSDOF 3
ENDMDL
MODEL 2
REMARK VINA RESULT:      -6.3     19.541     21.979
REMARK  3 active torsions:
REMARK  status: ('A' for Active; 'I' for Inactive)
REMARK    1  A    between atoms: N_7  and  C_5 
REMARK    2  A    between atoms: C_8  and  N_7 
REMARK    3  A    between atoms: C_10  and  C_16 
ROOT
HETATM    1  C   UNK N   1      36.166  14.430  12.596  0.00  0.00     0.148 C 
HETATM    2  S   UNK N   1      34.967  13.422  11.719  0.00  0.00    -0.079 SA
HETATM    3  C   UNK N   1      34.361  14.959  10.905  0.00  0.00     0.151 C 
HETATM    4  C   UNK N   1      35.367  16.004  11.284  0.00  0.00     0.238 C 
HETATM    5  N   UNK N   1      36.247  15.648  12.230  0.00  0.00    -0.306 N 
ATOM      6  HN  UNK N   1      36.927  16.298  12.625  1.00  0.00     0.171 HD
HETATM    7  O   UNK N   1      35.317  17.147  10.864  0.00  0.00    -0.272 OA
ENDROOT
BRANCH   1   8
HETATM    8  N   UNK N   1      36.843  13.926  13.746  0.00  0.00    -0.334 N 
HETATM    9  H   UNK N   1      37.724  13.509  13.599  0.00  0.00     0.168 HD
BRANCH   8  10
HETATM   10  C   UNK N   1      36.363  13.970  15.088  0.00  0.00     0.073 A 
HETATM   11  C   UNK N   1      36.857  14.956  15.956  0.00  0.00     0.143 A 
HETATM   12  C   UNK N   1      36.424  15.007  17.285  0.00  0.00     0.044 A 
HETATM   13  F   UNK N   1      37.776  15.854  15.521  0.00  0.00    -0.204 F 
HETATM   14  C   UNK N   1      35.492  14.080  17.755  0.00  0.00     0.003 A 
HETATM   15  C   UNK N   1      34.994  13.096  16.898  0.00  0.00     0.002 A 
HETATM   16  C   UNK N   1      35.430  13.039  15.571  0.00  0.00     0.033 A 
ENDBRANCH   8  10
ENDBRANCH   1   8
BRANCH   3  17
HETATM   17  C   UNK N   1      34.167  14.821   9.386  0.00  0.00     0.001 C 
HETATM   18  C   UNK N   1      35.432  14.471   8.623  0.00  0.00     0.011 C 
HETATM   19  C   UNK N   1      33.070  13.818   9.064  0.00  0.00     0.011 C 
ENDBRANCH   3  17
TORSDOF 3
ENDMDL
MODEL 3
REMARK VINA RESULT:      -5.9     18.808     21.268
REMARK  3 active torsions:
REMARK  status: ('A' for Active; 'I' for Inactive)
REMARK    1  A    between atoms: N_7  and  C_5 
REMARK    2  A    between atoms: C_8  and  N_7 
REMARK    3  A    between atoms: C_10  and  C_16 
ROOT
HETATM    1  C   UNK N   1      36.226  14.454  11.761  0.00  0.00     0.148 C 
HETATM    2  S   UNK N   1      34.980  13.682  10.724  0.00  0.00    -0.079 SA
HETATM    3  C   UNK N   1      34.495  15.366  10.157  0.00  0.00     0.151 C 
HETATM    4  C   UNK N   1      35.561  16.266  10.707  0.00  0.00     0.238 C 
HETATM    5  N   UNK N   1      36.395  15.706  11.593  0.00  0.00    -0.306 N 
ATOM      6  HN  UNK N   1      37.109  16.237  12.092  1.00  0.00     0.171 HD
HETATM    7  O   UNK N   1      35.596  17.462  10.473  0.00  0.00    -0.272 OA
ENDROOT
BRANCH   1   8
HETATM    8  N   UNK N   1      36.844  13.729  12.823  0.00  0.00    -0.334 N 
HETATM    9  H   UNK N   1      37.667  13.232  12.605  0.00  0.00     0.168 HD
BRANCH   8  10
HETATM   10  C   UNK N   1      36.380  13.657  14.169  0.00  0.00     0.073 A 
HETATM   11  C   UNK N   1      35.303  12.810  14.475  0.00  0.00     0.143 A 
HETATM   12  C   UNK N   1      34.810  12.741  15.782  0.00  0.00     0.044 A 
HETATM   13  F   UNK N   1      34.717  12.070  13.502  0.00  0.00    -0.204 F 
HETATM   14  C   UNK N   1      35.389  13.510  16.793  0.00  0.00     0.003 A 
HETATM   15  C   UNK N   1      36.462  14.354  16.498  0.00  0.00     0.002 A 
HETATM   16  C   UNK N   1      36.953  14.431  15.191  0.00  0.00     0.033 A 
ENDBRANCH   8  10
ENDBRANCH   1   8
BRANCH   3  17
HETATM   17  C   UNK N   1      34.324  15.483   8.634  0.00  0.00     0.001 C 
HETATM   18  C   UNK N   1      35.308  14.655   7.828  0.00  0.00     0.011 C 
HETATM   19  C   UNK N   1      32.900  15.149   8.218  0.00  0.00     0.011 C 
ENDBRANCH   3  17
TORSDOF 3
ENDMDL
MODEL 4
REMARK VINA RESULT:      -5.8     10.768     12.062
REMARK  3 active torsions:
REMARK  status: ('A' for Active; 'I' for Inactive)
REMARK    1  A    between atoms: N_7  and  C_5 
REMARK    2  A    between atoms: C_8  and  N_7 
REMARK    3  A    between atoms: C_10  and  C_16 
ROOT
HETATM    1  C   UNK N   1      30.160  17.489   5.253  0.00  0.00     0.148 C 
HETATM    2  S   UNK N   1      31.037  16.855   6.685  0.00  0.00    -0.079 SA
HETATM    3  C   UNK N   1      32.498  16.585   5.596  0.00  0.00     0.151 C 
HETATM    4  C   UNK N   1      32.134  17.263   4.308  0.00  0.00     0.238 C 
HETATM    5  N   UNK N   1      30.858  17.656   4.199  0.00  0.00    -0.306 N 
ATOM      6  HN  UNK N   1      30.474  18.057   3.343  1.00  0.00     0.171 HD
HETATM    7  O   UNK N   1      32.903  17.340   3.366  0.00  0.00    -0.272 OA
ENDROOT
BRANCH   1   8
HETATM    8  N   UNK N   1      28.740  17.619   5.265  0.00  0.00    -0.334 N 
HETATM    9  H   UNK N   1      28.214  16.789   5.185  0.00  0.00     0.168 HD
BRANCH   8  10
HETATM   10  C   UNK N   1      28.011  18.839   5.382  0.00  0.00     0.073 A 
HETATM   11  C   UNK N   1      27.825  19.402   6.654  0.00  0.00     0.143 A 
HETATM   12  C   UNK N   1      27.091  20.584   6.802  0.00  0.00     0.044 A 
HETATM   13  F   UNK N   1      28.335  18.794   7.753  0.00  0.00    -0.204 F 
HETATM   14  C   UNK N   1      26.544  21.214   5.683  0.00  0.00     0.003 A 
HETATM   15  C   UNK N   1      26.725  20.662   4.413  0.00  0.00     0.002 A 
HETATM   16  C   UNK N   1      27.453  19.477   4.263  0.00  0.00     0.033 A 
ENDBRANCH   8  10
ENDBRANCH   1   8
BRANCH   3  17
HETATM   17  C   UNK N   1      33.821  17.086   6.196  0.00  0.00     0.001 C 
HETATM   18  C   UNK N   1      33.659  17.954   7.431  0.00  0.00     0.011 C 
HETATM   19  C   UNK N   1      34.759  15.926   6.494  0.00  0.00     0.011 C 
ENDBRANCH   3  17
TORSDOF 3
ENDMDL
MODEL 5
REMARK VINA RESULT:      -5.7     13.829     15.841
REMARK  3 active torsions:
REMARK  status: ('A' for Active; 'I' for Inactive)
REMARK    1  A    between atoms: N_7  and  C_5 
REMARK    2  A    between atoms: C_8  and  N_7 
REMARK    3  A    between atoms: C_10  and  C_16 
ROOT
HETATM    1  C   UNK N   1      33.221  16.435   8.882  0.00  0.00     0.148 C 
HETATM    2  S   UNK N   1      33.841  14.754   8.779  0.00  0.00    -0.079 SA
HETATM    3  C   UNK N   1      35.412  15.351   9.532  0.00  0.00     0.151 C 
HETATM    4  C   UNK N   1      35.108  16.755   9.964  0.00  0.00     0.238 C 
HETATM    5  N   UNK N   1      33.950  17.261   9.523  0.00  0.00    -0.306 N 
ATOM      6  HN  UNK N   1      33.672  18.230   9.685  1.00  0.00     0.171 HD
HETATM    7  O   UNK N   1      35.913  17.444  10.567  0.00  0.00    -0.272 OA
ENDROOT
BRANCH   1   8
HETATM    8  N   UNK N   1      32.075  16.838   8.134  0.00  0.00    -0.334 N 
HETATM    9  H   UNK N   1      31.230  16.940   8.630  0.00  0.00     0.168 HD
BRANCH   8  10
HETATM   10  C   UNK N   1      32.041  17.109   6.734  0.00  0.00     0.073 A 
HETATM   11  C   UNK N   1      30.809  17.076   6.063  0.00  0.00     0.143 A 
HETATM   12  C   UNK N   1      30.749  17.311   4.686  0.00  0.00     0.044 A 
HETATM   13  F   UNK N   1      29.668  16.795   6.740  0.00  0.00    -0.204 F 
HETATM   14  C   UNK N   1      31.915  17.584   3.969  0.00  0.00     0.003 A 
HETATM   15  C   UNK N   1      33.146  17.620   4.628  0.00  0.00     0.002 A 
HETATM   16  C   UNK N   1      33.210  17.379   6.005  0.00  0.00     0.033 A 
ENDBRANCH   8  10
ENDBRANCH   1   8
BRANCH   3  17
HETATM   17  C   UNK N   1      35.932  14.460  10.671  0.00  0.00     0.001 C 
HETATM   18  C   UNK N   1      34.936  13.425  11.161  0.00  0.00     0.011 C 
HETATM   19  C   UNK N   1      37.238  13.784  10.283  0.00  0.00     0.011 C 
ENDBRANCH   3  17
TORSDOF 3
ENDMDL
MODEL 6
REMARK VINA RESULT:      -5.7     26.764     28.931
REMARK  3 active torsions:
REMARK  status: ('A' for Active; 'I' for Inactive)
REMARK    1  A    between atoms: N_7  and  C_5 
REMARK    2  A    between atoms: C_8  and  N_7 
REMARK    3  A    between atoms: C_10  and  C_16 
ROOT
HETATM    1  C   UNK N   1      34.312  10.173  20.759  0.00  0.00     0.148 C 
HETATM    2  S   UNK N   1      33.869   8.520  20.217  0.00  0.00    -0.079 SA
HETATM    3  C   UNK N   1      32.847   8.359  21.740  0.00  0.00     0.151 C 
HETATM    4  C   UNK N   1      32.832   9.740  22.327  0.00  0.00     0.238 C 
HETATM    5  N   UNK N   1      33.683  10.615  21.776  0.00  0.00    -0.306 N 
ATOM      6  HN  UNK N   1      33.819  11.558  22.140  1.00  0.00     0.171 HD
HETATM    7  O   UNK N   1      32.188  10.023  23.323  0.00  0.00    -0.272 OA
ENDROOT
BRANCH   1   8
HETATM    8  N   UNK N   1      35.424  10.857  20.184  0.00  0.00    -0.334 N 
HETATM    9  H   UNK N   1      36.267  10.846  20.693  0.00  0.00     0.168 HD
BRANCH   8  10
HETATM   10  C   UNK N   1      35.427  11.553  18.939  0.00  0.00     0.073 A 
HETATM   11  C   UNK N   1      35.044  12.903  18.913  0.00  0.00     0.143 A 
HETATM   12  C   UNK N   1      35.011  13.603  17.702  0.00  0.00     0.044 A 
HETATM   13  F   UNK N   1      34.681  13.535  20.057  0.00  0.00    -0.204 F 
HETATM   14  C   UNK N   1      35.364  12.965  16.512  0.00  0.00     0.003 A 
HETATM   15  C   UNK N   1      35.748  11.622  16.529  0.00  0.00     0.002 A 
HETATM   16  C   UNK N   1      35.775  10.917  17.737  0.00  0.00     0.033 A 
ENDBRANCH   8  10
ENDBRANCH   1   8
BRANCH   3  17
HETATM   17  C   UNK N   1      31.442   7.788  21.489  0.00  0.00     0.001 C 
HETATM   18  C   UNK N   1      30.918   8.014  20.082  0.00  0.00     0.011 C 
HETATM   19  C   UNK N   1      31.385   6.308  21.835  0.00  0.00     0.011 C 
ENDBRANCH   3  17
TORSDOF 3
ENDMDL
MODEL 7
REMARK VINA RESULT:      -5.5     18.907     21.383
REMARK  3 active torsions:
REMARK  status: ('A' for Active; 'I' for Inactive)
REMARK    1  A    between atoms: N_7  and  C_5 
REMARK    2  A    between atoms: C_8  and  N_7 
REMARK    3  A    between atoms: C_10  and  C_16 
ROOT
HETATM    1  C   UNK N   1      36.192  14.320  11.661  0.00  0.00     0.148 C 
HETATM    2  S   UNK N   1      35.486  15.934  11.315  0.00  0.00    -0.079 SA
HETATM    3  C   UNK N   1      35.506  15.493   9.527  0.00  0.00     0.151 C 
HETATM    4  C   UNK N   1      35.855  14.034   9.507  0.00  0.00     0.238 C 
HETATM    5  N   UNK N   1      36.261  13.517  10.674  0.00  0.00    -0.306 N 
ATOM      6  HN  UNK N   1      36.599  12.559  10.766  1.00  0.00     0.171 HD
HETATM    7  O   UNK N   1      35.896  13.383   8.477  0.00  0.00    -0.272 OA
ENDROOT
BRANCH   1   8
HETATM    8  N   UNK N   1      36.795  14.043  12.923  0.00  0.00    -0.334 N 
HETATM    9  H   UNK N   1      37.765  14.199  13.000  0.00  0.00     0.168 HD
BRANCH   8  10
HETATM   10  C   UNK N   1      36.123  13.560  14.084  0.00  0.00     0.073 A 
HETATM   11  C   UNK N   1      36.529  14.019  15.347  0.00  0.00     0.143 A 
HETATM   12  C   UNK N   1      35.906  13.542  16.505  0.00  0.00     0.044 A 
HETATM   13  F   UNK N   1      37.544  14.912  15.458  0.00  0.00    -0.204 F 
HETATM   14  C   UNK N   1      34.871  12.610  16.412  0.00  0.00     0.003 A 
HETATM   15  C   UNK N   1      34.459  12.148  15.160  0.00  0.00     0.002 A 
HETATM   16  C   UNK N   1      35.085  12.618  14.001  0.00  0.00     0.033 A 
ENDBRANCH   8  10
ENDBRANCH   1   8
BRANCH   3  17
HETATM   17  C   UNK N   1      34.195  15.816   8.792  0.00  0.00     0.001 C 
HETATM   18  C   UNK N   1      32.965  15.152   9.385  0.00  0.00     0.011 C 
HETATM   19  C   UNK N   1      33.980  17.319   8.696  0.00  0.00     0.011 C 
ENDBRANCH   3  17
TORSDOF 3
ENDMDL
MODEL 8
REMARK VINA RESULT:      -5.4     17.848     20.367
REMARK  3 active torsions:
REMARK  status: ('A' for Active; 'I' for Inactive)
REMARK    1  A    between atoms: N_7  and  C_5 
REMARK    2  A    between atoms: C_8  and  N_7 
REMARK    3  A    between atoms: C_10  and  C_16 
ROOT
HETATM    1  C   UNK N   1      35.530  14.164  10.572  0.00  0.00     0.148 C 
HETATM    2  S   UNK N   1      34.121  14.099   9.461  0.00  0.00    -0.079 SA
HETATM    3  C   UNK N   1      34.032  15.936   9.564  0.00  0.00     0.151 C 
HETATM    4  C   UNK N   1      35.288  16.330  10.284  0.00  0.00     0.238 C 
HETATM    5  N   UNK N   1      35.984  15.326  10.832  0.00  0.00    -0.306 N 
ATOM      6  HN  UNK N   1      36.810  15.478  11.412  1.00  0.00     0.171 HD
HETATM    7  O   UNK N   1      35.596  17.494  10.476  0.00  0.00    -0.272 OA
ENDROOT
BRANCH   1   8
HETATM    8  N   UNK N   1      35.980  12.992  11.250  0.00  0.00    -0.334 N 
HETATM    9  H   UNK N   1      36.895  12.684  11.051  0.00  0.00     0.168 HD
BRANCH   8  10
HETATM   10  C   UNK N   1      35.228  12.226  12.188  0.00  0.00     0.073 A 
HETATM   11  C   UNK N   1      35.089  12.703  13.501  0.00  0.00     0.143 A 
HETATM   12  C   UNK N   1      34.379  11.959  14.450  0.00  0.00     0.044 A 
HETATM   13  F   UNK N   1      35.659  13.877  13.867  0.00  0.00    -0.204 F 
HETATM   14  C   UNK N   1      33.800  10.739  14.096  0.00  0.00     0.003 A 
HETATM   15  C   UNK N   1      33.932  10.258  12.791  0.00  0.00     0.002 A 
HETATM   16  C   UNK N   1      34.647  10.996  11.842  0.00  0.00     0.033 A 
ENDBRANCH   8  10
ENDBRANCH   1   8
BRANCH   3  17
HETATM   17  C   UNK N   1      33.867  16.627   8.202  0.00  0.00     0.001 C 
HETATM   18  C   UNK N   1      33.547  15.684   7.056  0.00  0.00     0.011 C 
HETATM   19  C   UNK N   1      32.823  17.731   8.273  0.00  0.00     0.011 C 
ENDBRANCH   3  17
TORSDOF 3
ENDMDL
MODEL 9
REMARK VINA RESULT:      -5.4     20.180     22.494
REMARK  3 active torsions:
REMARK  status: ('A' for Active; 'I' for Inactive)
REMARK    1  A    between atoms: N_7  and  C_5 
REMARK    2  A    between atoms: C_8  and  N_7 
REMARK    3  A    between atoms: C_10  and  C_16 
ROOT
HETATM    1  C   UNK N   1      36.457  12.927  13.644  0.00  0.00     0.148 C 
HETATM    2  S   UNK N   1      36.615  13.744  15.235  0.00  0.00    -0.079 SA
HETATM    3  C   UNK N   1      34.981  13.029  15.696  0.00  0.00     0.151 C 
HETATM    4  C   UNK N   1      34.675  12.058  14.595  0.00  0.00     0.238 C 
HETATM    5  N   UNK N   1      35.479  12.119  13.526  0.00  0.00    -0.306 N 
ATOM      6  HN  UNK N   1      35.322  11.564  12.684  1.00  0.00     0.171 HD
HETATM    7  O   UNK N   1      33.685  11.346  14.604  0.00  0.00    -0.272 OA
ENDROOT
BRANCH   1   8
HETATM    8  N   UNK N   1      37.278  13.310  12.542  0.00  0.00    -0.334 N 
HETATM    9  H   UNK N   1      38.253  13.284  12.681  0.00  0.00     0.168 HD
BRANCH   8  10
HETATM   10  C   UNK N   1      36.816  13.724  11.258  0.00  0.00     0.073 A 
HETATM   11  C   UNK N   1      36.144  14.951  11.139  0.00  0.00     0.143 A 
HETATM   12  C   UNK N   1      35.656  15.370   9.897  0.00  0.00     0.044 A 
HETATM   13  F   UNK N   1      35.941  15.729  12.231  0.00  0.00    -0.204 F 
HETATM   14  C   UNK N   1      35.839  14.573   8.766  0.00  0.00     0.003 A 
HETATM   15  C   UNK N   1      36.509  13.352   8.874  0.00  0.00     0.002 A 
HETATM   16  C   UNK N   1      36.992  12.927  10.116  0.00  0.00     0.033 A 
ENDBRANCH   8  10
ENDBRANCH   1   8
BRANCH   3  17
HETATM   17  C   UNK N   1      34.954  12.394  17.095  0.00  0.00     0.001 C 
HETATM   18  C   UNK N   1      35.910  11.228  17.272  0.00  0.00     0.011 C 
HETATM   19  C   UNK N   1      35.201  13.438  18.174  0.00  0.00     0.011 C 
ENDBRANCH   3  17
TORSDOF 3
ENDMDL
