MODEL 1
REMARK VINA RESULT:      -8.9      0.000      0.000
REMARK  6 active torsions:
REMARK  status: ('A' for Active; 'I' for Inactive)
REMARK    1  A    between atoms: C_5  and  C_24 
REMARK    2  A    between atoms: N_10  and  C_13 
REMARK    3  A    between atoms: C_13  and  C_14 
REMARK    4  A    between atoms: C_19  and  C_28 
REMARK    5  A    between atoms: C_24  and  C_25 
REMARK    6  A    between atoms: C_25  and  O_27 
ROOT
HETATM    1  C   UNK N   1      33.433  17.478   6.936  0.00  0.00     0.273 A 
HETATM    2  O   UNK N   1      34.489  17.702   6.366  0.00  0.00    -0.266 OA
HETATM    3  C   UNK N   1      32.245  17.323   6.200  0.00  0.00     0.046 A 
HETATM    4  C   UNK N   1      31.035  17.095   6.888  0.00  0.00     0.004 A 
HETATM    5  C   UNK N   1      31.055  17.012   8.283  0.00  0.00     0.047 A 
HETATM    6  C   UNK N   1      32.238  17.419   4.800  0.00  0.00     0.018 A 
HETATM    7  C   UNK N   1      31.038  17.291   4.092  0.00  0.00     0.001 A 
HETATM    8  C   UNK N   1      29.839  17.074   4.777  0.00  0.00     0.001 A 
HETATM    9  C   UNK N   1      29.836  16.975   6.170  0.00  0.00     0.014 A 
HETATM   10  N   UNK N   1      33.387  17.389   8.312  0.00  0.00    -0.251 N 
HETATM   11  N   UNK N   1      32.234  17.144   8.939  0.00  0.00    -0.298 N 
ATOM     12  HN  UNK N   1      32.241  17.053   9.955  1.00  0.00     0.187 HD
ENDROOT
BRANCH  10  13
HETATM   13  C   UNK N   1      34.583  17.632   9.126  0.00  0.00     0.217 C 
BRANCH  13  14
HETATM   14  C   UNK N   1      34.918  16.400   9.925  0.00  0.00     0.072 A 
HETATM   15  N   UNK N   1      35.103  16.387  11.277  0.00  0.00    -0.351 N 
HETATM   16  C   UNK N   1      35.614  15.177  11.703  0.00  0.00     0.051 A 
ATOM     17  HN  UNK N   1      34.890  17.172  11.895  1.00  0.00     0.166 HD
HETATM   18  C   UNK N   1      35.855  14.243  10.697  0.00  0.00     0.033 A 
HETATM   19  C   UNK N   1      35.924  14.863  13.026  0.00  0.00     0.047 A 
HETATM   20  C   UNK N   1      36.422  13.003  10.934  0.00  0.00     0.022 A 
HETATM   21  S   UNK N   1      35.389  14.931   9.291  0.00  0.00    -0.073 SA
HETATM   22  C   UNK N   1      36.750  12.685  12.257  0.00  0.00     0.017 A 
HETATM   23  C   UNK N   1      36.496  13.599  13.308  0.00  0.00     0.050 A 
BRANCH  23  24
HETATM   24  C   UNK N   1      36.821  13.224  14.722  0.00  0.00     0.417 C 
HETATM   25  F   UNK N   1      37.340  14.316  15.391  0.00  0.00    -0.166 F 
HETATM   26  F   UNK N   1      37.747  12.194  14.763  0.00  0.00    -0.166 F 
HETATM   27  F   UNK N   1      35.666  12.806  15.356  0.00  0.00    -0.166 F 
ENDBRANCH  23  24
ENDBRANCH  13  14
ENDBRANCH  10  13
BRANCH   5  28
HETATM   28  C   UNK N   1      29.799  16.836   9.085  0.00  0.00     0.169 C 
BRANCH  28  29
HETATM   29  C   UNK N   1      29.191  18.155   9.494  0.00  0.00     0.145 C 
HETATM   30  O   UNK N   1      29.893  19.094   9.837  0.00  0.00    -0.650 OA
BRANCH  29  31
HETATM   31  O   UNK N   1      27.856  18.311   9.449  0.00  0.00    -0.776 OA
HETATM   32  H   UNK N   1      27.361  18.040   8.701  0.00  0.00     0.167 HD
ENDBRANCH  29  31
ENDBRANCH  28  29
ENDBRANCH   5  28
TORSDOF 6
ENDMDL
MODEL 2
REMARK VINA RESULT:      -8.5      7.766     11.137
REMARK  6 active torsions:
REMARK  status: ('A' for Active; 'I' for Inactive)
REMARK    1  A    between atoms: C_5  and  C_24 
REMARK    2  A    between atoms: N_10  and  C_13 
REMARK    3  A    between atoms: C_13  and  C_14 
REMARK    4  A    between atoms: C_19  and  C_28 
REMARK    5  A    between atoms: C_24  and  C_25 
REMARK    6  A    between atoms: C_25  and  O_27 
ROOT
HETATM    1  C   UNK N   1      30.746  16.687   5.200  0.00  0.00     0.273 A 
HETATM    2  O   UNK N   1      31.030  16.343   4.064  0.00  0.00    -0.266 OA
HETATM    3  C   UNK N   1      31.751  17.101   6.092  0.00  0.00     0.046 A 
HETATM    4  C   UNK N   1      31.396  17.465   7.407  0.00  0.00     0.004 A 
HETATM    5  C   UNK N   1      30.050  17.421   7.781  0.00  0.00     0.047 A 
HETATM    6  C   UNK N   1      33.100  17.130   5.705  0.00  0.00     0.018 A 
HETATM    7  C   UNK N   1      34.086  17.516   6.620  0.00  0.00     0.001 A 
HETATM    8  C   UNK N   1      33.732  17.868   7.926  0.00  0.00     0.001 A 
HETATM    9  C   UNK N   1      32.393  17.844   8.319  0.00  0.00     0.014 A 
HETATM   10  N   UNK N   1      29.436  16.662   5.631  0.00  0.00    -0.251 N 
HETATM   11  N   UNK N   1      29.120  17.039   6.873  0.00  0.00    -0.298 N 
ATOM     12  HN  UNK N   1      28.138  17.039   7.148  1.00  0.00     0.187 HD
ENDROOT
BRANCH  10  13
HETATM   13  C   UNK N   1      28.365  16.155   4.766  0.00  0.00     0.217 C 
BRANCH  13  14
HETATM   14  C   UNK N   1      27.312  17.216   4.576  0.00  0.00     0.072 A 
HETATM   15  N   UNK N   1      25.969  16.979   4.592  0.00  0.00    -0.351 N 
HETATM   16  C   UNK N   1      25.257  18.086   4.173  0.00  0.00     0.051 A 
ATOM     17  HN  UNK N   1      25.544  16.096   4.877  1.00  0.00     0.166 HD
HETATM   18  C   UNK N   1      26.028  19.187   3.805  0.00  0.00     0.033 A 
HETATM   19  C   UNK N   1      23.868  18.149   4.067  0.00  0.00     0.047 A 
HETATM   20  C   UNK N   1      25.487  20.358   3.304  0.00  0.00     0.022 A 
HETATM   21  S   UNK N   1      27.590  18.774   4.047  0.00  0.00    -0.073 SA
HETATM   22  C   UNK N   1      24.095  20.425   3.180  0.00  0.00     0.017 A 
HETATM   23  C   UNK N   1      23.279  19.335   3.567  0.00  0.00     0.050 A 
BRANCH  23  24
HETATM   24  C   UNK N   1      21.787  19.441   3.461  0.00  0.00     0.417 C 
HETATM   25  F   UNK N   1      21.226  19.457   4.724  0.00  0.00    -0.166 F 
HETATM   26  F   UNK N   1      21.262  18.372   2.753  0.00  0.00    -0.166 F 
HETATM   27  F   UNK N   1      21.462  20.611   2.801  0.00  0.00    -0.166 F 
ENDBRANCH  23  24
ENDBRANCH  13  14
ENDBRANCH  10  13
BRANCH   5  28
HETATM   28  C   UNK N   1      29.606  17.732   9.181  0.00  0.00     0.169 C 
BRANCH  28  29
HETATM   29  C   UNK N   1      28.103  17.761   9.311  0.00  0.00     0.145 C 
HETATM   30  O   UNK N   1      27.491  16.806   9.764  0.00  0.00    -0.650 OA
BRANCH  29  31
HETATM   31  O   UNK N   1      27.428  18.868   8.953  0.00  0.00    -0.776 OA
HETATM   32  H   UNK N   1      27.797  19.489   8.356  0.00  0.00     0.167 HD
ENDBRANCH  29  31
ENDBRANCH  28  29
ENDBRANCH   5  28
TORSDOF 6
ENDMDL
MODEL 3
REMARK VINA RESULT:      -8.3     11.647     13.283
REMARK  6 active torsions:
REMARK  status: ('A' for Active; 'I' for Inactive)
REMARK    1  A    between atoms: C_5  and  C_24 
REMARK    2  A    between atoms: N_10  and  C_13 
REMARK    3  A    between atoms: C_13  and  C_14 
REMARK    4  A    between atoms: C_19  and  C_28 
REMARK    5  A    between atoms: C_24  and  C_25 
REMARK    6  A    between atoms: C_25  and  O_27 
ROOT
HETATM    1  C   UNK N   1      21.847  15.558   3.295  0.00  0.00     0.273 A 
HETATM    2  O   UNK N   1      22.263  14.482   3.696  0.00  0.00    -0.266 OA
HETATM    3  C   UNK N   1      20.917  15.615   2.243  0.00  0.00     0.046 A 
HETATM    4  C   UNK N   1      20.477  16.872   1.781  0.00  0.00     0.004 A 
HETATM    5  C   UNK N   1      20.966  18.028   2.398  0.00  0.00     0.047 A 
HETATM    6  C   UNK N   1      20.443  14.446   1.626  0.00  0.00     0.018 A 
HETATM    7  C   UNK N   1      19.541  14.530   0.560  0.00  0.00     0.001 A 
HETATM    8  C   UNK N   1      19.113  15.778   0.099  0.00  0.00     0.001 A 
HETATM    9  C   UNK N   1      19.578  16.945   0.707  0.00  0.00     0.014 A 
HETATM   10  N   UNK N   1      22.295  16.734   3.860  0.00  0.00    -0.251 N 
HETATM   11  N   UNK N   1      21.842  17.913   3.426  0.00  0.00    -0.298 N 
ATOM     12  HN  UNK N   1      22.169  18.762   3.887  1.00  0.00     0.187 HD
ENDROOT
BRANCH  10  13
HETATM   13  C   UNK N   1      23.330  16.729   4.900  0.00  0.00     0.217 C 
BRANCH  13  14
HETATM   14  C   UNK N   1      22.759  16.198   6.189  0.00  0.00     0.072 A 
HETATM   15  N   UNK N   1      23.283  15.150   6.888  0.00  0.00    -0.351 N 
HETATM   16  C   UNK N   1      22.433  14.746   7.900  0.00  0.00     0.051 A 
ATOM     17  HN  UNK N   1      24.186  14.718   6.688  1.00  0.00     0.166 HD
HETATM   18  C   UNK N   1      21.236  15.452   7.992  0.00  0.00     0.033 A 
HETATM   19  C   UNK N   1      22.682  13.690   8.776  0.00  0.00     0.047 A 
HETATM   20  C   UNK N   1      20.242  15.145   8.905  0.00  0.00     0.022 A 
HETATM   21  S   UNK N   1      21.272  16.599   6.829  0.00  0.00    -0.073 SA
HETATM   22  C   UNK N   1      20.476  14.077   9.779  0.00  0.00     0.017 A 
HETATM   23  C   UNK N   1      21.692  13.353   9.731  0.00  0.00     0.050 A 
BRANCH  23  24
HETATM   24  C   UNK N   1      21.938  12.237  10.701  0.00  0.00     0.417 C 
HETATM   25  F   UNK N   1      20.760  11.905  11.343  0.00  0.00    -0.166 F 
HETATM   26  F   UNK N   1      22.877  12.603  11.652  0.00  0.00    -0.166 F 
HETATM   27  F   UNK N   1      22.411  11.135  10.013  0.00  0.00    -0.166 F 
ENDBRANCH  23  24
ENDBRANCH  13  14
ENDBRANCH  10  13
BRANCH   5  28
HETATM   28  C   UNK N   1      20.592  19.401   1.918  0.00  0.00     0.169 C 
BRANCH  28  29
HETATM   29  C   UNK N   1      20.867  20.463   2.954  0.00  0.00     0.145 C 
HETATM   30  O   UNK N   1      20.424  20.368   4.088  0.00  0.00    -0.650 OA
BRANCH  29  31
HETATM   31  O   UNK N   1      21.641  21.516   2.634  0.00  0.00    -0.776 OA
HETATM   32  H   UNK N   1      22.436  21.691   3.096  0.00  0.00     0.167 HD
ENDBRANCH  29  31
ENDBRANCH  28  29
ENDBRANCH   5  28
TORSDOF 6
ENDMDL
MODEL 4
REMARK VINA RESULT:      -8.2     10.825     12.611
REMARK  6 active torsions:
REMARK  status: ('A' for Active; 'I' for Inactive)
REMARK    1  A    between atoms: C_5  and  C_24 
REMARK    2  A    between atoms: N_10  and  C_13 
REMARK    3  A    between atoms: C_13  and  C_14 
REMARK    4  A    between atoms: C_19  and  C_28 
REMARK    5  A    between atoms: C_24  and  C_25 
REMARK    6  A    between atoms: C_25  and  O_27 
ROOT
HETATM    1  C   UNK N   1      23.903  16.866   4.029  0.00  0.00     0.273 A 
HETATM    2  O   UNK N   1      24.449  15.833   4.381  0.00  0.00    -0.266 OA
HETATM    3  C   UNK N   1      24.645  18.053   3.891  0.00  0.00     0.046 A 
HETATM    4  C   UNK N   1      23.981  19.238   3.511  0.00  0.00     0.004 A 
HETATM    5  C   UNK N   1      22.606  19.194   3.265  0.00  0.00     0.047 A 
HETATM    6  C   UNK N   1      26.024  18.084   4.152  0.00  0.00     0.018 A 
HETATM    7  C   UNK N   1      26.734  19.284   4.037  0.00  0.00     0.001 A 
HETATM    8  C   UNK N   1      26.072  20.459   3.669  0.00  0.00     0.001 A 
HETATM    9  C   UNK N   1      24.701  20.437   3.405  0.00  0.00     0.014 A 
HETATM   10  N   UNK N   1      22.547  16.889   3.775  0.00  0.00    -0.251 N 
HETATM   11  N   UNK N   1      21.946  18.017   3.388  0.00  0.00    -0.298 N 
ATOM     12  HN  UNK N   1      20.948  17.990   3.178  1.00  0.00     0.187 HD
ENDROOT
BRANCH  10  13
HETATM   13  C   UNK N   1      21.718  15.698   3.991  0.00  0.00     0.217 C 
BRANCH  13  14
HETATM   14  C   UNK N   1      21.580  15.430   5.467  0.00  0.00     0.072 A 
HETATM   15  N   UNK N   1      22.226  14.426   6.129  0.00  0.00    -0.351 N 
HETATM   16  C   UNK N   1      21.742  14.281   7.415  0.00  0.00     0.051 A 
ATOM     17  HN  UNK N   1      22.970  13.856   5.726  1.00  0.00     0.166 HD
HETATM   18  C   UNK N   1      20.707  15.145   7.765  0.00  0.00     0.033 A 
HETATM   19  C   UNK N   1      22.190  13.331   8.333  0.00  0.00     0.047 A 
HETATM   20  C   UNK N   1      20.063  15.100   8.990  0.00  0.00     0.022 A 
HETATM   21  S   UNK N   1      20.435  16.108   6.474  0.00  0.00    -0.073 SA
HETATM   22  C   UNK N   1      20.495  14.140   9.912  0.00  0.00     0.017 A 
HETATM   23  C   UNK N   1      21.561  13.262   9.599  0.00  0.00     0.050 A 
BRANCH  23  24
HETATM   24  C   UNK N   1      22.034  12.266  10.615  0.00  0.00     0.417 C 
HETATM   25  F   UNK N   1      20.991  11.920  11.454  0.00  0.00    -0.166 F 
HETATM   26  F   UNK N   1      23.066  12.787  11.379  0.00  0.00    -0.166 F 
HETATM   27  F   UNK N   1      22.491  11.136   9.964  0.00  0.00    -0.166 F 
ENDBRANCH  23  24
ENDBRANCH  13  14
ENDBRANCH  10  13
BRANCH   5  28
HETATM   28  C   UNK N   1      21.823  20.427   2.920  0.00  0.00     0.169 C 
BRANCH  28  29
HETATM   29  C   UNK N   1      20.977  20.241   1.684  0.00  0.00     0.145 C 
HETATM   30  O   UNK N   1      21.342  20.671   0.599  0.00  0.00    -0.650 OA
BRANCH  29  31
HETATM   31  O   UNK N   1      19.818  19.563   1.770  0.00  0.00    -0.776 OA
HETATM   32  H   UNK N   1      19.743  18.800   2.306  0.00  0.00     0.167 HD
ENDBRANCH  29  31
ENDBRANCH  28  29
ENDBRANCH   5  28
TORSDOF 6
ENDMDL
MODEL 5
REMARK VINA RESULT:      -8.0     11.789     13.332
REMARK  6 active torsions:
REMARK  status: ('A' for Active; 'I' for Inactive)
REMARK    1  A    between atoms: C_5  and  C_24 
REMARK    2  A    between atoms: N_10  and  C_13 
REMARK    3  A    between atoms: C_13  and  C_14 
REMARK    4  A    between atoms: C_19  and  C_28 
REMARK    5  A    between atoms: C_24  and  C_25 
REMARK    6  A    between atoms: C_25  and  O_27 
ROOT
HETATM    1  C   UNK N   1      23.472  15.344   3.155  0.00  0.00     0.273 A 
HETATM    2  O   UNK N   1      24.527  15.482   3.754  0.00  0.00    -0.266 OA
HETATM    3  C   UNK N   1      23.364  14.414   2.107  0.00  0.00     0.046 A 
HETATM    4  C   UNK N   1      22.141  14.298   1.414  0.00  0.00     0.004 A 
HETATM    5  C   UNK N   1      21.064  15.100   1.803  0.00  0.00     0.047 A 
HETATM    6  C   UNK N   1      24.457  13.623   1.719  0.00  0.00     0.018 A 
HETATM    7  C   UNK N   1      24.333  12.727   0.652  0.00  0.00     0.001 A 
HETATM    8  C   UNK N   1      23.123  12.620  -0.038  0.00  0.00     0.001 A 
HETATM    9  C   UNK N   1      22.029  13.402   0.341  0.00  0.00     0.014 A 
HETATM   10  N   UNK N   1      22.374  16.109   3.490  0.00  0.00    -0.251 N 
HETATM   11  N   UNK N   1      21.217  15.961   2.839  0.00  0.00    -0.298 N 
ATOM     12  HN  UNK N   1      20.416  16.520   3.133  1.00  0.00     0.187 HD
ENDROOT
BRANCH  10  13
HETATM   13  C   UNK N   1      22.463  17.153   4.517  0.00  0.00     0.217 C 
BRANCH  13  14
HETATM   14  C   UNK N   1      22.090  16.584   5.861  0.00  0.00     0.072 A 
HETATM   15  N   UNK N   1      22.719  15.525   6.449  0.00  0.00    -0.351 N 
HETATM   16  C   UNK N   1      22.028  15.086   7.562  0.00  0.00     0.051 A 
ATOM     17  HN  UNK N   1      23.587  15.110   6.110  1.00  0.00     0.166 HD
HETATM   18  C   UNK N   1      20.850  15.775   7.845  0.00  0.00     0.033 A 
HETATM   19  C   UNK N   1      22.410  14.012   8.366  0.00  0.00     0.047 A 
HETATM   20  C   UNK N   1      20.002  15.432   8.884  0.00  0.00     0.022 A 
HETATM   21  S   UNK N   1      20.707  16.950   6.719  0.00  0.00    -0.073 SA
HETATM   22  C   UNK N   1      20.370  14.347   9.686  0.00  0.00     0.017 A 
HETATM   23  C   UNK N   1      21.572  13.639   9.444  0.00  0.00     0.050 A 
BRANCH  23  24
HETATM   24  C   UNK N   1      21.966  12.502  10.338  0.00  0.00     0.417 C 
HETATM   25  F   UNK N   1      20.876  12.092  11.084  0.00  0.00    -0.166 F 
HETATM   26  F   UNK N   1      22.981  12.879  11.203  0.00  0.00    -0.166 F 
HETATM   27  F   UNK N   1      22.413  11.449   9.563  0.00  0.00    -0.166 F 
ENDBRANCH  23  24
ENDBRANCH  13  14
ENDBRANCH  10  13
BRANCH   5  28
HETATM   28  C   UNK N   1      19.753  15.078   1.072  0.00  0.00     0.169 C 
BRANCH  28  29
HETATM   29  C   UNK N   1      19.521  16.338   0.276  0.00  0.00     0.145 C 
HETATM   30  O   UNK N   1      20.448  17.076  -0.022  0.00  0.00    -0.650 OA
BRANCH  29  31
HETATM   31  O   UNK N   1      18.277  16.639  -0.141  0.00  0.00    -0.776 OA
HETATM   32  H   UNK N   1      17.555  16.072   0.043  0.00  0.00     0.167 HD
ENDBRANCH  29  31
ENDBRANCH  28  29
ENDBRANCH   5  28
TORSDOF 6
ENDMDL
MODEL 6
REMARK VINA RESULT:      -8.0     11.633     14.863
REMARK  6 active torsions:
REMARK  status: ('A' for Active; 'I' for Inactive)
REMARK    1  A    between atoms: C_5  and  C_24 
REMARK    2  A    between atoms: N_10  and  C_13 
REMARK    3  A    between atoms: C_13  and  C_14 
REMARK    4  A    between atoms: C_19  and  C_28 
REMARK    5  A    between atoms: C_24  and  C_25 
REMARK    6  A    between atoms: C_25  and  O_27 
ROOT
HETATM    1  C   UNK N   1      20.859  13.931   9.299  0.00  0.00     0.273 A 
HETATM    2  O   UNK N   1      19.791  13.854   9.885  0.00  0.00    -0.266 OA
HETATM    3  C   UNK N   1      21.994  13.268   9.796  0.00  0.00     0.046 A 
HETATM    4  C   UNK N   1      23.221  13.399   9.114  0.00  0.00     0.004 A 
HETATM    5  C   UNK N   1      23.268  14.172   7.950  0.00  0.00     0.047 A 
HETATM    6  C   UNK N   1      21.934  12.503  10.972  0.00  0.00     0.018 A 
HETATM    7  C   UNK N   1      23.085  11.878  11.463  0.00  0.00     0.001 A 
HETATM    8  C   UNK N   1      24.301  12.017  10.790  0.00  0.00     0.001 A 
HETATM    9  C   UNK N   1      24.370  12.773   9.619  0.00  0.00     0.014 A 
HETATM   10  N   UNK N   1      20.970  14.682   8.147  0.00  0.00    -0.251 N 
HETATM   11  N   UNK N   1      22.136  14.768   7.502  0.00  0.00    -0.298 N 
ATOM     12  HN  UNK N   1      22.176  15.306   6.636  1.00  0.00     0.187 HD
ENDROOT
BRANCH  10  13
HETATM   13  C   UNK N   1      19.837  15.462   7.639  0.00  0.00     0.217 C 
BRANCH  13  14
HETATM   14  C   UNK N   1      20.181  16.055   6.297  0.00  0.00     0.072 A 
HETATM   15  N   UNK N   1      20.744  17.285   6.122  0.00  0.00    -0.351 N 
HETATM   16  C   UNK N   1      20.741  17.654   4.790  0.00  0.00     0.051 A 
ATOM     17  HN  UNK N   1      21.119  17.860   6.878  1.00  0.00     0.166 HD
HETATM   18  C   UNK N   1      20.162  16.735   3.918  0.00  0.00     0.033 A 
HETATM   19  C   UNK N   1      21.234  18.861   4.296  0.00  0.00     0.047 A 
HETATM   20  C   UNK N   1      20.018  16.965   2.561  0.00  0.00     0.022 A 
HETATM   21  S   UNK N   1      19.695  15.455   4.819  0.00  0.00    -0.073 SA
HETATM   22  C   UNK N   1      20.496  18.181   2.058  0.00  0.00     0.017 A 
HETATM   23  C   UNK N   1      21.113  19.127   2.911  0.00  0.00     0.050 A 
BRANCH  23  24
HETATM   24  C   UNK N   1      21.651  20.407   2.345  0.00  0.00     0.417 C 
HETATM   25  F   UNK N   1      22.972  20.568   2.722  0.00  0.00    -0.166 F 
HETATM   26  F   UNK N   1      20.923  21.495   2.798  0.00  0.00    -0.166 F 
HETATM   27  F   UNK N   1      21.570  20.362   0.966  0.00  0.00    -0.166 F 
ENDBRANCH  23  24
ENDBRANCH  13  14
ENDBRANCH  10  13
BRANCH   5  28
HETATM   28  C   UNK N   1      24.551  14.409   7.207  0.00  0.00     0.169 C 
BRANCH  28  29
HETATM   29  C   UNK N   1      24.345  15.223   5.954  0.00  0.00     0.145 C 
HETATM   30  O   UNK N   1      24.600  14.762   4.852  0.00  0.00    -0.650 OA
BRANCH  29  31
HETATM   31  O   UNK N   1      23.841  16.468   6.048  0.00  0.00    -0.776 OA
HETATM   32  H   UNK N   1      23.492  16.906   5.297  0.00  0.00     0.167 HD
ENDBRANCH  29  31
ENDBRANCH  28  29
ENDBRANCH   5  28
TORSDOF 6
ENDMDL
MODEL 7
REMARK VINA RESULT:      -7.8      3.022      4.448
REMARK  6 active torsions:
REMARK  status: ('A' for Active; 'I' for Inactive)
REMARK    1  A    between atoms: C_5  and  C_24 
REMARK    2  A    between atoms: N_10  and  C_13 
REMARK    3  A    between atoms: C_13  and  C_14 
REMARK    4  A    between atoms: C_19  and  C_28 
REMARK    5  A    between atoms: C_24  and  C_25 
REMARK    6  A    between atoms: C_25  and  O_27 
ROOT
HETATM    1  C   UNK N   1      28.882  17.455   4.798  0.00  0.00     0.273 A 
HETATM    2  O   UNK N   1      29.113  17.098   3.654  0.00  0.00    -0.266 OA
HETATM    3  C   UNK N   1      28.080  18.583   5.045  0.00  0.00     0.046 A 
HETATM    4  C   UNK N   1      27.856  18.989   6.376  0.00  0.00     0.004 A 
HETATM    5  C   UNK N   1      28.424  18.246   7.415  0.00  0.00     0.047 A 
HETATM    6  C   UNK N   1      27.525  19.327   3.991  0.00  0.00     0.018 A 
HETATM    7  C   UNK N   1      26.756  20.463   4.262  0.00  0.00     0.001 A 
HETATM    8  C   UNK N   1      26.543  20.869   5.582  0.00  0.00     0.001 A 
HETATM    9  C   UNK N   1      27.089  20.135   6.636  0.00  0.00     0.014 A 
HETATM   10  N   UNK N   1      29.417  16.765   5.866  0.00  0.00    -0.251 N 
HETATM   11  N   UNK N   1      29.167  17.152   7.120  0.00  0.00    -0.298 N 
ATOM     12  HN  UNK N   1      29.552  16.600   7.887  1.00  0.00     0.187 HD
ENDROOT
BRANCH  10  13
HETATM   13  C   UNK N   1      30.331  15.637   5.657  0.00  0.00     0.217 C 
BRANCH  13  14
HETATM   14  C   UNK N   1      31.565  15.811   6.504  0.00  0.00     0.072 A 
HETATM   15  N   UNK N   1      31.940  14.959   7.501  0.00  0.00    -0.351 N 
HETATM   16  C   UNK N   1      32.978  15.483   8.246  0.00  0.00     0.051 A 
ATOM     17  HN  UNK N   1      31.509  14.050   7.674  1.00  0.00     0.166 HD
HETATM   18  C   UNK N   1      33.410  16.751   7.860  0.00  0.00     0.033 A 
HETATM   19  C   UNK N   1      33.570  14.856   9.342  0.00  0.00     0.047 A 
HETATM   20  C   UNK N   1      34.396  17.453   8.531  0.00  0.00     0.022 A 
HETATM   21  S   UNK N   1      32.512  17.183   6.565  0.00  0.00    -0.073 SA
HETATM   22  C   UNK N   1      34.986  16.837   9.641  0.00  0.00     0.017 A 
HETATM   23  C   UNK N   1      34.590  15.539  10.047  0.00  0.00     0.050 A 
BRANCH  23  24
HETATM   24  C   UNK N   1      35.260  14.883  11.215  0.00  0.00     0.417 C 
HETATM   25  F   UNK N   1      36.103  13.880  10.772  0.00  0.00    -0.166 F 
HETATM   26  F   UNK N   1      34.327  14.331  12.078  0.00  0.00    -0.166 F 
HETATM   27  F   UNK N   1      35.997  15.828  11.905  0.00  0.00    -0.166 F 
ENDBRANCH  23  24
ENDBRANCH  13  14
ENDBRANCH  10  13
BRANCH   5  28
HETATM   28  C   UNK N   1      28.281  18.655   8.853  0.00  0.00     0.169 C 
BRANCH  28  29
HETATM   29  C   UNK N   1      29.569  18.497   9.622  0.00  0.00     0.145 C 
HETATM   30  O   UNK N   1      30.638  18.846   9.143  0.00  0.00    -0.650 OA
BRANCH  29  31
HETATM   31  O   UNK N   1      29.538  17.993  10.870  0.00  0.00    -0.776 OA
HETATM   32  H   UNK N   1      30.163  17.354  11.149  0.00  0.00     0.167 HD
ENDBRANCH  29  31
ENDBRANCH  28  29
ENDBRANCH   5  28
TORSDOF 6
ENDMDL
MODEL 8
REMARK VINA RESULT:      -7.8      9.488     11.605
REMARK  6 active torsions:
REMARK  status: ('A' for Active; 'I' for Inactive)
REMARK    1  A    between atoms: C_5  and  C_24 
REMARK    2  A    between atoms: N_10  and  C_13 
REMARK    3  A    between atoms: C_13  and  C_14 
REMARK    4  A    between atoms: C_19  and  C_28 
REMARK    5  A    between atoms: C_24  and  C_25 
REMARK    6  A    between atoms: C_25  and  O_27 
ROOT
HETATM    1  C   UNK N   1      25.541  17.021   5.047  0.00  0.00     0.273 A 
HETATM    2  O   UNK N   1      25.942  16.021   5.621  0.00  0.00    -0.266 OA
HETATM    3  C   UNK N   1      26.275  18.218   5.104  0.00  0.00     0.046 A 
HETATM    4  C   UNK N   1      25.772  19.365   4.456  0.00  0.00     0.004 A 
HETATM    5  C   UNK N   1      24.564  19.273   3.759  0.00  0.00     0.047 A 
HETATM    6  C   UNK N   1      27.483  18.299   5.816  0.00  0.00     0.018 A 
HETATM    7  C   UNK N   1      28.180  19.510   5.883  0.00  0.00     0.001 A 
HETATM    8  C   UNK N   1      27.674  20.647   5.247  0.00  0.00     0.001 A 
HETATM    9  C   UNK N   1      26.475  20.576   4.535  0.00  0.00     0.014 A 
HETATM   10  N   UNK N   1      24.353  16.995   4.346  0.00  0.00    -0.251 N 
HETATM   11  N   UNK N   1      23.910  18.086   3.716  0.00  0.00    -0.298 N 
ATOM     12  HN  UNK N   1      23.044  18.023   3.181  1.00  0.00     0.187 HD
ENDROOT
BRANCH  10  13
HETATM   13  C   UNK N   1      23.509  15.795   4.333  0.00  0.00     0.217 C 
BRANCH  13  14
HETATM   14  C   UNK N   1      23.004  15.508   5.723  0.00  0.00     0.072 A 
HETATM   15  N   UNK N   1      23.423  14.462   6.493  0.00  0.00    -0.351 N 
HETATM   16  C   UNK N   1      22.634  14.318   7.618  0.00  0.00     0.051 A 
ATOM     17  HN  UNK N   1      24.217  13.862   6.266  1.00  0.00     0.166 HD
HETATM   18  C   UNK N   1      21.585  15.227   7.732  0.00  0.00     0.033 A 
HETATM   19  C   UNK N   1      22.802  13.331   8.589  0.00  0.00     0.047 A 
HETATM   20  C   UNK N   1      20.660  15.192   8.761  0.00  0.00     0.022 A 
HETATM   21  S   UNK N   1      21.679  16.224   6.441  0.00  0.00    -0.073 SA
HETATM   22  C   UNK N   1      20.812  14.196   9.732  0.00  0.00     0.017 A 
HETATM   23  C   UNK N   1      21.881  13.271   9.662  0.00  0.00     0.050 A 
BRANCH  23  24
HETATM   24  C   UNK N   1      22.047  12.235  10.732  0.00  0.00     0.417 C 
HETATM   25  F   UNK N   1      22.947  12.681  11.682  0.00  0.00    -0.166 F 
HETATM   26  F   UNK N   1      22.512  11.042  10.202  0.00  0.00    -0.166 F 
HETATM   27  F   UNK N   1      20.824  12.005  11.334  0.00  0.00    -0.166 F 
ENDBRANCH  23  24
ENDBRANCH  13  14
ENDBRANCH  10  13
BRANCH   5  28
HETATM   28  C   UNK N   1      23.935  20.466   3.100  0.00  0.00     0.169 C 
BRANCH  28  29
HETATM   29  C   UNK N   1      22.447  20.299   2.913  0.00  0.00     0.145 C 
HETATM   30  O   UNK N   1      21.908  20.583   1.854  0.00  0.00    -0.650 OA
BRANCH  29  31
HETATM   31  O   UNK N   1      21.705  19.799   3.918  0.00  0.00    -0.776 OA
HETATM   32  H   UNK N   1      21.950  19.007   4.354  0.00  0.00     0.167 HD
ENDBRANCH  29  31
ENDBRANCH  28  29
ENDBRANCH   5  28
TORSDOF 6
ENDMDL
MODEL 9
REMARK VINA RESULT:      -7.8      3.212      3.986
REMARK  6 active torsions:
REMARK  status: ('A' for Active; 'I' for Inactive)
REMARK    1  A    between atoms: C_5  and  C_24 
REMARK    2  A    between atoms: N_10  and  C_13 
REMARK    3  A    between atoms: C_13  and  C_14 
REMARK    4  A    between atoms: C_19  and  C_28 
REMARK    5  A    between atoms: C_24  and  C_25 
REMARK    6  A    between atoms: C_25  and  O_27 
ROOT
HETATM    1  C   UNK N   1      35.110  14.329   5.617  0.00  0.00     0.273 A 
HETATM    2  O   UNK N   1      35.546  13.327   5.072  0.00  0.00    -0.266 OA
HETATM    3  C   UNK N   1      34.311  15.238   4.901  0.00  0.00     0.046 A 
HETATM    4  C   UNK N   1      33.847  16.402   5.548  0.00  0.00     0.004 A 
HETATM    5  C   UNK N   1      34.179  16.608   6.890  0.00  0.00     0.047 A 
HETATM    6  C   UNK N   1      33.994  15.023   3.551  0.00  0.00     0.018 A 
HETATM    7  C   UNK N   1      33.223  15.958   2.852  0.00  0.00     0.001 A 
HETATM    8  C   UNK N   1      32.771  17.115   3.493  0.00  0.00     0.001 A 
HETATM    9  C   UNK N   1      33.080  17.337   4.837  0.00  0.00     0.014 A 
HETATM   10  N   UNK N   1      35.406  14.591   6.938  0.00  0.00    -0.251 N 
HETATM   11  N   UNK N   1      34.931  15.685   7.538  0.00  0.00    -0.298 N 
ATOM     12  HN  UNK N   1      35.143  15.832   8.525  1.00  0.00     0.187 HD
ENDROOT
BRANCH  10  13
HETATM   13  C   UNK N   1      36.307  13.718   7.699  0.00  0.00     0.217 C 
BRANCH  13  14
HETATM   14  C   UNK N   1      35.535  12.991   8.769  0.00  0.00     0.072 A 
HETATM   15  N   UNK N   1      35.680  13.214  10.108  0.00  0.00    -0.351 N 
HETATM   16  C   UNK N   1      35.015  12.258  10.851  0.00  0.00     0.051 A 
ATOM     17  HN  UNK N   1      36.212  13.987  10.508  1.00  0.00     0.166 HD
HETATM   18  C   UNK N   1      34.366  11.271  10.111  0.00  0.00     0.033 A 
HETATM   19  C   UNK N   1      34.989  12.206  12.244  0.00  0.00     0.047 A 
HETATM   20  C   UNK N   1      33.702  10.203  10.690  0.00  0.00     0.022 A 
HETATM   21  S   UNK N   1      34.599  11.630   8.535  0.00  0.00    -0.073 SA
HETATM   22  C   UNK N   1      33.684  10.135  12.087  0.00  0.00     0.017 A 
HETATM   23  C   UNK N   1      34.312  11.133  12.871  0.00  0.00     0.050 A 
BRANCH  23  24
HETATM   24  C   UNK N   1      34.248  11.061  14.367  0.00  0.00     0.417 C 
HETATM   25  F   UNK N   1      35.273  10.266  14.844  0.00  0.00    -0.166 F 
HETATM   26  F   UNK N   1      33.039  10.530  14.788  0.00  0.00    -0.166 F 
HETATM   27  F   UNK N   1      34.378  12.335  14.888  0.00  0.00    -0.166 F 
ENDBRANCH  23  24
ENDBRANCH  13  14
ENDBRANCH  10  13
BRANCH   5  28
HETATM   28  C   UNK N   1      33.775  17.854   7.625  0.00  0.00     0.169 C 
BRANCH  28  29
HETATM   29  C   UNK N   1      34.822  18.299   8.616  0.00  0.00     0.145 C 
HETATM   30  O   UNK N   1      35.367  19.387   8.512  0.00  0.00    -0.650 OA
BRANCH  29  31
HETATM   31  O   UNK N   1      35.138  17.498   9.650  0.00  0.00    -0.776 OA
HETATM   32  H   UNK N   1      34.477  17.154  10.217  0.00  0.00     0.167 HD
ENDBRANCH  29  31
ENDBRANCH  28  29
ENDBRANCH   5  28
TORSDOF 6
ENDMDL
