REMARK  6 active torsions:
REMARK  status: ('A' for Active; 'I' for Inactive)
REMARK    1  A    between atoms: C_5  and  C_24 
REMARK    2  A    between atoms: N_10  and  C_13 
REMARK    3  A    between atoms: C_13  and  C_14 
REMARK    4  A    between atoms: C_19  and  C_28 
REMARK    5  A    between atoms: C_24  and  C_25 
REMARK    6  A    between atoms: C_25  and  O_27 
ROOT
HETATM    1  C   UNK N   1      -3.441   0.573  -0.364  0.00  0.00     0.273 A 
HETATM    2  O   UNK N   1      -4.064   1.580  -0.068  0.00  0.00    -0.266 OA
HETATM    3  C   UNK N   1      -4.000  -0.699  -0.151  0.00  0.00     0.046 A 
HETATM    4  C   UNK N   1      -3.245  -1.845  -0.475  0.00  0.00     0.004 A 
HETATM    5  C   UNK N   1      -1.967  -1.682  -1.017  0.00  0.00     0.047 A 
HETATM    6  C   UNK N   1      -5.281  -0.848   0.404  0.00  0.00     0.018 A 
HETATM    7  C   UNK N   1      -5.803  -2.125   0.635  0.00  0.00     0.001 A 
HETATM    8  C   UNK N   1      -5.049  -3.259   0.321  0.00  0.00     0.001 A 
HETATM    9  C   UNK N   1      -3.775  -3.121  -0.233  0.00  0.00     0.014 A 
HETATM   10  N   UNK N   1      -2.173   0.668  -0.899  0.00  0.00    -0.251 N 
HETATM   11  N   UNK N   1      -1.488  -0.431  -1.225  0.00  0.00    -0.298 N 
ATOM     12  HN  UNK N   1      -0.566  -0.324  -1.648  1.00  0.00     0.187 HD
ENDROOT
BRANCH  10  13
HETATM   13  C   UNK N   1      -1.514   1.969  -1.057  0.00  0.00     0.217 C 
BRANCH  13  14
HETATM   14  C   UNK N   1      -0.168   1.948  -0.380  0.00  0.00     0.072 A 
HETATM   15  N   UNK N   1       0.891   2.725  -0.750  0.00  0.00    -0.351 N 
HETATM   16  C   UNK N   1       2.049   2.337  -0.104  0.00  0.00     0.051 A 
ATOM     17  HN  UNK N   1       0.835   3.494  -1.419  1.00  0.00     0.166 HD
HETATM   18  C   UNK N   1       1.917   1.248   0.755  0.00  0.00     0.033 A 
HETATM   19  C   UNK N   1       3.299   2.928  -0.284  0.00  0.00     0.047 A 
HETATM   20  C   UNK N   1       2.983   0.687   1.437  0.00  0.00     0.022 A 
HETATM   21  S   UNK N   1       0.344   0.808   0.725  0.00  0.00    -0.073 SA
HETATM   22  C   UNK N   1       4.244   1.264   1.251  0.00  0.00     0.017 A 
HETATM   23  C   UNK N   1       4.411   2.387   0.405  0.00  0.00     0.050 A 
BRANCH  23  24
HETATM   24  C   UNK N   1       5.764   3.013   0.249  0.00  0.00     0.417 C 
HETATM   25  F   UNK N   1       6.119   3.038  -1.087  0.00  0.00    -0.166 F 
HETATM   26  F   UNK N   1       6.724   2.303   0.952  0.00  0.00    -0.166 F 
HETATM   27  F   UNK N   1       5.724   4.306   0.736  0.00  0.00    -0.166 F 
ENDBRANCH  23  24
ENDBRANCH  13  14
ENDBRANCH  10  13
BRANCH   5  28
HETATM   28  C   UNK N   1      -1.081  -2.854  -1.326  0.00  0.00     0.169 C 
BRANCH  28  29
HETATM   29  C   UNK N   1       0.073  -2.969  -0.361  0.00  0.00     0.145 C 
HETATM   30  O   UNK N   1       0.115  -2.293   0.656  0.00  0.00    -0.650 OA
BRANCH  29  31
HETATM   31  O   UNK N   1       1.057  -3.853  -0.607  0.00  0.00    -0.776 OA
HETATM   32  H   UNK N   1       0.867  -4.754  -0.778  0.00  0.00     0.167 HD
ENDBRANCH  29  31
ENDBRANCH  28  29
ENDBRANCH   5  28
TORSDOF 6
