MODEL 1
REMARK VINA RESULT:      -6.2      0.000      0.000
REMARK  3 active torsions:
REMARK  status: ('A' for Active; 'I' for Inactive)
REMARK    1  A    between atoms: C_3  and  O_4 
REMARK    2  A    between atoms: C_8  and  C_9 
REMARK    3  A    between atoms: C_12  and  O_13 
ROOT
HETATM    1  C   UNK N   1      33.648   9.896  12.111  0.00  0.00     0.015 A 
HETATM    2  C   UNK N   1      33.769  10.144  10.728  0.00  0.00     0.037 A 
HETATM    3  C   UNK N   1      34.437  11.297  10.259  0.00  0.00     0.067 A 
HETATM    4  C   UNK N   1      34.989  12.213  11.165  0.00  0.00     0.056 A 
HETATM    5  C   UNK N   1      34.856  11.944  12.519  0.00  0.00     0.018 A 
HETATM    6  S   UNK N   1      35.387  12.811  13.810  0.00  0.00    -0.089 SA
HETATM    7  C   UNK N   1      34.829  11.821  15.032  0.00  0.00     0.016 A 
HETATM    8  C   UNK N   1      34.202  10.814  13.005  0.00  0.00    -0.018 A 
HETATM    9  C   UNK N   1      34.176  10.725  14.428  0.00  0.00     0.032 A 
ENDROOT
BRANCH   7  10
HETATM   10  C   UNK N   1      35.007  12.081  16.471  0.00  0.00    -0.019 A 
HETATM   11  C   UNK N   1      34.989  13.403  16.938  0.00  0.00     0.015 A 
HETATM   12  C   UNK N   1      35.155  13.679  18.295  0.00  0.00     0.037 A 
HETATM   13  C   UNK N   1      35.341  12.634  19.200  0.00  0.00     0.065 A 
HETATM   14  C   UNK N   1      35.360  11.310  18.746  0.00  0.00     0.037 A 
HETATM   15  C   UNK N   1      35.194  11.032  17.383  0.00  0.00     0.015 A 
BRANCH  13  16
HETATM   16  O   UNK N   1      35.500  12.903  20.506  0.00  0.00    -0.361 OA
HETATM   17  H   UNK N   1      36.153  12.448  21.001  0.00  0.00     0.217 HD
ENDBRANCH  13  16
ENDBRANCH   7  10
BRANCH   3  18
HETATM   18  O   UNK N   1      34.543  11.519   8.939  0.00  0.00    -0.361 OA
HETATM   19  H   UNK N   1      33.872  11.995   8.489  0.00  0.00     0.217 HD
ENDBRANCH   3  18
TORSDOF 3
ENDMDL
MODEL 2
REMARK VINA RESULT:      -6.1     14.859     17.849
REMARK  3 active torsions:
REMARK  status: ('A' for Active; 'I' for Inactive)
REMARK    1  A    between atoms: C_3  and  O_4 
REMARK    2  A    between atoms: C_8  and  C_9 
REMARK    3  A    between atoms: C_12  and  O_13 
ROOT
HETATM    1  C   UNK N   1      27.014  20.254   4.133  0.00  0.00     0.015 A 
HETATM    2  C   UNK N   1      28.187  19.724   4.707  0.00  0.00     0.037 A 
HETATM    3  C   UNK N   1      28.183  18.447   5.309  0.00  0.00     0.067 A 
HETATM    4  C   UNK N   1      27.006  17.686   5.344  0.00  0.00     0.056 A 
HETATM    5  C   UNK N   1      25.865  18.231   4.773  0.00  0.00     0.018 A 
HETATM    6  S   UNK N   1      24.354  17.597   4.656  0.00  0.00    -0.089 SA
HETATM    7  C   UNK N   1      23.608  18.856   3.855  0.00  0.00     0.016 A 
HETATM    8  C   UNK N   1      25.847  19.488   4.173  0.00  0.00    -0.018 A 
HETATM    9  C   UNK N   1      24.576  19.862   3.646  0.00  0.00     0.032 A 
ENDROOT
BRANCH   7  10
HETATM   10  C   UNK N   1      22.190  18.875   3.456  0.00  0.00    -0.019 A 
HETATM   11  C   UNK N   1      21.370  17.784   3.780  0.00  0.00     0.015 A 
HETATM   12  C   UNK N   1      20.024  17.775   3.415  0.00  0.00     0.037 A 
HETATM   13  C   UNK N   1      19.484  18.857   2.720  0.00  0.00     0.065 A 
HETATM   14  C   UNK N   1      20.291  19.951   2.391  0.00  0.00     0.037 A 
HETATM   15  C   UNK N   1      21.644  19.962   2.757  0.00  0.00     0.015 A 
BRANCH  13  16
HETATM   16  O   UNK N   1      18.187  18.844   2.370  0.00  0.00    -0.361 OA
HETATM   17  H   UNK N   1      17.700  19.645   2.350  0.00  0.00     0.217 HD
ENDBRANCH  13  16
ENDBRANCH   7  10
BRANCH   3  18
HETATM   18  O   UNK N   1      29.309  17.957   5.851  0.00  0.00    -0.361 OA
HETATM   19  H   UNK N   1      29.472  18.065   6.768  0.00  0.00     0.217 HD
ENDBRANCH   3  18
TORSDOF 3
ENDMDL
MODEL 3
REMARK VINA RESULT:      -6.0     11.103     14.413
REMARK  3 active torsions:
REMARK  status: ('A' for Active; 'I' for Inactive)
REMARK    1  A    between atoms: C_3  and  O_4 
REMARK    2  A    between atoms: C_8  and  C_9 
REMARK    3  A    between atoms: C_12  and  O_13 
ROOT
HETATM    1  C   UNK N   1      30.957  16.399   5.892  0.00  0.00     0.015 A 
HETATM    2  C   UNK N   1      31.671  16.079   7.064  0.00  0.00     0.037 A 
HETATM    3  C   UNK N   1      31.256  16.577   8.319  0.00  0.00     0.067 A 
HETATM    4  C   UNK N   1      30.124  17.399   8.415  0.00  0.00     0.056 A 
HETATM    5  C   UNK N   1      29.440  17.698   7.245  0.00  0.00     0.018 A 
HETATM    6  S   UNK N   1      28.098  18.620   7.031  0.00  0.00    -0.089 SA
HETATM    7  C   UNK N   1      27.941  18.466   5.377  0.00  0.00     0.016 A 
HETATM    8  C   UNK N   1      29.831  17.219   5.998  0.00  0.00    -0.018 A 
HETATM    9  C   UNK N   1      28.994  17.642   4.924  0.00  0.00     0.032 A 
ENDROOT
BRANCH   7  10
HETATM   10  C   UNK N   1      26.879  19.093   4.571  0.00  0.00    -0.019 A 
HETATM   11  C   UNK N   1      27.201  20.163   3.723  0.00  0.00     0.015 A 
HETATM   12  C   UNK N   1      26.216  20.776   2.949  0.00  0.00     0.037 A 
HETATM   13  C   UNK N   1      24.898  20.325   3.015  0.00  0.00     0.065 A 
HETATM   14  C   UNK N   1      24.564  19.259   3.857  0.00  0.00     0.037 A 
HETATM   15  C   UNK N   1      25.553  18.642   4.636  0.00  0.00     0.015 A 
BRANCH  13  16
HETATM   16  O   UNK N   1      23.952  20.918   2.268  0.00  0.00    -0.361 OA
HETATM   17  H   UNK N   1      23.997  20.871   1.333  0.00  0.00     0.217 HD
ENDBRANCH  13  16
ENDBRANCH   7  10
BRANCH   3  18
HETATM   18  O   UNK N   1      31.946  16.263   9.427  0.00  0.00    -0.361 OA
HETATM   19  H   UNK N   1      31.490  16.007  10.205  0.00  0.00     0.217 HD
ENDBRANCH   3  18
TORSDOF 3
ENDMDL
MODEL 4
REMARK VINA RESULT:      -6.0     13.657     16.291
REMARK  3 active torsions:
REMARK  status: ('A' for Active; 'I' for Inactive)
REMARK    1  A    between atoms: C_3  and  O_4 
REMARK    2  A    between atoms: C_8  and  C_9 
REMARK    3  A    between atoms: C_12  and  O_13 
ROOT
HETATM    1  C   UNK N   1      21.765  12.671  10.691  0.00  0.00     0.015 A 
HETATM    2  C   UNK N   1      22.868  12.129  11.381  0.00  0.00     0.037 A 
HETATM    3  C   UNK N   1      24.174  12.244  10.857  0.00  0.00     0.067 A 
HETATM    4  C   UNK N   1      24.391  12.900   9.637  0.00  0.00     0.056 A 
HETATM    5  C   UNK N   1      23.288  13.424   8.979  0.00  0.00     0.018 A 
HETATM    6  S   UNK N   1      23.217  14.237   7.553  0.00  0.00    -0.089 SA
HETATM    7  C   UNK N   1      21.570  14.500   7.490  0.00  0.00     0.016 A 
HETATM    8  C   UNK N   1      21.992  13.323   9.477  0.00  0.00    -0.018 A 
HETATM    9  C   UNK N   1      21.002  13.927   8.648  0.00  0.00     0.032 A 
ENDROOT
BRANCH   7  10
HETATM   10  C   UNK N   1      20.873  15.209   6.402  0.00  0.00    -0.019 A 
HETATM   11  C   UNK N   1      21.304  16.491   6.031  0.00  0.00     0.015 A 
HETATM   12  C   UNK N   1      20.664  17.186   5.006  0.00  0.00     0.037 A 
HETATM   13  C   UNK N   1      19.585  16.605   4.340  0.00  0.00     0.065 A 
HETATM   14  C   UNK N   1      19.146  15.326   4.701  0.00  0.00     0.037 A 
HETATM   15  C   UNK N   1      19.788  14.627   5.731  0.00  0.00     0.015 A 
BRANCH  13  16
HETATM   16  O   UNK N   1      18.970  17.277   3.352  0.00  0.00    -0.361 OA
HETATM   17  H   UNK N   1      19.099  18.201   3.265  0.00  0.00     0.217 HD
ENDBRANCH  13  16
ENDBRANCH   7  10
BRANCH   3  18
HETATM   18  O   UNK N   1      25.214  11.722  11.526  0.00  0.00    -0.361 OA
HETATM   19  H   UNK N   1      25.716  11.028  11.144  0.00  0.00     0.217 HD
ENDBRANCH   3  18
TORSDOF 3
ENDMDL
MODEL 5
REMARK VINA RESULT:      -5.9     25.974     26.963
REMARK  3 active torsions:
REMARK  status: ('A' for Active; 'I' for Inactive)
REMARK    1  A    between atoms: C_3  and  O_4 
REMARK    2  A    between atoms: C_8  and  C_9 
REMARK    3  A    between atoms: C_12  and  O_13 
ROOT
HETATM    1  C   UNK N   1      25.440  22.519  -6.344  0.00  0.00     0.015 A 
HETATM    2  C   UNK N   1      25.267  21.646  -7.438  0.00  0.00     0.037 A 
HETATM    3  C   UNK N   1      25.355  22.126  -8.763  0.00  0.00     0.067 A 
HETATM    4  C   UNK N   1      25.616  23.481  -9.009  0.00  0.00     0.056 A 
HETATM    5  C   UNK N   1      25.782  24.317  -7.915  0.00  0.00     0.018 A 
HETATM    6  S   UNK N   1      26.094  25.930  -7.875  0.00  0.00    -0.089 SA
HETATM    7  C   UNK N   1      26.141  26.141  -6.220  0.00  0.00     0.016 A 
HETATM    8  C   UNK N   1      25.700  23.866  -6.600  0.00  0.00    -0.018 A 
HETATM    9  C   UNK N   1      25.901  24.886  -5.623  0.00  0.00     0.032 A 
ENDROOT
BRANCH   7  10
HETATM   10  C   UNK N   1      26.392  27.426  -5.545  0.00  0.00    -0.019 A 
HETATM   11  C   UNK N   1      25.720  27.717  -4.349  0.00  0.00     0.015 A 
HETATM   12  C   UNK N   1      25.938  28.925  -3.687  0.00  0.00     0.037 A 
HETATM   13  C   UNK N   1      26.831  29.856  -4.216  0.00  0.00     0.065 A 
HETATM   14  C   UNK N   1      27.508  29.578  -5.409  0.00  0.00     0.037 A 
HETATM   15  C   UNK N   1      27.290  28.364  -6.074  0.00  0.00     0.015 A 
BRANCH  13  16
HETATM   16  O   UNK N   1      27.039  31.019  -3.576  0.00  0.00    -0.361 OA
HETATM   17  H   UNK N   1      27.559  31.687  -3.978  0.00  0.00     0.217 HD
ENDBRANCH  13  16
ENDBRANCH   7  10
BRANCH   3  18
HETATM   18  O   UNK N   1      25.188  21.282  -9.794  0.00  0.00    -0.361 OA
HETATM   19  H   UNK N   1      24.536  21.461 -10.444  0.00  0.00     0.217 HD
ENDBRANCH   3  18
TORSDOF 3
ENDMDL
MODEL 6
REMARK VINA RESULT:      -5.9      1.580      2.672
REMARK  3 active torsions:
REMARK  status: ('A' for Active; 'I' for Inactive)
REMARK    1  A    between atoms: C_3  and  O_4 
REMARK    2  A    between atoms: C_8  and  C_9 
REMARK    3  A    between atoms: C_12  and  O_13 
ROOT
HETATM    1  C   UNK N   1      36.364  14.761  12.350  0.00  0.00     0.015 A 
HETATM    2  C   UNK N   1      36.076  14.577  10.982  0.00  0.00     0.037 A 
HETATM    3  C   UNK N   1      35.313  13.470  10.549  0.00  0.00     0.067 A 
HETATM    4  C   UNK N   1      34.831  12.537  11.477  0.00  0.00     0.056 A 
HETATM    5  C   UNK N   1      35.129  12.742  12.817  0.00  0.00     0.018 A 
HETATM    6  S   UNK N   1      34.715  11.840  14.126  0.00  0.00    -0.089 SA
HETATM    7  C   UNK N   1      35.450  12.756  15.312  0.00  0.00     0.016 A 
HETATM    8  C   UNK N   1      35.879  13.826  13.266  0.00  0.00    -0.018 A 
HETATM    9  C   UNK N   1      36.073  13.852  14.679  0.00  0.00     0.032 A 
ENDROOT
BRANCH   7  10
HETATM   10  C   UNK N   1      35.428  12.440  16.751  0.00  0.00    -0.019 A 
HETATM   11  C   UNK N   1      35.687  11.128  17.171  0.00  0.00     0.015 A 
HETATM   12  C   UNK N   1      35.673  10.800  18.526  0.00  0.00     0.037 A 
HETATM   13  C   UNK N   1      35.399  11.784  19.476  0.00  0.00     0.065 A 
HETATM   14  C   UNK N   1      35.138  13.097  19.070  0.00  0.00     0.037 A 
HETATM   15  C   UNK N   1      35.152  13.427  17.708  0.00  0.00     0.015 A 
BRANCH  13  16
HETATM   16  O   UNK N   1      35.386  11.465  20.781  0.00  0.00    -0.361 OA
HETATM   17  H   UNK N   1      35.840  10.701  21.081  0.00  0.00     0.217 HD
ENDBRANCH  13  16
ENDBRANCH   7  10
BRANCH   3  18
HETATM   18  O   UNK N   1      35.046  13.310   9.243  0.00  0.00    -0.361 OA
HETATM   19  H   UNK N   1      34.624  13.996   8.764  0.00  0.00     0.217 HD
ENDBRANCH   3  18
TORSDOF 3
ENDMDL
MODEL 7
REMARK VINA RESULT:      -5.9     26.183     27.725
REMARK  3 active torsions:
REMARK  status: ('A' for Active; 'I' for Inactive)
REMARK    1  A    between atoms: C_3  and  O_4 
REMARK    2  A    between atoms: C_8  and  C_9 
REMARK    3  A    between atoms: C_12  and  O_13 
ROOT
HETATM    1  C   UNK N   1      27.827  29.222  -6.102  0.00  0.00     0.015 A 
HETATM    2  C   UNK N   1      27.683  30.206  -5.104  0.00  0.00     0.037 A 
HETATM    3  C   UNK N   1      26.774  30.024  -4.038  0.00  0.00     0.067 A 
HETATM    4  C   UNK N   1      26.001  28.858  -3.959  0.00  0.00     0.056 A 
HETATM    5  C   UNK N   1      26.163  27.905  -4.954  0.00  0.00     0.018 A 
HETATM    6  S   UNK N   1      25.414  26.455  -5.139  0.00  0.00    -0.089 SA
HETATM    7  C   UNK N   1      26.161  25.957  -6.546  0.00  0.00     0.016 A 
HETATM    8  C   UNK N   1      27.052  28.063  -6.014  0.00  0.00    -0.018 A 
HETATM    9  C   UNK N   1      27.067  26.969  -6.929  0.00  0.00     0.032 A 
ENDROOT
BRANCH   7  10
HETATM   10  C   UNK N   1      25.894  24.681  -7.233  0.00  0.00    -0.019 A 
HETATM   11  C   UNK N   1      25.707  24.675  -8.623  0.00  0.00     0.015 A 
HETATM   12  C   UNK N   1      25.453  23.483  -9.300  0.00  0.00     0.037 A 
HETATM   13  C   UNK N   1      25.384  22.283  -8.592  0.00  0.00     0.065 A 
HETATM   14  C   UNK N   1      25.569  22.275  -7.206  0.00  0.00     0.037 A 
HETATM   15  C   UNK N   1      25.824  23.473  -6.525  0.00  0.00     0.015 A 
BRANCH  13  16
HETATM   16  O   UNK N   1      25.139  21.136  -9.247  0.00  0.00    -0.361 OA
HETATM   17  H   UNK N   1      25.442  21.025 -10.128  0.00  0.00     0.217 HD
ENDBRANCH  13  16
ENDBRANCH   7  10
BRANCH   3  18
HETATM   18  O   UNK N   1      26.648  30.971  -3.095  0.00  0.00    -0.361 OA
HETATM   19  H   UNK N   1      26.551  30.726  -2.195  0.00  0.00     0.217 HD
ENDBRANCH   3  18
TORSDOF 3
ENDMDL
MODEL 8
REMARK VINA RESULT:      -5.9      2.347      2.369
REMARK  3 active torsions:
REMARK  status: ('A' for Active; 'I' for Inactive)
REMARK    1  A    between atoms: C_3  and  O_4 
REMARK    2  A    between atoms: C_8  and  C_9 
REMARK    3  A    between atoms: C_12  and  O_13 
ROOT
HETATM    1  C   UNK N   1      37.659  10.992  12.009  0.00  0.00     0.015 A 
HETATM    2  C   UNK N   1      37.834  11.453  10.689  0.00  0.00     0.037 A 
HETATM    3  C   UNK N   1      37.452  12.764  10.326  0.00  0.00     0.067 A 
HETATM    4  C   UNK N   1      36.892  13.626  11.278  0.00  0.00     0.056 A 
HETATM    5  C   UNK N   1      36.730  13.147  12.570  0.00  0.00     0.018 A 
HETATM    6  S   UNK N   1      36.113  13.903  13.892  0.00  0.00    -0.089 SA
HETATM    7  C   UNK N   1      36.276  12.663  14.997  0.00  0.00     0.016 A 
HETATM    8  C   UNK N   1      37.100  11.859  12.950  0.00  0.00    -0.018 A 
HETATM    9  C   UNK N   1      36.851  11.564  14.323  0.00  0.00     0.032 A 
ENDROOT
BRANCH   7  10
HETATM   10  C   UNK N   1      35.880  12.743  16.414  0.00  0.00    -0.019 A 
HETATM   11  C   UNK N   1      35.688  14.001  17.004  0.00  0.00     0.015 A 
HETATM   12  C   UNK N   1      35.312  14.107  18.343  0.00  0.00     0.037 A 
HETATM   13  C   UNK N   1      35.124  12.954  19.106  0.00  0.00     0.065 A 
HETATM   14  C   UNK N   1      35.312  11.694  18.528  0.00  0.00     0.037 A 
HETATM   15  C   UNK N   1      35.690  11.586  17.183  0.00  0.00     0.015 A 
BRANCH  13  16
HETATM   16  O   UNK N   1      34.762  13.060  20.395  0.00  0.00    -0.361 OA
HETATM   17  H   UNK N   1      35.221  13.649  20.963  0.00  0.00     0.217 HD
ENDBRANCH  13  16
ENDBRANCH   7  10
BRANCH   3  18
HETATM   18  O   UNK N   1      37.626  13.188   9.064  0.00  0.00    -0.361 OA
HETATM   19  H   UNK N   1      37.739  12.564   8.373  0.00  0.00     0.217 HD
ENDBRANCH   3  18
TORSDOF 3
ENDMDL
MODEL 9
REMARK VINA RESULT:      -5.8      6.499      8.546
REMARK  3 active torsions:
REMARK  status: ('A' for Active; 'I' for Inactive)
REMARK    1  A    between atoms: C_3  and  O_4 
REMARK    2  A    between atoms: C_8  and  C_9 
REMARK    3  A    between atoms: C_12  and  O_13 
ROOT
HETATM    1  C   UNK N   1      33.214  17.456   4.913  0.00  0.00     0.015 A 
HETATM    2  C   UNK N   1      32.081  17.701   4.112  0.00  0.00     0.037 A 
HETATM    3  C   UNK N   1      30.780  17.487   4.619  0.00  0.00     0.067 A 
HETATM    4  C   UNK N   1      30.599  17.027   5.930  0.00  0.00     0.056 A 
HETATM    5  C   UNK N   1      31.732  16.794   6.697  0.00  0.00     0.018 A 
HETATM    6  S   UNK N   1      31.848  16.260   8.246  0.00  0.00    -0.089 SA
HETATM    7  C   UNK N   1      33.511  16.258   8.392  0.00  0.00     0.016 A 
HETATM    8  C   UNK N   1      33.023  16.998   6.218  0.00  0.00    -0.018 A 
HETATM    9  C   UNK N   1      34.048  16.699   7.164  0.00  0.00     0.032 A 
ENDROOT
BRANCH   7  10
HETATM   10  C   UNK N   1      34.247  15.859   9.605  0.00  0.00    -0.019 A 
HETATM   11  C   UNK N   1      35.209  16.727  10.142  0.00  0.00     0.015 A 
HETATM   12  C   UNK N   1      35.921  16.375  11.288  0.00  0.00     0.037 A 
HETATM   13  C   UNK N   1      35.678  15.151  11.910  0.00  0.00     0.065 A 
HETATM   14  C   UNK N   1      34.720  14.276  11.384  0.00  0.00     0.037 A 
HETATM   15  C   UNK N   1      34.004  14.628  10.232  0.00  0.00     0.015 A 
BRANCH  13  16
HETATM   16  O   UNK N   1      36.365  14.816  13.014  0.00  0.00    -0.361 OA
HETATM   17  H   UNK N   1      35.908  14.538  13.784  0.00  0.00     0.217 HD
ENDBRANCH  13  16
ENDBRANCH   7  10
BRANCH   3  18
HETATM   18  O   UNK N   1      29.711  17.725   3.843  0.00  0.00    -0.361 OA
HETATM   19  H   UNK N   1      28.847  17.583   4.180  0.00  0.00     0.217 HD
ENDBRANCH   3  18
TORSDOF 3
ENDMDL
