MODEL 1
REMARK VINA RESULT:      -6.9      0.000      0.000
REMARK  4 active torsions:
REMARK  status: ('A' for Active; 'I' for Inactive)
REMARK    1  A    between atoms: C_6  and  C_7 
REMARK    2  A    between atoms: C_17  and  N_18 
REMARK    3  A    between atoms: C_23  and  C_24 
REMARK    4  A    between atoms: C_24  and  N_25 
ROOT
HETATM    1  C   UNK N   1      30.657  16.702   6.067  0.00  0.00     0.017 A 
HETATM    2  C   UNK N   1      29.309  16.691   5.612  0.00  0.00     0.104 A 
HETATM    3  N   UNK N   1      28.288  17.166   6.382  0.00  0.00    -0.350 N 
ATOM      4  HN  UNK N   1      27.328  17.145   6.040  1.00  0.00     0.166 HD
HETATM    5  C   UNK N   1      28.573  17.663   7.602  0.00  0.00     0.134 A 
HETATM    6  N   UNK N   1      27.694  18.160   8.480  0.00  0.00    -0.285 N 
HETATM    7  N   UNK N   1      28.372  18.505   9.569  0.00  0.00    -0.309 N 
ATOM      8  HN  UNK N   1      27.969  18.919  10.410  1.00  0.00     0.186 HD
HETATM    9  C   UNK N   1      29.686  18.220   9.387  0.00  0.00     0.124 A 
HETATM   10  C   UNK N   1      29.826  17.685   8.120  0.00  0.00     0.054 A 
HETATM   11  C   UNK N   1      30.934  17.193   7.400  0.00  0.00     0.058 A 
HETATM   12  H   UNK N   1      26.723  18.255   8.343  0.00  0.00     0.188 HD
ENDROOT
BRANCH  11  13
HETATM   13  N   UNK N   1      32.236  17.143   8.017  0.00  0.00    -0.375 N 
HETATM   14  C   UNK N   1      32.609  15.969   8.795  0.00  0.00     0.156 C 
HETATM   15  C   UNK N   1      34.075  15.948   9.226  0.00  0.00     0.156 C 
HETATM   16  O   UNK N   1      34.479  17.249   9.593  0.00  0.00    -0.381 OA
HETATM   17  C   UNK N   1      34.560  18.027   8.423  0.00  0.00     0.188 C 
HETATM   18  C   UNK N   1      33.196  18.213   7.762  0.00  0.00     0.149 C 
BRANCH  15  19
HETATM   19  C   UNK N   1      34.990  15.316   8.159  0.00  0.00     0.144 C 
BRANCH  19  20
HETATM   20  N   UNK N   1      34.550  13.972   7.825  0.00  0.00    -0.428 N 
HETATM   21  H   UNK N   1      35.077  13.165   8.156  0.00  0.00     0.150 HD
HETATM   22  H   UNK N   1      33.713  13.836   7.257  0.00  0.00     0.150 HD
ENDBRANCH  19  20
ENDBRANCH  15  19
ENDBRANCH  11  13
BRANCH   1  23
HETATM   23  C   UNK N   1      31.696  16.292   5.073  0.00  0.00    -0.022 A 
HETATM   24  C   UNK N   1      32.049  17.126   3.999  0.00  0.00     0.012 A 
HETATM   25  C   UNK N   1      32.982  16.715   3.045  0.00  0.00     0.001 A 
HETATM   26  C   UNK N   1      33.563  15.449   3.142  0.00  0.00     0.000 A 
HETATM   27  C   UNK N   1      33.195  14.592   4.180  0.00  0.00     0.001 A 
HETATM   28  C   UNK N   1      32.256  15.004   5.131  0.00  0.00     0.012 A 
ENDBRANCH   1  23
TORSDOF 4
ENDMDL
MODEL 2
REMARK VINA RESULT:      -6.8      7.756     10.291
REMARK  4 active torsions:
REMARK  status: ('A' for Active; 'I' for Inactive)
REMARK    1  A    between atoms: C_6  and  C_7 
REMARK    2  A    between atoms: C_17  and  N_18 
REMARK    3  A    between atoms: C_23  and  C_24 
REMARK    4  A    between atoms: C_24  and  N_25 
ROOT
HETATM    1  C   UNK N   1      24.364  13.194   9.017  0.00  0.00     0.017 A 
HETATM    2  C   UNK N   1      25.180  12.785  10.108  0.00  0.00     0.104 A 
HETATM    3  N   UNK N   1      24.644  12.274  11.252  0.00  0.00    -0.350 N 
ATOM      4  HN  UNK N   1      25.246  11.990  12.025  1.00  0.00     0.166 HD
HETATM    5  C   UNK N   1      23.305  12.151  11.343  0.00  0.00     0.134 A 
HETATM    6  N   UNK N   1      22.622  11.675  12.391  0.00  0.00    -0.285 N 
HETATM    7  N   UNK N   1      21.330  11.757  12.094  0.00  0.00    -0.309 N 
ATOM      8  HN  UNK N   1      20.564  11.464  12.701  1.00  0.00     0.186 HD
HETATM    9  C   UNK N   1      21.189  12.293  10.855  0.00  0.00     0.124 A 
HETATM   10  C   UNK N   1      22.457  12.542  10.360  0.00  0.00     0.054 A 
HETATM   11  C   UNK N   1      22.926  13.101   9.155  0.00  0.00     0.058 A 
HETATM   12  H   UNK N   1      23.007  11.328  13.229  0.00  0.00     0.188 HD
ENDROOT
BRANCH  11  13
HETATM   13  N   UNK N   1      21.993  13.593   8.172  0.00  0.00    -0.375 N 
HETATM   14  C   UNK N   1      21.653  15.010   8.163  0.00  0.00     0.156 C 
HETATM   15  C   UNK N   1      20.818  15.443   6.959  0.00  0.00     0.156 C 
HETATM   16  O   UNK N   1      19.870  14.442   6.657  0.00  0.00    -0.381 OA
HETATM   17  C   UNK N   1      20.557  13.338   6.118  0.00  0.00     0.188 C 
HETATM   18  C   UNK N   1      21.495  12.693   7.136  0.00  0.00     0.149 C 
BRANCH  15  19
HETATM   19  C   UNK N   1      21.691  15.824   5.748  0.00  0.00     0.144 C 
BRANCH  19  20
HETATM   20  N   UNK N   1      22.787  16.690   6.147  0.00  0.00    -0.428 N 
HETATM   21  H   UNK N   1      22.932  17.581   5.675  0.00  0.00     0.150 HD
HETATM   22  H   UNK N   1      23.413  16.405   6.901  0.00  0.00     0.150 HD
ENDBRANCH  19  20
ENDBRANCH  15  19
ENDBRANCH  11  13
BRANCH   1  23
HETATM   23  C   UNK N   1      25.079  13.598   7.767  0.00  0.00    -0.022 A 
HETATM   24  C   UNK N   1      25.574  14.902   7.597  0.00  0.00     0.012 A 
HETATM   25  C   UNK N   1      26.193  15.286   6.406  0.00  0.00     0.001 A 
HETATM   26  C   UNK N   1      26.309  14.373   5.356  0.00  0.00     0.000 A 
HETATM   27  C   UNK N   1      25.787  13.085   5.493  0.00  0.00     0.001 A 
HETATM   28  C   UNK N   1      25.162  12.704   6.685  0.00  0.00     0.012 A 
ENDBRANCH   1  23
TORSDOF 4
ENDMDL
MODEL 3
REMARK VINA RESULT:      -6.7      2.590      4.888
REMARK  4 active torsions:
REMARK  status: ('A' for Active; 'I' for Inactive)
REMARK    1  A    between atoms: C_6  and  C_7 
REMARK    2  A    between atoms: C_17  and  N_18 
REMARK    3  A    between atoms: C_23  and  C_24 
REMARK    4  A    between atoms: C_24  and  N_25 
ROOT
HETATM    1  C   UNK N   1      31.430  17.141   6.470  0.00  0.00     0.017 A 
HETATM    2  C   UNK N   1      32.306  17.484   7.537  0.00  0.00     0.104 A 
HETATM    3  N   UNK N   1      31.834  17.903   8.746  0.00  0.00    -0.350 N 
ATOM      4  HN  UNK N   1      32.477  18.149   9.497  1.00  0.00     0.166 HD
HETATM    5  C   UNK N   1      30.500  17.988   8.927  0.00  0.00     0.134 A 
HETATM    6  N   UNK N   1      29.877  18.384  10.043  0.00  0.00    -0.285 N 
HETATM    7  N   UNK N   1      28.571  18.363   9.797  0.00  0.00    -0.309 N 
ATOM      8  HN  UNK N   1      27.840  18.611  10.464  1.00  0.00     0.186 HD
HETATM    9  C   UNK N   1      28.363  17.958   8.518  0.00  0.00     0.124 A 
HETATM   10  C   UNK N   1      29.600  17.706   7.953  0.00  0.00     0.054 A 
HETATM   11  C   UNK N   1      30.004  17.288   6.669  0.00  0.00     0.058 A 
HETATM   12  H   UNK N   1      30.306  18.643  10.890  0.00  0.00     0.188 HD
ENDROOT
BRANCH  11  13
HETATM   13  N   UNK N   1      29.025  17.089   5.630  0.00  0.00    -0.375 N 
HETATM   14  C   UNK N   1      28.360  15.797   5.519  0.00  0.00     0.156 C 
HETATM   15  C   UNK N   1      27.207  15.775   4.516  0.00  0.00     0.156 C 
HETATM   16  O   UNK N   1      27.552  16.541   3.382  0.00  0.00    -0.381 OA
HETATM   17  C   UNK N   1      27.550  17.897   3.754  0.00  0.00     0.188 C 
HETATM   18  C   UNK N   1      28.635  18.212   4.783  0.00  0.00     0.149 C 
BRANCH  15  19
HETATM   19  C   UNK N   1      25.872  16.212   5.148  0.00  0.00     0.144 C 
BRANCH  19  20
HETATM   20  N   UNK N   1      25.890  16.021   6.589  0.00  0.00    -0.428 N 
HETATM   21  H   UNK N   1      25.794  15.085   6.981  0.00  0.00     0.150 HD
HETATM   22  H   UNK N   1      25.998  16.825   7.208  0.00  0.00     0.150 HD
ENDBRANCH  19  20
ENDBRANCH  15  19
ENDBRANCH  11  13
BRANCH   1  23
HETATM   23  C   UNK N   1      32.067  16.555   5.250  0.00  0.00    -0.022 A 
HETATM   24  C   UNK N   1      32.588  15.250   5.254  0.00  0.00     0.012 A 
HETATM   25  C   UNK N   1      33.229  14.729   4.128  0.00  0.00     0.001 A 
HETATM   26  C   UNK N   1      33.376  15.516   2.985  0.00  0.00     0.000 A 
HETATM   27  C   UNK N   1      32.900  16.828   2.977  0.00  0.00     0.001 A 
HETATM   28  C   UNK N   1      32.264  17.350   4.107  0.00  0.00     0.012 A 
ENDBRANCH   1  23
TORSDOF 4
ENDMDL
MODEL 4
REMARK VINA RESULT:      -6.5      3.311      5.498
REMARK  4 active torsions:
REMARK  status: ('A' for Active; 'I' for Inactive)
REMARK    1  A    between atoms: C_6  and  C_7 
REMARK    2  A    between atoms: C_17  and  N_18 
REMARK    3  A    between atoms: C_23  and  C_24 
REMARK    4  A    between atoms: C_24  and  N_25 
ROOT
HETATM    1  C   UNK N   1      28.090  18.473   6.436  0.00  0.00     0.017 A 
HETATM    2  C   UNK N   1      27.786  19.088   7.682  0.00  0.00     0.104 A 
HETATM    3  N   UNK N   1      28.569  18.903   8.783  0.00  0.00    -0.350 N 
ATOM      4  HN  UNK N   1      28.331  19.349   9.669  1.00  0.00     0.166 HD
HETATM    5  C   UNK N   1      29.661  18.120   8.678  0.00  0.00     0.134 A 
HETATM    6  N   UNK N   1      30.527  17.833   9.657  0.00  0.00    -0.285 N 
HETATM    7  N   UNK N   1      31.435  17.003   9.155  0.00  0.00    -0.309 N 
ATOM      8  HN  UNK N   1      32.226  16.613   9.666  1.00  0.00     0.186 HD
HETATM    9  C   UNK N   1      31.141  16.755   7.853  0.00  0.00     0.124 A 
HETATM   10  C   UNK N   1      30.006  17.477   7.535  0.00  0.00     0.054 A 
HETATM   11  C   UNK N   1      29.239  17.596   6.358  0.00  0.00     0.058 A 
HETATM   12  H   UNK N   1      30.498  18.175  10.581  0.00  0.00     0.188 HD
ENDROOT
BRANCH  11  13
HETATM   13  N   UNK N   1      29.580  16.824   5.190  0.00  0.00    -0.375 N 
HETATM   14  C   UNK N   1      30.507  17.384   4.214  0.00  0.00     0.156 C 
HETATM   15  C   UNK N   1      30.943  16.397   3.132  0.00  0.00     0.156 C 
HETATM   16  O   UNK N   1      29.844  15.598   2.750  0.00  0.00    -0.381 OA
HETATM   17  C   UNK N   1      29.556  14.717   3.808  0.00  0.00     0.188 C 
HETATM   18  C   UNK N   1      29.085  15.457   5.059  0.00  0.00     0.149 C 
BRANCH  15  19
HETATM   19  C   UNK N   1      32.167  15.564   3.558  0.00  0.00     0.144 C 
BRANCH  19  20
HETATM   20  N   UNK N   1      33.283  15.776   2.651  0.00  0.00    -0.428 N 
HETATM   21  H   UNK N   1      33.241  15.418   1.698  0.00  0.00     0.150 HD
HETATM   22  H   UNK N   1      34.109  16.283   2.969  0.00  0.00     0.150 HD
ENDBRANCH  19  20
ENDBRANCH  15  19
ENDBRANCH  11  13
BRANCH   1  23
HETATM   23  C   UNK N   1      27.240  18.873   5.273  0.00  0.00    -0.022 A 
HETATM   24  C   UNK N   1      27.486  20.061   4.562  0.00  0.00     0.012 A 
HETATM   25  C   UNK N   1      26.656  20.455   3.511  0.00  0.00     0.001 A 
HETATM   26  C   UNK N   1      25.551  19.673   3.167  0.00  0.00     0.000 A 
HETATM   27  C   UNK N   1      25.269  18.512   3.888  0.00  0.00     0.001 A 
HETATM   28  C   UNK N   1      26.098  18.122   4.944  0.00  0.00     0.012 A 
ENDBRANCH   1  23
TORSDOF 4
ENDMDL
MODEL 5
REMARK VINA RESULT:      -6.4      2.065      4.366
REMARK  4 active torsions:
REMARK  status: ('A' for Active; 'I' for Inactive)
REMARK    1  A    between atoms: C_6  and  C_7 
REMARK    2  A    between atoms: C_17  and  N_18 
REMARK    3  A    between atoms: C_23  and  C_24 
REMARK    4  A    between atoms: C_24  and  N_25 
ROOT
HETATM    1  C   UNK N   1      30.944  17.525   8.116  0.00  0.00     0.017 A 
HETATM    2  C   UNK N   1      30.366  18.411   9.066  0.00  0.00     0.104 A 
HETATM    3  N   UNK N   1      29.146  18.985   8.862  0.00  0.00    -0.350 N 
ATOM      4  HN  UNK N   1      28.750  19.622   9.552  1.00  0.00     0.166 HD
HETATM    5  C   UNK N   1      28.475  18.696   7.729  0.00  0.00     0.134 A 
HETATM    6  N   UNK N   1      27.277  19.175   7.374  0.00  0.00    -0.285 N 
HETATM    7  N   UNK N   1      26.988  18.676   6.176  0.00  0.00    -0.309 N 
ATOM      8  HN  UNK N   1      26.135  18.861   5.649  1.00  0.00     0.186 HD
HETATM    9  C   UNK N   1      28.010  17.883   5.765  0.00  0.00     0.124 A 
HETATM   10  C   UNK N   1      28.967  17.883   6.762  0.00  0.00     0.054 A 
HETATM   11  C   UNK N   1      30.230  17.267   6.884  0.00  0.00     0.058 A 
HETATM   12  H   UNK N   1      26.712  19.784   7.903  0.00  0.00     0.188 HD
ENDROOT
BRANCH  11  13
HETATM   13  N   UNK N   1      30.763  16.486   5.796  0.00  0.00    -0.375 N 
HETATM   14  C   UNK N   1      31.738  17.092   4.899  0.00  0.00     0.156 C 
HETATM   15  C   UNK N   1      32.375  16.110   3.916  0.00  0.00     0.156 C 
HETATM   16  O   UNK N   1      31.400  15.199   3.459  0.00  0.00    -0.381 OA
HETATM   17  C   UNK N   1      31.076  14.335   4.522  0.00  0.00     0.188 C 
HETATM   18  C   UNK N   1      30.408  15.075   5.679  0.00  0.00     0.149 C 
BRANCH  15  19
HETATM   19  C   UNK N   1      33.614  15.411   4.508  0.00  0.00     0.144 C 
BRANCH  19  20
HETATM   20  N   UNK N   1      34.257  16.247   5.508  0.00  0.00    -0.428 N 
HETATM   21  H   UNK N   1      35.221  16.064   5.784  0.00  0.00     0.150 HD
HETATM   22  H   UNK N   1      33.743  17.018   5.934  0.00  0.00     0.150 HD
ENDBRANCH  19  20
ENDBRANCH  15  19
ENDBRANCH  11  13
BRANCH   1  23
HETATM   23  C   UNK N   1      32.214  16.848   8.526  0.00  0.00    -0.022 A 
HETATM   24  C   UNK N   1      32.229  15.498   8.916  0.00  0.00     0.012 A 
HETATM   25  C   UNK N   1      33.408  14.889   9.348  0.00  0.00     0.001 A 
HETATM   26  C   UNK N   1      34.590  15.629   9.415  0.00  0.00     0.000 A 
HETATM   27  C   UNK N   1      34.585  16.981   9.068  0.00  0.00     0.001 A 
HETATM   28  C   UNK N   1      33.401  17.591   8.641  0.00  0.00     0.012 A 
ENDBRANCH   1  23
TORSDOF 4
ENDMDL
MODEL 6
REMARK VINA RESULT:      -6.3      3.199      5.573
REMARK  4 active torsions:
REMARK  status: ('A' for Active; 'I' for Inactive)
REMARK    1  A    between atoms: C_6  and  C_7 
REMARK    2  A    between atoms: C_17  and  N_18 
REMARK    3  A    between atoms: C_23  and  C_24 
REMARK    4  A    between atoms: C_24  and  N_25 
ROOT
HETATM    1  C   UNK N   1      33.960  16.358   8.072  0.00  0.00     0.017 A 
HETATM    2  C   UNK N   1      34.047  17.350   9.088  0.00  0.00     0.104 A 
HETATM    3  N   UNK N   1      34.870  17.203  10.164  0.00  0.00    -0.350 N 
ATOM      4  HN  UNK N   1      34.915  17.923  10.885  1.00  0.00     0.166 HD
HETATM    5  C   UNK N   1      35.622  16.088  10.259  0.00  0.00     0.134 A 
HETATM    6  N   UNK N   1      36.473  15.787  11.247  0.00  0.00    -0.285 N 
HETATM    7  N   UNK N   1      36.982  14.589  10.982  0.00  0.00    -0.309 N 
ATOM      8  HN  UNK N   1      37.666  14.097  11.558  1.00  0.00     0.186 HD
HETATM    9  C   UNK N   1      36.448  14.122   9.826  0.00  0.00     0.124 A 
HETATM   10  C   UNK N   1      35.578  15.085   9.348  0.00  0.00     0.054 A 
HETATM   11  C   UNK N   1      34.737  15.146   8.218  0.00  0.00     0.058 A 
HETATM   12  H   UNK N   1      36.684  16.351  12.026  0.00  0.00     0.188 HD
ENDROOT
BRANCH  11  13
HETATM   13  N   UNK N   1      34.644  14.021   7.321  0.00  0.00    -0.375 N 
HETATM   14  C   UNK N   1      33.575  13.049   7.511  0.00  0.00     0.156 C 
HETATM   15  C   UNK N   1      33.461  12.021   6.386  0.00  0.00     0.156 C 
HETATM   16  O   UNK N   1      34.752  11.643   5.958  0.00  0.00    -0.381 OA
HETATM   17  C   UNK N   1      35.318  12.730   5.266  0.00  0.00     0.188 C 
HETATM   18  C   UNK N   1      35.546  13.934   6.177  0.00  0.00     0.149 C 
BRANCH  15  19
HETATM   19  C   UNK N   1      32.570  12.515   5.230  0.00  0.00     0.144 C 
BRANCH  19  20
HETATM   20  N   UNK N   1      31.501  13.367   5.724  0.00  0.00    -0.428 N 
HETATM   21  H   UNK N   1      30.955  13.082   6.536  0.00  0.00     0.150 HD
HETATM   22  H   UNK N   1      31.296  14.250   5.256  0.00  0.00     0.150 HD
ENDBRANCH  19  20
ENDBRANCH  15  19
ENDBRANCH  11  13
BRANCH   1  23
HETATM   23  C   UNK N   1      33.135  16.705   6.874  0.00  0.00    -0.022 A 
HETATM   24  C   UNK N   1      33.729  17.162   5.685  0.00  0.00     0.012 A 
HETATM   25  C   UNK N   1      32.950  17.535   4.588  0.00  0.00     0.001 A 
HETATM   26  C   UNK N   1      31.558  17.475   4.673  0.00  0.00     0.000 A 
HETATM   27  C   UNK N   1      30.949  17.062   5.859  0.00  0.00     0.001 A 
HETATM   28  C   UNK N   1      31.731  16.694   6.958  0.00  0.00     0.012 A 
ENDBRANCH   1  23
TORSDOF 4
ENDMDL
MODEL 7
REMARK VINA RESULT:      -6.2      9.349     12.222
REMARK  4 active torsions:
REMARK  status: ('A' for Active; 'I' for Inactive)
REMARK    1  A    between atoms: C_6  and  C_7 
REMARK    2  A    between atoms: C_17  and  N_18 
REMARK    3  A    between atoms: C_23  and  C_24 
REMARK    4  A    between atoms: C_24  and  N_25 
ROOT
HETATM    1  C   UNK N   1      36.360  10.205  17.230  0.00  0.00     0.017 A 
HETATM    2  C   UNK N   1      36.564   9.793  18.576  0.00  0.00     0.104 A 
HETATM    3  N   UNK N   1      36.229  10.591  19.630  0.00  0.00    -0.350 N 
ATOM      4  HN  UNK N   1      36.387  10.280  20.587  1.00  0.00     0.166 HD
HETATM    5  C   UNK N   1      35.687  11.800  19.381  0.00  0.00     0.134 A 
HETATM    6  N   UNK N   1      35.309  12.702  20.294  0.00  0.00    -0.285 N 
HETATM    7  N   UNK N   1      34.863  13.769  19.639  0.00  0.00    -0.309 N 
ATOM      8  HN  UNK N   1      34.502  14.619  20.070  1.00  0.00     0.186 HD
HETATM    9  C   UNK N   1      34.963  13.547  18.304  0.00  0.00     0.124 A 
HETATM   10  C   UNK N   1      35.485  12.278  18.128  0.00  0.00     0.054 A 
HETATM   11  C   UNK N   1      35.823  11.526  16.985  0.00  0.00     0.058 A 
HETATM   12  H   UNK N   1      35.353  12.595  21.272  0.00  0.00     0.188 HD
ENDROOT
BRANCH  11  13
HETATM   13  N   UNK N   1      35.684  12.103  15.671  0.00  0.00    -0.375 N 
HETATM   14  C   UNK N   1      36.716  13.007  15.179  0.00  0.00     0.156 C 
HETATM   15  C   UNK N   1      36.558  13.390  13.708  0.00  0.00     0.156 C 
HETATM   16  O   UNK N   1      35.192  13.581  13.412  0.00  0.00    -0.381 OA
HETATM   17  C   UNK N   1      34.562  12.322  13.425  0.00  0.00     0.188 C 
HETATM   18  C   UNK N   1      34.577  11.687  14.814  0.00  0.00     0.149 C 
BRANCH  15  19
HETATM   19  C   UNK N   1      37.238  12.380  12.764  0.00  0.00     0.144 C 
BRANCH  19  20
HETATM   20  N   UNK N   1      37.938  13.061  11.688  0.00  0.00    -0.428 N 
HETATM   21  H   UNK N   1      37.411  13.503  10.935  0.00  0.00     0.150 HD
HETATM   22  H   UNK N   1      38.957  13.097  11.685  0.00  0.00     0.150 HD
ENDBRANCH  19  20
ENDBRANCH  15  19
ENDBRANCH  11  13
BRANCH   1  23
HETATM   23  C   UNK N   1      36.629   9.181  16.174  0.00  0.00    -0.022 A 
HETATM   24  C   UNK N   1      37.753   9.275  15.336  0.00  0.00     0.012 A 
HETATM   25  C   UNK N   1      37.969   8.344  14.317  0.00  0.00     0.001 A 
HETATM   26  C   UNK N   1      37.050   7.315  14.109  0.00  0.00     0.000 A 
HETATM   27  C   UNK N   1      35.907   7.230  14.906  0.00  0.00     0.001 A 
HETATM   28  C   UNK N   1      35.689   8.166  15.922  0.00  0.00     0.012 A 
ENDBRANCH   1  23
TORSDOF 4
ENDMDL
MODEL 8
REMARK VINA RESULT:      -6.2     13.320     15.102
REMARK  4 active torsions:
REMARK  status: ('A' for Active; 'I' for Inactive)
REMARK    1  A    between atoms: C_6  and  C_7 
REMARK    2  A    between atoms: C_17  and  N_18 
REMARK    3  A    between atoms: C_23  and  C_24 
REMARK    4  A    between atoms: C_24  and  N_25 
ROOT
HETATM    1  C   UNK N   1      26.352  25.332  -5.572  0.00  0.00     0.017 A 
HETATM    2  C   UNK N   1      25.186  26.060  -5.936  0.00  0.00     0.104 A 
HETATM    3  N   UNK N   1      24.883  27.262  -5.368  0.00  0.00    -0.350 N 
ATOM      4  HN  UNK N   1      24.040  27.766  -5.639  1.00  0.00     0.166 HD
HETATM    5  C   UNK N   1      25.720  27.769  -4.440  0.00  0.00     0.134 A 
HETATM    6  N   UNK N   1      25.569  28.927  -3.786  0.00  0.00    -0.285 N 
HETATM    7  N   UNK N   1      26.585  29.039  -2.937  0.00  0.00    -0.309 N 
ATOM      8  HN  UNK N   1      26.741  29.823  -2.303  1.00  0.00     0.186 HD
HETATM    9  C   UNK N   1      27.382  27.946  -3.046  0.00  0.00     0.124 A 
HETATM   10  C   UNK N   1      26.837  27.127  -4.019  0.00  0.00     0.054 A 
HETATM   11  C   UNK N   1      27.210  25.871  -4.538  0.00  0.00     0.058 A 
HETATM   12  H   UNK N   1      24.839  29.576  -3.911  0.00  0.00     0.188 HD
ENDROOT
BRANCH  11  13
HETATM   13  N   UNK N   1      28.351  25.173  -3.999  0.00  0.00    -0.375 N 
HETATM   14  C   UNK N   1      28.140  23.942  -3.249  0.00  0.00     0.156 C 
HETATM   15  C   UNK N   1      29.428  23.195  -2.905  0.00  0.00     0.156 C 
HETATM   16  O   UNK N   1      30.435  24.121  -2.559  0.00  0.00    -0.381 OA
HETATM   17  C   UNK N   1      30.827  24.797  -3.729  0.00  0.00     0.188 C 
HETATM   18  C   UNK N   1      29.697  25.646  -4.308  0.00  0.00     0.149 C 
BRANCH  15  19
HETATM   19  C   UNK N   1      29.863  22.231  -4.026  0.00  0.00     0.144 C 
BRANCH  19  20
HETATM   20  N   UNK N   1      30.607  21.105  -3.487  0.00  0.00    -0.428 N 
HETATM   21  H   UNK N   1      31.059  21.181  -2.577  0.00  0.00     0.150 HD
HETATM   22  H   UNK N   1      30.677  20.239  -4.021  0.00  0.00     0.150 HD
ENDBRANCH  19  20
ENDBRANCH  15  19
ENDBRANCH  11  13
BRANCH   1  23
HETATM   23  C   UNK N   1      26.647  24.105  -6.373  0.00  0.00    -0.022 A 
HETATM   24  C   UNK N   1      27.850  23.968  -7.086  0.00  0.00     0.012 A 
HETATM   25  C   UNK N   1      28.095  22.843  -7.875  0.00  0.00     0.001 A 
HETATM   26  C   UNK N   1      27.127  21.842  -7.978  0.00  0.00     0.000 A 
HETATM   27  C   UNK N   1      25.910  21.979  -7.309  0.00  0.00     0.001 A 
HETATM   28  C   UNK N   1      25.664  23.110  -6.524  0.00  0.00     0.012 A 
ENDBRANCH   1  23
TORSDOF 4
ENDMDL
MODEL 9
REMARK VINA RESULT:      -6.2      3.262      5.870
REMARK  4 active torsions:
REMARK  status: ('A' for Active; 'I' for Inactive)
REMARK    1  A    between atoms: C_6  and  C_7 
REMARK    2  A    between atoms: C_17  and  N_18 
REMARK    3  A    between atoms: C_23  and  C_24 
REMARK    4  A    between atoms: C_24  and  N_25 
ROOT
HETATM    1  C   UNK N   1      28.215  18.400   6.371  0.00  0.00     0.017 A 
HETATM    2  C   UNK N   1      28.026  19.095   7.598  0.00  0.00     0.104 A 
HETATM    3  N   UNK N   1      28.847  18.896   8.668  0.00  0.00    -0.350 N 
ATOM      4  HN  UNK N   1      28.693  19.400   9.541  1.00  0.00     0.166 HD
HETATM    5  C   UNK N   1      29.866  18.020   8.551  0.00  0.00     0.134 A 
HETATM    6  N   UNK N   1      30.755  17.707   9.501  0.00  0.00    -0.285 N 
HETATM    7  N   UNK N   1      31.565  16.782   8.997  0.00  0.00    -0.309 N 
ATOM      8  HN  UNK N   1      32.347  16.351   9.489  1.00  0.00     0.186 HD
HETATM    9  C   UNK N   1      31.186  16.500   7.725  0.00  0.00     0.124 A 
HETATM   10  C   UNK N   1      30.097  17.300   7.426  0.00  0.00     0.054 A 
HETATM   11  C   UNK N   1      29.283  17.428   6.282  0.00  0.00     0.058 A 
HETATM   12  H   UNK N   1      30.801  18.092  10.406  0.00  0.00     0.188 HD
ENDROOT
BRANCH  11  13
HETATM   13  N   UNK N   1      29.500  16.577   5.139  0.00  0.00    -0.375 N 
HETATM   14  C   UNK N   1      28.719  15.354   5.005  0.00  0.00     0.156 C 
HETATM   15  C   UNK N   1      28.894  14.648   3.662  0.00  0.00     0.156 C 
HETATM   16  O   UNK N   1      30.245  14.722   3.260  0.00  0.00    -0.381 OA
HETATM   17  C   UNK N   1      30.519  16.053   2.895  0.00  0.00     0.188 C 
HETATM   18  C   UNK N   1      30.410  17.008   4.082  0.00  0.00     0.149 C 
BRANCH  15  19
HETATM   19  C   UNK N   1      27.922  15.178   2.590  0.00  0.00     0.144 C 
BRANCH  19  20
HETATM   20  N   UNK N   1      26.542  14.914   2.961  0.00  0.00    -0.428 N 
HETATM   21  H   UNK N   1      25.791  15.487   2.578  0.00  0.00     0.150 HD
HETATM   22  H   UNK N   1      26.325  14.155   3.607  0.00  0.00     0.150 HD
ENDBRANCH  19  20
ENDBRANCH  15  19
ENDBRANCH  11  13
BRANCH   1  23
HETATM   23  C   UNK N   1      27.341  18.817   5.231  0.00  0.00    -0.022 A 
HETATM   24  C   UNK N   1      27.553  20.030   4.553  0.00  0.00     0.012 A 
HETATM   25  C   UNK N   1      26.701  20.437   3.525  0.00  0.00     0.001 A 
HETATM   26  C   UNK N   1      25.609  19.643   3.172  0.00  0.00     0.000 A 
HETATM   27  C   UNK N   1      25.360  18.455   3.861  0.00  0.00     0.001 A 
HETATM   28  C   UNK N   1      26.211  18.051   4.894  0.00  0.00     0.012 A 
ENDBRANCH   1  23
TORSDOF 4
ENDMDL
