REMARK  1 active torsions:
REMARK  status: ('A' for Active; 'I' for Inactive)
REMARK       I    between atoms: C_2  and  N_4 
REMARK    1  A    between atoms: N_4  and  C_5 
ROOT
HETATM    1  C   UNK N   1      -1.635  -0.052  -0.089  0.00  0.00     0.152 A 
HETATM    2  N   UNK N   1      -0.787   1.003  -0.141  0.00  0.00    -0.339 N 
ATOM      3  HN  UNK N   1      -1.093   1.971  -0.235  1.00  0.00     0.168 HD
HETATM    4  C   UNK N   1       0.539   0.624  -0.053  0.00  0.00     0.034 A 
HETATM    5  C   UNK N   1       1.599   1.686  -0.069  0.00  0.00     0.060 C 
HETATM    6  C   UNK N   1       2.941   1.252   0.478  0.00  0.00     0.026 C 
HETATM    7  C   UNK N   1       3.531   0.226  -0.453  0.00  0.00     0.123 C 
HETATM    8  N   UNK N   1       3.234  -1.104   0.010  0.00  0.00    -0.356 N 
HETATM    9  C   UNK N   1       1.985  -1.597   0.215  0.00  0.00     0.260 C 
HETATM   10  O   UNK N   1       1.871  -2.775   0.509  0.00  0.00    -0.267 OA
HETATM   11  C   UNK N   1       0.745  -0.780   0.083  0.00  0.00     0.098 A 
HETATM   12  S   UNK N   1      -0.772  -1.449   0.088  0.00  0.00    -0.046 SA
HETATM   13  H   UNK N   1       3.994  -1.702   0.192  0.00  0.00     0.162 HD
ENDROOT
BRANCH   1  14
HETATM   14  N   UNK N   1      -3.050   0.087  -0.130  0.00  0.00    -0.307 N 
HETATM   15  C   UNK N   1      -3.923  -0.931  -0.342  0.00  0.00     0.219 C 
HETATM   16  C   UNK N   1      -5.386  -0.666  -0.269  0.00  0.00     0.117 C 
HETATM   17  O   UNK N   1      -3.532  -2.054  -0.620  0.00  0.00    -0.274 OA
HETATM   18  H   UNK N   1      -3.424   0.988   0.006  0.00  0.00     0.171 HD
ENDBRANCH   1  14
TORSDOF 1
