MODEL 1
REMARK VINA RESULT:      -5.8      0.000      0.000
REMARK  1 active torsions:
REMARK  status: ('A' for Active; 'I' for Inactive)
REMARK       I    between atoms: C_2  and  N_4 
REMARK    1  A    between atoms: N_4  and  C_5 
ROOT
HETATM    1  C   UNK N   1      34.789  15.346  11.170  0.00  0.00     0.152 A 
HETATM    2  N   UNK N   1      33.654  15.008  10.512  0.00  0.00    -0.339 N 
ATOM      3  HN  UNK N   1      33.069  14.213  10.765  1.00  0.00     0.168 HD
HETATM    4  C   UNK N   1      33.375  15.861   9.461  0.00  0.00     0.034 A 
HETATM    5  C   UNK N   1      32.132  15.632   8.652  0.00  0.00     0.060 C 
HETATM    6  C   UNK N   1      31.668  16.827   7.849  0.00  0.00     0.026 C 
HETATM    7  C   UNK N   1      32.681  17.105   6.770  0.00  0.00     0.123 C 
HETATM    8  N   UNK N   1      33.610  18.117   7.200  0.00  0.00    -0.356 N 
HETATM    9  C   UNK N   1      34.394  18.034   8.306  0.00  0.00     0.260 C 
HETATM   10  O   UNK N   1      35.214  18.916   8.499  0.00  0.00    -0.267 OA
HETATM   11  C   UNK N   1      34.319  16.915   9.288  0.00  0.00     0.098 A 
HETATM   12  S   UNK N   1      35.444  16.699  10.487  0.00  0.00    -0.046 SA
HETATM   13  H   UNK N   1      33.683  18.930   6.651  0.00  0.00     0.162 HD
ENDROOT
BRANCH   1  14
HETATM   14  N   UNK N   1      35.267  14.637  12.307  0.00  0.00    -0.307 N 
HETATM   15  C   UNK N   1      35.322  13.284  12.410  0.00  0.00     0.219 C 
HETATM   16  C   UNK N   1      35.931  12.668  13.620  0.00  0.00     0.117 C 
HETATM   17  O   UNK N   1      34.856  12.563  11.542  0.00  0.00    -0.274 OA
HETATM   18  H   UNK N   1      35.582  15.166  13.075  0.00  0.00     0.171 HD
ENDBRANCH   1  14
TORSDOF 1
ENDMDL
MODEL 2
REMARK VINA RESULT:      -5.5     15.014     17.948
REMARK  1 active torsions:
REMARK  status: ('A' for Active; 'I' for Inactive)
REMARK       I    between atoms: C_2  and  N_4 
REMARK    1  A    between atoms: N_4  and  C_5 
ROOT
HETATM    1  C   UNK N   1      27.982  24.637  -4.808  0.00  0.00     0.152 A 
HETATM    2  N   UNK N   1      28.413  23.710  -5.697  0.00  0.00    -0.339 N 
ATOM      3  HN  UNK N   1      28.098  23.664  -6.665  1.00  0.00     0.168 HD
HETATM    4  C   UNK N   1      29.328  22.832  -5.148  0.00  0.00     0.034 A 
HETATM    5  C   UNK N   1      29.920  21.762  -6.018  0.00  0.00     0.060 C 
HETATM    6  C   UNK N   1      31.206  21.159  -5.498  0.00  0.00     0.026 C 
HETATM    7  C   UNK N   1      30.901  20.388  -4.241  0.00  0.00     0.123 C 
HETATM    8  N   UNK N   1      31.148  21.201  -3.079  0.00  0.00    -0.356 N 
HETATM    9  C   UNK N   1      30.557  22.396  -2.824  0.00  0.00     0.260 C 
HETATM   10  O   UNK N   1      30.778  22.932  -1.752  0.00  0.00    -0.267 OA
HETATM   11  C   UNK N   1      29.638  23.080  -3.778  0.00  0.00     0.098 A 
HETATM   12  S   UNK N   1      28.732  24.403  -3.356  0.00  0.00    -0.046 SA
HETATM   13  H   UNK N   1      31.796  20.864  -2.419  0.00  0.00     0.162 HD
ENDROOT
BRANCH   1  14
HETATM   14  N   UNK N   1      27.061  25.667  -5.147  0.00  0.00    -0.307 N 
HETATM   15  C   UNK N   1      25.747  25.470  -5.427  0.00  0.00     0.219 C 
HETATM   16  C   UNK N   1      24.869  26.646  -5.677  0.00  0.00     0.117 C 
HETATM   17  O   UNK N   1      25.277  24.346  -5.508  0.00  0.00    -0.274 OA
HETATM   18  H   UNK N   1      27.401  26.590  -5.179  0.00  0.00     0.171 HD
ENDBRANCH   1  14
TORSDOF 1
ENDMDL
MODEL 3
REMARK VINA RESULT:      -5.3     19.225     20.249
REMARK  1 active torsions:
REMARK  status: ('A' for Active; 'I' for Inactive)
REMARK       I    between atoms: C_2  and  N_4 
REMARK    1  A    between atoms: N_4  and  C_5 
ROOT
HETATM    1  C   UNK N   1      26.413  23.789  -6.243  0.00  0.00     0.152 A 
HETATM    2  N   UNK N   1      25.473  24.764  -6.203  0.00  0.00    -0.339 N 
ATOM      3  HN  UNK N   1      24.535  24.662  -6.589  1.00  0.00     0.168 HD
HETATM    4  C   UNK N   1      25.925  25.912  -5.581  0.00  0.00     0.034 A 
HETATM    5  C   UNK N   1      24.987  27.075  -5.435  0.00  0.00     0.060 C 
HETATM    6  C   UNK N   1      25.383  28.081  -4.377  0.00  0.00     0.026 C 
HETATM    7  C   UNK N   1      26.647  28.770  -4.817  0.00  0.00     0.123 C 
HETATM    8  N   UNK N   1      27.798  28.132  -4.233  0.00  0.00    -0.356 N 
HETATM    9  C   UNK N   1      28.125  26.823  -4.386  0.00  0.00     0.260 C 
HETATM   10  O   UNK N   1      29.184  26.435  -3.922  0.00  0.00    -0.267 OA
HETATM   11  C   UNK N   1      27.267  25.838  -5.105  0.00  0.00     0.098 A 
HETATM   12  S   UNK N   1      27.791  24.316  -5.500  0.00  0.00    -0.046 SA
HETATM   13  H   UNK N   1      28.394  28.688  -3.680  0.00  0.00     0.162 HD
ENDROOT
BRANCH   1  14
HETATM   14  N   UNK N   1      26.175  22.504  -6.806  0.00  0.00    -0.307 N 
HETATM   15  C   UNK N   1      25.388  22.265  -7.886  0.00  0.00     0.219 C 
HETATM   16  C   UNK N   1      25.295  20.883  -8.430  0.00  0.00     0.117 C 
HETATM   17  O   UNK N   1      24.731  23.156  -8.402  0.00  0.00    -0.274 OA
HETATM   18  H   UNK N   1      26.613  21.732  -6.380  0.00  0.00     0.171 HD
ENDBRANCH   1  14
TORSDOF 1
ENDMDL
MODEL 4
REMARK VINA RESULT:      -5.3      2.331      3.063
REMARK  1 active torsions:
REMARK  status: ('A' for Active; 'I' for Inactive)
REMARK       I    between atoms: C_2  and  N_4 
REMARK    1  A    between atoms: N_4  and  C_5 
ROOT
HETATM    1  C   UNK N   1      33.791  16.947   9.029  0.00  0.00     0.152 A 
HETATM    2  N   UNK N   1      32.444  16.831   9.102  0.00  0.00    -0.339 N 
ATOM      3  HN  UNK N   1      31.939  16.639   9.967  1.00  0.00     0.168 HD
HETATM    4  C   UNK N   1      31.828  17.002   7.877  0.00  0.00     0.034 A 
HETATM    5  C   UNK N   1      30.331  16.930   7.802  0.00  0.00     0.060 C 
HETATM    6  C   UNK N   1      29.726  17.563   6.569  0.00  0.00     0.026 C 
HETATM    7  C   UNK N   1      30.125  16.750   5.365  0.00  0.00     0.123 C 
HETATM    8  N   UNK N   1      31.288  17.320   4.737  0.00  0.00    -0.356 N 
HETATM    9  C   UNK N   1      32.484  17.522   5.348  0.00  0.00     0.260 C 
HETATM   10  O   UNK N   1      33.419  17.917   4.671  0.00  0.00    -0.267 OA
HETATM   11  C   UNK N   1      32.720  17.272   6.799  0.00  0.00     0.098 A 
HETATM   12  S   UNK N   1      34.235  17.281   7.473  0.00  0.00    -0.046 SA
HETATM   13  H   UNK N   1      31.211  17.583   3.792  0.00  0.00     0.162 HD
ENDROOT
BRANCH   1  14
HETATM   14  N   UNK N   1      34.642  16.841  10.163  0.00  0.00    -0.307 N 
HETATM   15  C   UNK N   1      34.821  15.712  10.896  0.00  0.00     0.219 C 
HETATM   16  C   UNK N   1      35.813  15.711  12.006  0.00  0.00     0.117 C 
HETATM   17  O   UNK N   1      34.164  14.706  10.680  0.00  0.00    -0.274 OA
HETATM   18  H   UNK N   1      35.139  17.646  10.438  0.00  0.00     0.171 HD
ENDBRANCH   1  14
TORSDOF 1
ENDMDL
MODEL 5
REMARK VINA RESULT:      -5.2     15.369     18.237
REMARK  1 active torsions:
REMARK  status: ('A' for Active; 'I' for Inactive)
REMARK       I    between atoms: C_2  and  N_4 
REMARK    1  A    between atoms: N_4  and  C_5 
ROOT
HETATM    1  C   UNK N   1      29.175  24.310  -4.236  0.00  0.00     0.152 A 
HETATM    2  N   UNK N   1      29.333  25.615  -3.906  0.00  0.00    -0.339 N 
ATOM      3  HN  UNK N   1      30.190  25.999  -3.512  1.00  0.00     0.168 HD
HETATM    4  C   UNK N   1      28.202  26.368  -4.163  0.00  0.00     0.034 A 
HETATM    5  C   UNK N   1      28.232  27.840  -3.874  0.00  0.00     0.060 C 
HETATM    6  C   UNK N   1      27.168  28.647  -4.585  0.00  0.00     0.026 C 
HETATM    7  C   UNK N   1      25.821  28.261  -4.033  0.00  0.00     0.123 C 
HETATM    8  N   UNK N   1      25.207  27.257  -4.861  0.00  0.00    -0.356 N 
HETATM    9  C   UNK N   1      25.749  26.046  -5.150  0.00  0.00     0.260 C 
HETATM   10  O   UNK N   1      25.076  25.247  -5.779  0.00  0.00    -0.267 OA
HETATM   11  C   UNK N   1      27.117  25.633  -4.724  0.00  0.00     0.098 A 
HETATM   12  S   UNK N   1      27.666  24.075  -4.863  0.00  0.00    -0.046 SA
HETATM   13  H   UNK N   1      24.326  27.464  -5.248  0.00  0.00     0.162 HD
ENDROOT
BRANCH   1  14
HETATM   14  N   UNK N   1      30.209  23.344  -4.093  0.00  0.00    -0.307 N 
HETATM   15  C   UNK N   1      30.744  22.951  -2.908  0.00  0.00     0.219 C 
HETATM   16  C   UNK N   1      31.759  21.862  -2.891  0.00  0.00     0.117 C 
HETATM   17  O   UNK N   1      30.432  23.494  -1.860  0.00  0.00    -0.274 OA
HETATM   18  H   UNK N   1      30.562  22.928  -4.913  0.00  0.00     0.171 HD
ENDBRANCH   1  14
TORSDOF 1
ENDMDL
MODEL 6
REMARK VINA RESULT:      -5.1      5.449      8.626
REMARK  1 active torsions:
REMARK  status: ('A' for Active; 'I' for Inactive)
REMARK       I    between atoms: C_2  and  N_4 
REMARK    1  A    between atoms: N_4  and  C_5 
ROOT
HETATM    1  C   UNK N   1      27.513  18.569   6.186  0.00  0.00     0.152 A 
HETATM    2  N   UNK N   1      28.491  17.805   5.643  0.00  0.00    -0.339 N 
ATOM      3  HN  UNK N   1      28.468  17.452   4.687  1.00  0.00     0.168 HD
HETATM    4  C   UNK N   1      29.523  17.555   6.527  0.00  0.00     0.034 A 
HETATM    5  C   UNK N   1      30.695  16.743   6.062  0.00  0.00     0.060 C 
HETATM    6  C   UNK N   1      31.947  16.897   6.897  0.00  0.00     0.026 C 
HETATM    7  C   UNK N   1      31.693  16.304   8.258  0.00  0.00     0.123 C 
HETATM    8  N   UNK N   1      31.292  17.328   9.186  0.00  0.00    -0.356 N 
HETATM    9  C   UNK N   1      30.217  18.143   9.031  0.00  0.00     0.260 C 
HETATM   10  O   UNK N   1      29.929  18.899   9.944  0.00  0.00    -0.267 OA
HETATM   11  C   UNK N   1      29.359  18.152   7.811  0.00  0.00     0.098 A 
HETATM   12  S   UNK N   1      27.915  18.963   7.739  0.00  0.00    -0.046 SA
HETATM   13  H   UNK N   1      31.839  17.447   9.996  0.00  0.00     0.162 HD
ENDROOT
BRANCH   1  14
HETATM   14  N   UNK N   1      26.361  18.985   5.462  0.00  0.00    -0.307 N 
HETATM   15  C   UNK N   1      26.387  19.626   4.266  0.00  0.00     0.219 C 
HETATM   16  C   UNK N   1      25.106  19.925   3.569  0.00  0.00     0.117 C 
HETATM   17  O   UNK N   1      27.440  19.988   3.763  0.00  0.00    -0.274 OA
HETATM   18  H   UNK N   1      25.480  18.794   5.858  0.00  0.00     0.171 HD
ENDBRANCH   1  14
TORSDOF 1
ENDMDL
MODEL 7
REMARK VINA RESULT:      -5.1      7.103      8.060
REMARK  1 active torsions:
REMARK  status: ('A' for Active; 'I' for Inactive)
REMARK       I    between atoms: C_2  and  N_4 
REMARK    1  A    between atoms: N_4  and  C_5 
ROOT
HETATM    1  C   UNK N   1      30.110  16.984   4.878  0.00  0.00     0.152 A 
HETATM    2  N   UNK N   1      29.344  17.816   4.133  0.00  0.00    -0.339 N 
ATOM      3  HN  UNK N   1      29.374  17.852   3.115  1.00  0.00     0.168 HD
HETATM    4  C   UNK N   1      28.517  18.610   4.904  0.00  0.00     0.034 A 
HETATM    5  C   UNK N   1      27.586  19.567   4.219  0.00  0.00     0.060 C 
HETATM    6  C   UNK N   1      26.429  20.046   5.068  0.00  0.00     0.026 C 
HETATM    7  C   UNK N   1      26.972  20.902   6.181  0.00  0.00     0.123 C 
HETATM    8  N   UNK N   1      27.152  20.120   7.376  0.00  0.00    -0.356 N 
HETATM    9  C   UNK N   1      27.929  19.010   7.471  0.00  0.00     0.260 C 
HETATM   10  O   UNK N   1      28.077  18.502   8.570  0.00  0.00    -0.267 OA
HETATM   11  C   UNK N   1      28.627  18.391   6.308  0.00  0.00     0.098 A 
HETATM   12  S   UNK N   1      29.765  17.197   6.479  0.00  0.00    -0.046 SA
HETATM   13  H   UNK N   1      26.675  20.411   8.186  0.00  0.00     0.162 HD
ENDROOT
BRANCH   1  14
HETATM   14  N   UNK N   1      31.019  16.049   4.311  0.00  0.00    -0.307 N 
HETATM   15  C   UNK N   1      32.087  16.377   3.539  0.00  0.00     0.219 C 
HETATM   16  C   UNK N   1      33.015  15.306   3.082  0.00  0.00     0.117 C 
HETATM   17  O   UNK N   1      32.286  17.530   3.188  0.00  0.00    -0.274 OA
HETATM   18  H   UNK N   1      30.863  15.093   4.491  0.00  0.00     0.171 HD
ENDBRANCH   1  14
TORSDOF 1
ENDMDL
MODEL 8
REMARK VINA RESULT:      -5.1      4.565      5.854
REMARK  1 active torsions:
REMARK  status: ('A' for Active; 'I' for Inactive)
REMARK       I    between atoms: C_2  and  N_4 
REMARK    1  A    between atoms: N_4  and  C_5 
ROOT
HETATM    1  C   UNK N   1      31.892  16.330   6.965  0.00  0.00     0.152 A 
HETATM    2  N   UNK N   1      31.089  16.863   6.013  0.00  0.00    -0.339 N 
ATOM      3  HN  UNK N   1      31.285  16.810   5.014  1.00  0.00     0.168 HD
HETATM    4  C   UNK N   1      29.976  17.486   6.544  0.00  0.00     0.034 A 
HETATM    5  C   UNK N   1      28.976  18.102   5.611  0.00  0.00     0.060 C 
HETATM    6  C   UNK N   1      27.610  18.344   6.213  0.00  0.00     0.026 C 
HETATM    7  C   UNK N   1      27.732  19.412   7.268  0.00  0.00     0.123 C 
HETATM    8  N   UNK N   1      27.885  18.818   8.570  0.00  0.00    -0.356 N 
HETATM    9  C   UNK N   1      28.877  17.959   8.924  0.00  0.00     0.260 C 
HETATM   10  O   UNK N   1      28.950  17.611  10.090  0.00  0.00    -0.267 OA
HETATM   11  C   UNK N   1      29.892  17.434   7.966  0.00  0.00     0.098 A 
HETATM   12  S   UNK N   1      31.235  16.596   8.457  0.00  0.00    -0.046 SA
HETATM   13  H   UNK N   1      27.220  19.051   9.257  0.00  0.00     0.162 HD
ENDROOT
BRANCH   1  14
HETATM   14  N   UNK N   1      33.082  15.612   6.664  0.00  0.00    -0.307 N 
HETATM   15  C   UNK N   1      34.240  16.175   6.233  0.00  0.00     0.219 C 
HETATM   16  C   UNK N   1      35.442  15.319   6.041  0.00  0.00     0.117 C 
HETATM   17  O   UNK N   1      34.306  17.366   5.971  0.00  0.00    -0.274 OA
HETATM   18  H   UNK N   1      33.066  14.633   6.777  0.00  0.00     0.171 HD
ENDBRANCH   1  14
TORSDOF 1
ENDMDL
MODEL 9
REMARK VINA RESULT:      -5.0     11.298     13.488
REMARK  1 active torsions:
REMARK  status: ('A' for Active; 'I' for Inactive)
REMARK       I    between atoms: C_2  and  N_4 
REMARK    1  A    between atoms: N_4  and  C_5 
ROOT
HETATM    1  C   UNK N   1      24.521  19.538   3.978  0.00  0.00     0.152 A 
HETATM    2  N   UNK N   1      23.733  18.478   4.282  0.00  0.00    -0.339 N 
ATOM      3  HN  UNK N   1      24.025  17.712   4.887  1.00  0.00     0.168 HD
HETATM    4  C   UNK N   1      22.491  18.550   3.681  0.00  0.00     0.034 A 
HETATM    5  C   UNK N   1      21.494  17.460   3.944  0.00  0.00     0.060 C 
HETATM    6  C   UNK N   1      20.058  17.827   3.642  0.00  0.00     0.026 C 
HETATM    7  C   UNK N   1      19.912  18.013   2.155  0.00  0.00     0.123 C 
HETATM    8  N   UNK N   1      20.039  19.404   1.807  0.00  0.00    -0.356 N 
HETATM    9  C   UNK N   1      21.119  20.180   2.082  0.00  0.00     0.260 C 
HETATM   10  O   UNK N   1      21.141  21.316   1.638  0.00  0.00    -0.267 OA
HETATM   11  C   UNK N   1      22.288  19.713   2.881  0.00  0.00     0.098 A 
HETATM   12  S   UNK N   1      23.698  20.577   2.994  0.00  0.00    -0.046 SA
HETATM   13  H   UNK N   1      19.286  19.825   1.333  0.00  0.00     0.162 HD
ENDROOT
BRANCH   1  14
HETATM   14  N   UNK N   1      25.833  19.704   4.502  0.00  0.00    -0.307 N 
HETATM   15  C   UNK N   1      26.874  18.864   4.266  0.00  0.00     0.219 C 
HETATM   16  C   UNK N   1      28.222  19.204   4.800  0.00  0.00     0.117 C 
HETATM   17  O   UNK N   1      26.720  17.822   3.649  0.00  0.00    -0.274 OA
HETATM   18  H   UNK N   1      25.999  20.486   5.077  0.00  0.00     0.171 HD
ENDBRANCH   1  14
TORSDOF 1
ENDMDL
