MODEL 1
REMARK VINA RESULT:      -5.6      0.000      0.000
REMARK  0 active torsions:
REMARK  status: ('A' for Active; 'I' for Inactive)
ROOT
HETATM    1  O   UNK N   1      36.352  14.727  13.974  0.00  0.00    -0.267 OA
HETATM    2  C   UNK N   1      36.730  13.638  13.587  0.00  0.00     0.259 A 
HETATM    3  C   UNK N   1      36.662  12.508  14.408  0.00  0.00     0.073 A 
HETATM    4  C   UNK N   1      36.183  12.391  15.752  0.00  0.00    -0.026 A 
HETATM    5  C   UNK N   1      35.638  13.518  16.562  0.00  0.00     0.041 A 
HETATM    6  C   UNK N   1      35.183  13.150  17.983  0.00  0.00     0.005 A 
HETATM    7  C   UNK N   1      35.301  11.699  18.493  0.00  0.00     0.005 A 
HETATM    8  C   UNK N   1      35.875  10.611  17.583  0.00  0.00     0.047 A 
HETATM    9  C   UNK N   1      36.279  11.084  16.239  0.00  0.00    -0.008 A 
HETATM   10  S   UNK N   1      36.931  10.137  15.039  0.00  0.00    -0.075 SA
HETATM   11  C   UNK N   1      37.113  11.304  13.892  0.00  0.00     0.091 A 
HETATM   12  N   UNK N   1      37.610  11.176  12.642  0.00  0.00    -0.346 N 
ATOM     13  HN  UNK N   1      37.931  10.271  12.299  1.00  0.00     0.167 HD
HETATM   14  C   UNK N   1      37.671  12.284  11.850  0.00  0.00     0.184 A 
HETATM   15  N   UNK N   1      37.238  13.496  12.314  0.00  0.00    -0.319 N 
HETATM   16  H   UNK N   1      37.291  14.284  11.726  0.00  0.00     0.169 HD
ENDROOT
TORSDOF 0
ENDMDL
MODEL 2
REMARK VINA RESULT:      -5.6     10.563     12.116
REMARK  0 active torsions:
REMARK  status: ('A' for Active; 'I' for Inactive)
ROOT
HETATM    1  O   UNK N   1      27.930  17.431   6.307  0.00  0.00    -0.267 OA
HETATM    2  C   UNK N   1      28.543  17.398   7.357  0.00  0.00     0.259 A 
HETATM    3  C   UNK N   1      29.941  17.356   7.384  0.00  0.00     0.073 A 
HETATM    4  C   UNK N   1      30.869  17.341   6.295  0.00  0.00    -0.026 A 
HETATM    5  C   UNK N   1      30.490  17.371   4.853  0.00  0.00     0.041 A 
HETATM    6  C   UNK N   1      31.663  17.349   3.861  0.00  0.00     0.005 A 
HETATM    7  C   UNK N   1      33.118  17.298   4.370  0.00  0.00     0.005 A 
HETATM    8  C   UNK N   1      33.405  17.270   5.872  0.00  0.00     0.047 A 
HETATM    9  C   UNK N   1      32.198  17.295   6.729  0.00  0.00    -0.008 A 
HETATM   10  S   UNK N   1      32.194  17.274   8.390  0.00  0.00    -0.075 SA
HETATM   11  C   UNK N   1      30.564  17.321   8.621  0.00  0.00     0.091 A 
HETATM   12  N   UNK N   1      29.886  17.326   9.790  0.00  0.00    -0.346 N 
ATOM     13  HN  UNK N   1      30.382  17.300  10.681  1.00  0.00     0.167 HD
HETATM   14  C   UNK N   1      28.524  17.368   9.752  0.00  0.00     0.184 A 
HETATM   15  N   UNK N   1      27.862  17.404   8.554  0.00  0.00    -0.319 N 
HETATM   16  H   UNK N   1      26.878  17.434   8.549  0.00  0.00     0.169 HD
ENDROOT
TORSDOF 0
ENDMDL
MODEL 3
REMARK VINA RESULT:      -5.6     15.145     15.817
REMARK  0 active torsions:
REMARK  status: ('A' for Active; 'I' for Inactive)
ROOT
HETATM    1  O   UNK N   1      20.239  12.657  10.556  0.00  0.00    -0.267 OA
HETATM    2  C   UNK N   1      21.424  12.526  10.792  0.00  0.00     0.259 A 
HETATM    3  C   UNK N   1      22.399  12.907   9.864  0.00  0.00     0.073 A 
HETATM    4  C   UNK N   1      22.238  13.480   8.563  0.00  0.00    -0.026 A 
HETATM    5  C   UNK N   1      20.926  13.790   7.926  0.00  0.00     0.041 A 
HETATM    6  C   UNK N   1      21.002  14.402   6.519  0.00  0.00     0.005 A 
HETATM    7  C   UNK N   1      22.368  14.662   5.851  0.00  0.00     0.005 A 
HETATM    8  C   UNK N   1      23.661  14.309   6.588  0.00  0.00     0.047 A 
HETATM    9  C   UNK N   1      23.462  13.726   7.934  0.00  0.00    -0.008 A 
HETATM   10  S   UNK N   1      24.673  13.246   8.966  0.00  0.00    -0.075 SA
HETATM   11  C   UNK N   1      23.728  12.725  10.210  0.00  0.00     0.091 A 
HETATM   12  N   UNK N   1      24.119  12.199  11.391  0.00  0.00    -0.346 N 
ATOM     13  HN  UNK N   1      25.108  12.081  11.608  1.00  0.00     0.167 HD
HETATM   14  C   UNK N   1      23.161  11.830  12.288  0.00  0.00     0.184 A 
HETATM   15  N   UNK N   1      21.834  11.991  11.993  0.00  0.00    -0.319 N 
HETATM   16  H   UNK N   1      21.158  11.718  12.655  0.00  0.00     0.169 HD
ENDROOT
TORSDOF 0
ENDMDL
MODEL 4
REMARK VINA RESULT:      -5.5      2.206      2.348
REMARK  0 active torsions:
REMARK  status: ('A' for Active; 'I' for Inactive)
ROOT
HETATM    1  O   UNK N   1      34.654  13.373  14.049  0.00  0.00    -0.267 OA
HETATM    2  C   UNK N   1      34.723  12.159  14.034  0.00  0.00     0.259 A 
HETATM    3  C   UNK N   1      34.912  11.426  15.210  0.00  0.00     0.073 A 
HETATM    4  C   UNK N   1      35.052  11.890  16.556  0.00  0.00    -0.026 A 
HETATM    5  C   UNK N   1      35.019  13.323  16.970  0.00  0.00     0.041 A 
HETATM    6  C   UNK N   1      35.191  13.580  18.475  0.00  0.00     0.005 A 
HETATM    7  C   UNK N   1      35.381  12.403  19.454  0.00  0.00     0.005 A 
HETATM    8  C   UNK N   1      35.400  10.966  18.931  0.00  0.00     0.047 A 
HETATM    9  C   UNK N   1      35.225  10.843  17.466  0.00  0.00    -0.008 A 
HETATM   10  S   UNK N   1      35.203   9.416  16.614  0.00  0.00    -0.075 SA
HETATM   11  C   UNK N   1      34.979  10.046  15.109  0.00  0.00     0.091 A 
HETATM   12  N   UNK N   1      34.872   9.385  13.935  0.00  0.00    -0.346 N 
ATOM     13  HN  UNK N   1      34.927   8.367  13.902  1.00  0.00     0.167 HD
HETATM   14  C   UNK N   1      34.689  10.110  12.795  0.00  0.00     0.184 A 
HETATM   15  N   UNK N   1      34.615  11.476  12.843  0.00  0.00    -0.319 N 
HETATM   16  H   UNK N   1      34.482  11.980  12.008  0.00  0.00     0.169 HD
ENDROOT
TORSDOF 0
ENDMDL
MODEL 5
REMARK VINA RESULT:      -5.5     18.482     19.648
REMARK  0 active torsions:
REMARK  status: ('A' for Active; 'I' for Inactive)
ROOT
HETATM    1  O   UNK N   1      21.756  20.970   1.478  0.00  0.00    -0.267 OA
HETATM    2  C   UNK N   1      21.326  20.083   2.190  0.00  0.00     0.259 A 
HETATM    3  C   UNK N   1      22.151  19.416   3.101  0.00  0.00     0.073 A 
HETATM    4  C   UNK N   1      23.543  19.606   3.373  0.00  0.00    -0.026 A 
HETATM    5  C   UNK N   1      24.413  20.609   2.694  0.00  0.00     0.041 A 
HETATM    6  C   UNK N   1      25.879  20.630   3.152  0.00  0.00     0.005 A 
HETATM    7  C   UNK N   1      26.372  19.660   4.246  0.00  0.00     0.005 A 
HETATM    8  C   UNK N   1      25.399  18.666   4.884  0.00  0.00     0.047 A 
HETATM    9  C   UNK N   1      24.016  18.739   4.362  0.00  0.00    -0.008 A 
HETATM   10  S   UNK N   1      22.746  17.789   4.860  0.00  0.00    -0.075 SA
HETATM   11  C   UNK N   1      21.584  18.417   3.877  0.00  0.00     0.091 A 
HETATM   12  N   UNK N   1      20.283  18.064   3.791  0.00  0.00    -0.346 N 
ATOM     13  HN  UNK N   1      19.904  17.323   4.379  1.00  0.00     0.167 HD
HETATM   14  C   UNK N   1      19.488  18.721   2.899  0.00  0.00     0.184 A 
HETATM   15  N   UNK N   1      20.001  19.715   2.111  0.00  0.00    -0.319 N 
HETATM   16  H   UNK N   1      19.410  20.177   1.474  0.00  0.00     0.169 HD
ENDROOT
TORSDOF 0
ENDMDL
MODEL 6
REMARK VINA RESULT:      -5.4      7.223      9.835
REMARK  0 active torsions:
REMARK  status: ('A' for Active; 'I' for Inactive)
ROOT
HETATM    1  O   UNK N   1      35.661  13.837   8.422  0.00  0.00    -0.267 OA
HETATM    2  C   UNK N   1      35.417  14.899   8.962  0.00  0.00     0.259 A 
HETATM    3  C   UNK N   1      34.793  15.942   8.271  0.00  0.00     0.073 A 
HETATM    4  C   UNK N   1      34.345  15.990   6.912  0.00  0.00    -0.026 A 
HETATM    5  C   UNK N   1      34.472  14.871   5.935  0.00  0.00     0.041 A 
HETATM    6  C   UNK N   1      33.918  15.156   4.530  0.00  0.00     0.005 A 
HETATM    7  C   UNK N   1      33.281  16.521   4.201  0.00  0.00     0.005 A 
HETATM    8  C   UNK N   1      33.197  17.607   5.275  0.00  0.00     0.047 A 
HETATM    9  C   UNK N   1      33.763  17.219   6.587  0.00  0.00    -0.008 A 
HETATM   10  S   UNK N   1      33.814  18.184   7.939  0.00  0.00    -0.075 SA
HETATM   11  C   UNK N   1      34.550  17.120   8.958  0.00  0.00     0.091 A 
HETATM   12  N   UNK N   1      34.888  17.303  10.253  0.00  0.00    -0.346 N 
ATOM     13  HN  UNK N   1      34.693  18.186  10.724  1.00  0.00     0.167 HD
HETATM   14  C   UNK N   1      35.497  16.279  10.918  0.00  0.00     0.184 A 
HETATM   15  N   UNK N   1      35.758  15.096  10.282  0.00  0.00    -0.319 N 
HETATM   16  H   UNK N   1      36.198  14.369  10.780  0.00  0.00     0.169 HD
ENDROOT
TORSDOF 0
ENDMDL
MODEL 7
REMARK VINA RESULT:      -5.3     16.098     16.463
REMARK  0 active torsions:
REMARK  status: ('A' for Active; 'I' for Inactive)
ROOT
HETATM    1  O   UNK N   1      19.146  15.061   9.456  0.00  0.00    -0.267 OA
HETATM    2  C   UNK N   1      19.965  15.332   8.599  0.00  0.00     0.259 A 
HETATM    3  C   UNK N   1      21.203  14.683   8.542  0.00  0.00     0.073 A 
HETATM    4  C   UNK N   1      21.730  13.659   9.392  0.00  0.00    -0.026 A 
HETATM    5  C   UNK N   1      21.013  13.067  10.557  0.00  0.00     0.041 A 
HETATM    6  C   UNK N   1      21.781  11.980  11.323  0.00  0.00     0.005 A 
HETATM    7  C   UNK N   1      23.198  11.561  10.879  0.00  0.00     0.005 A 
HETATM    8  C   UNK N   1      23.850  12.229   9.667  0.00  0.00     0.047 A 
HETATM    9  C   UNK N   1      23.015  13.260   9.011  0.00  0.00    -0.008 A 
HETATM   10  S   UNK N   1      23.454  14.152   7.679  0.00  0.00    -0.075 SA
HETATM   11  C   UNK N   1      22.081  15.049   7.535  0.00  0.00     0.091 A 
HETATM   12  N   UNK N   1      21.795  15.997   6.615  0.00  0.00    -0.346 N 
ATOM     13  HN  UNK N   1      22.469  16.238   5.888  1.00  0.00     0.167 HD
HETATM   14  C   UNK N   1      20.586  16.623   6.680  0.00  0.00     0.184 A 
HETATM   15  N   UNK N   1      19.685  16.296   7.656  0.00  0.00    -0.319 N 
HETATM   16  H   UNK N   1      18.817  16.761   7.686  0.00  0.00     0.169 HD
ENDROOT
TORSDOF 0
ENDMDL
MODEL 8
REMARK VINA RESULT:      -5.3     10.692     12.273
REMARK  0 active torsions:
REMARK  status: ('A' for Active; 'I' for Inactive)
ROOT
HETATM    1  O   UNK N   1      32.354  16.957   3.042  0.00  0.00    -0.267 OA
HETATM    2  C   UNK N   1      31.224  16.863   3.482  0.00  0.00     0.259 A 
HETATM    3  C   UNK N   1      30.962  16.987   4.851  0.00  0.00     0.073 A 
HETATM    4  C   UNK N   1      31.870  17.228   5.930  0.00  0.00    -0.026 A 
HETATM    5  C   UNK N   1      33.344  17.399   5.780  0.00  0.00     0.041 A 
HETATM    6  C   UNK N   1      34.116  17.648   7.084  0.00  0.00     0.005 A 
HETATM    7  C   UNK N   1      33.374  17.709   8.435  0.00  0.00     0.005 A 
HETATM    8  C   UNK N   1      31.856  17.521   8.485  0.00  0.00     0.047 A 
HETATM    9  C   UNK N   1      31.222  17.288   7.168  0.00  0.00    -0.008 A 
HETATM   10  S   UNK N   1      29.598  17.051   6.908  0.00  0.00    -0.075 SA
HETATM   11  C   UNK N   1      29.647  16.868   5.272  0.00  0.00     0.091 A 
HETATM   12  N   UNK N   1      28.619  16.639   4.426  0.00  0.00    -0.346 N 
ATOM     13  HN  UNK N   1      27.664  16.557   4.775  1.00  0.00     0.167 HD
HETATM   14  C   UNK N   1      28.886  16.519   3.094  0.00  0.00     0.184 A 
HETATM   15  N   UNK N   1      30.168  16.630   2.629  0.00  0.00    -0.319 N 
HETATM   16  H   UNK N   1      30.339  16.540   1.664  0.00  0.00     0.169 HD
ENDROOT
TORSDOF 0
ENDMDL
MODEL 9
REMARK VINA RESULT:      -5.3     10.775     12.484
REMARK  0 active torsions:
REMARK  status: ('A' for Active; 'I' for Inactive)
ROOT
HETATM    1  O   UNK N   1      31.854  17.800   8.747  0.00  0.00    -0.267 OA
HETATM    2  C   UNK N   1      30.661  17.651   8.563  0.00  0.00     0.259 A 
HETATM    3  C   UNK N   1      30.149  17.365   7.294  0.00  0.00     0.073 A 
HETATM    4  C   UNK N   1      30.842  17.200   6.052  0.00  0.00    -0.026 A 
HETATM    5  C   UNK N   1      32.319  17.310   5.881  0.00  0.00     0.041 A 
HETATM    6  C   UNK N   1      32.836  17.092   4.451  0.00  0.00     0.005 A 
HETATM    7  C   UNK N   1      31.855  16.784   3.301  0.00  0.00     0.005 A 
HETATM    8  C   UNK N   1      30.353  16.691   3.579  0.00  0.00     0.047 A 
HETATM    9  C   UNK N   1      29.974  16.919   4.992  0.00  0.00    -0.008 A 
HETATM   10  S   UNK N   1      28.425  16.882   5.593  0.00  0.00    -0.075 SA
HETATM   11  C   UNK N   1      28.778  17.210   7.168  0.00  0.00     0.091 A 
HETATM   12  N   UNK N   1      27.923  17.322   8.208  0.00  0.00    -0.346 N 
ATOM     13  HN  UNK N   1      26.920  17.201   8.075  1.00  0.00     0.167 HD
HETATM   14  C   UNK N   1      28.433  17.601   9.442  0.00  0.00     0.184 A 
HETATM   15  N   UNK N   1      29.781  17.763   9.617  0.00  0.00    -0.319 N 
HETATM   16  H   UNK N   1      30.128  17.964  10.516  0.00  0.00     0.169 HD
ENDROOT
TORSDOF 0
ENDMDL
