REMARK  0 active torsions:
REMARK  status: ('A' for Active; 'I' for Inactive)
ROOT
HETATM    1  O   UNK N   1      -1.407   2.198  -0.000  0.00  0.00    -0.267 OA
HETATM    2  C   UNK N   1      -1.731   1.026  -0.000  0.00  0.00     0.259 A 
HETATM    3  C   UNK N   1      -0.775   0.005  -0.000  0.00  0.00     0.073 A 
HETATM    4  C   UNK N   1       0.653   0.100  -0.000  0.00  0.00    -0.026 A 
HETATM    5  C   UNK N   1       1.421   1.378  -0.000  0.00  0.00     0.041 A 
HETATM    6  C   UNK N   1       2.950   1.230   0.000  0.00  0.00     0.005 A 
HETATM    7  C   UNK N   1       3.602  -0.168  -0.000  0.00  0.00     0.005 A 
HETATM    8  C   UNK N   1       2.726  -1.422   0.000  0.00  0.00     0.047 A 
HETATM    9  C   UNK N   1       1.270  -1.155   0.000  0.00  0.00    -0.008 A 
HETATM   10  S   UNK N   1       0.077  -2.312   0.000  0.00  0.00    -0.075 SA
HETATM   11  C   UNK N   1      -1.226  -1.305   0.000  0.00  0.00     0.091 A 
HETATM   12  N   UNK N   1      -2.536  -1.635   0.000  0.00  0.00    -0.346 N 
ATOM     13  HN  UNK N   1      -2.828  -2.612   0.000  1.00  0.00     0.167 HD
HETATM   14  C   UNK N   1      -3.460  -0.632  -0.000  0.00  0.00     0.184 A 
HETATM   15  N   UNK N   1      -3.064   0.678  -0.000  0.00  0.00    -0.319 N 
HETATM   16  H   UNK N   1      -3.747   1.387  -0.000  0.00  0.00     0.169 HD
ENDROOT
TORSDOF 0
