REMARK  5 active torsions:
REMARK  status: ('A' for Active; 'I' for Inactive)
REMARK    1  A    between atoms: C_2  and  N_5 
REMARK    2  A    between atoms: N_5  and  C_6 
REMARK    3  A    between atoms: C_10  and  N_11 
REMARK    4  A    between atoms: C_12  and  C_13 
REMARK    5  A    between atoms: C_13  and  C_15 
ROOT
HETATM    1  C   UNK N   1       0.037   2.029   0.424  0.00  0.00     0.147 A 
HETATM    2  S   UNK N   1       1.408   1.114   0.365  0.00  0.00    -0.046 SA
HETATM    3  N   UNK N   1      -1.052   1.228   0.439  0.00  0.00    -0.322 N 
ATOM      4  HN  UNK N   1      -2.011   1.572   0.491  1.00  0.00     0.169 HD
HETATM    5  C   UNK N   1      -0.719  -0.107   0.377  0.00  0.00     0.122 A 
HETATM    6  C   UNK N   1       0.675  -0.377   0.303  0.00  0.00     0.102 A 
ENDROOT
BRANCH   6   7
HETATM    7  C   UNK N   1       1.424  -1.667   0.238  0.00  0.00     0.203 C 
HETATM    8  O   UNK N   1       2.619  -1.644   0.503  0.00  0.00    -0.286 OA
BRANCH   7   9
HETATM    9  C   UNK N   1       0.818  -2.971  -0.151  0.00  0.00     0.015 A 
HETATM   10  C   UNK N   1       1.508  -4.164   0.120  0.00  0.00     0.015 A 
HETATM   11  C   UNK N   1       0.964  -5.399  -0.246  0.00  0.00     0.001 A 
HETATM   12  C   UNK N   1      -0.265  -5.454  -0.908  0.00  0.00     0.000 A 
HETATM   13  C   UNK N   1      -0.944  -4.274  -1.211  0.00  0.00     0.001 A 
HETATM   14  C   UNK N   1      -0.402  -3.043  -0.836  0.00  0.00     0.015 A 
ENDBRANCH   7   9
ENDBRANCH   6   7
BRANCH   5  15
HETATM   15  N   UNK N   1      -1.716  -1.092   0.464  0.00  0.00    -0.384 N 
HETATM   16  H   UNK N   1      -2.664  -0.832   0.525  0.00  0.00     0.157 HD
HETATM   17  H   UNK N   1      -1.467  -2.045   0.464  0.00  0.00     0.157 HD
ENDBRANCH   5  15
BRANCH   1  18
HETATM   18  N   UNK N   1       0.002   3.449   0.474  0.00  0.00    -0.362 N 
HETATM   19  H   UNK N   1       0.831   3.911   0.734  0.00  0.00     0.162 HD
BRANCH  18  20
HETATM   20  C   UNK N   1      -1.156   4.278   0.176  0.00  0.00     0.021 C 
HETATM   21  C   UNK N   1      -1.702   4.866   1.460  0.00  0.00     0.037 C 
HETATM   22  C   UNK N   1      -2.272   3.536  -0.546  0.00  0.00     0.037 C 
HETATM   23  C   UNK N   1      -0.708   5.411  -0.723  0.00  0.00     0.037 C 
ENDBRANCH  18  20
ENDBRANCH   1  18
TORSDOF 5
