MODEL 1
REMARK VINA RESULT:      -6.2      0.000      0.000
REMARK  5 active torsions:
REMARK  status: ('A' for Active; 'I' for Inactive)
REMARK    1  A    between atoms: C_2  and  N_5 
REMARK    2  A    between atoms: N_5  and  C_6 
REMARK    3  A    between atoms: C_10  and  N_11 
REMARK    4  A    between atoms: C_12  and  C_13 
REMARK    5  A    between atoms: C_13  and  C_15 
ROOT
HETATM    1  C   UNK N   1      34.088  14.505  10.052  0.00  0.00     0.147 A 
HETATM    2  S   UNK N   1      34.976  15.068   8.782  0.00  0.00    -0.046 SA
HETATM    3  N   UNK N   1      32.897  15.143  10.101  0.00  0.00    -0.322 N 
ATOM      4  HN  UNK N   1      32.174  14.947  10.794  1.00  0.00     0.169 HD
HETATM    5  C   UNK N   1      32.770  16.088   9.107  0.00  0.00     0.122 A 
HETATM    6  C   UNK N   1      33.895  16.211   8.246  0.00  0.00     0.102 A 
ENDROOT
BRANCH   6   7
HETATM    7  C   UNK N   1      34.136  17.092   7.065  0.00  0.00     0.203 C 
HETATM    8  O   UNK N   1      34.631  18.193   7.269  0.00  0.00    -0.286 OA
BRANCH   7   9
HETATM    9  C   UNK N   1      33.793  16.727   5.662  0.00  0.00     0.015 A 
HETATM   10  C   UNK N   1      32.999  17.596   4.895  0.00  0.00     0.015 A 
HETATM   11  C   UNK N   1      32.655  17.269   3.579  0.00  0.00     0.001 A 
HETATM   12  C   UNK N   1      33.081  16.061   3.023  0.00  0.00     0.000 A 
HETATM   13  C   UNK N   1      33.843  15.176   3.786  0.00  0.00     0.001 A 
HETATM   14  C   UNK N   1      34.192  15.509   5.096  0.00  0.00     0.015 A 
ENDBRANCH   7   9
ENDBRANCH   6   7
BRANCH   5  15
HETATM   15  N   UNK N   1      31.567  16.795   8.949  0.00  0.00    -0.384 N 
HETATM   16  H   UNK N   1      30.936  16.871   9.701  0.00  0.00     0.157 HD
HETATM   17  H   UNK N   1      31.353  17.215   8.084  0.00  0.00     0.157 HD
ENDBRANCH   5  15
BRANCH   1  18
HETATM   18  N   UNK N   1      34.500  13.484  10.951  0.00  0.00    -0.362 N 
HETATM   19  H   UNK N   1      34.045  12.614  10.885  0.00  0.00     0.162 HD
BRANCH  18  20
HETATM   20  C   UNK N   1      35.536  13.616  11.964  0.00  0.00     0.021 C 
HETATM   21  C   UNK N   1      35.136  12.844  13.203  0.00  0.00     0.037 C 
HETATM   22  C   UNK N   1      35.836  15.058  12.350  0.00  0.00     0.037 C 
HETATM   23  C   UNK N   1      36.814  13.019  11.413  0.00  0.00     0.037 C 
ENDBRANCH  18  20
ENDBRANCH   1  18
TORSDOF 5
ENDMDL
MODEL 2
REMARK VINA RESULT:      -6.2      1.777      2.214
REMARK  5 active torsions:
REMARK  status: ('A' for Active; 'I' for Inactive)
REMARK    1  A    between atoms: C_2  and  N_5 
REMARK    2  A    between atoms: N_5  and  C_6 
REMARK    3  A    between atoms: C_10  and  N_11 
REMARK    4  A    between atoms: C_12  and  C_13 
REMARK    5  A    between atoms: C_13  and  C_15 
ROOT
HETATM    1  C   UNK N   1      34.602  15.594  10.448  0.00  0.00     0.147 A 
HETATM    2  S   UNK N   1      34.256  14.928   8.979  0.00  0.00    -0.046 SA
HETATM    3  N   UNK N   1      34.836  16.918  10.310  0.00  0.00    -0.322 N 
ATOM      4  HN  UNK N   1      35.054  17.541  11.088  1.00  0.00     0.169 HD
HETATM    5  C   UNK N   1      34.746  17.331   8.999  0.00  0.00     0.122 A 
HETATM    6  C   UNK N   1      34.439  16.304   8.065  0.00  0.00     0.102 A 
ENDROOT
BRANCH   6   7
HETATM    7  C   UNK N   1      34.245  16.348   6.585  0.00  0.00     0.203 C 
HETATM    8  O   UNK N   1      35.199  16.051   5.878  0.00  0.00    -0.286 OA
BRANCH   7   9
HETATM    9  C   UNK N   1      32.977  16.753   5.916  0.00  0.00     0.015 A 
HETATM   10  C   UNK N   1      33.013  17.238   4.599  0.00  0.00     0.015 A 
HETATM   11  C   UNK N   1      31.836  17.635   3.955  0.00  0.00     0.001 A 
HETATM   12  C   UNK N   1      30.614  17.573   4.628  0.00  0.00     0.000 A 
HETATM   13  C   UNK N   1      30.571  17.122   5.948  0.00  0.00     0.001 A 
HETATM   14  C   UNK N   1      31.746  16.719   6.585  0.00  0.00     0.015 A 
ENDBRANCH   7   9
ENDBRANCH   6   7
BRANCH   5  15
HETATM   15  N   UNK N   1      34.878  18.690   8.672  0.00  0.00    -0.384 N 
HETATM   16  H   UNK N   1      34.953  18.967   7.730  0.00  0.00     0.157 HD
HETATM   17  H   UNK N   1      34.896  19.368   9.386  0.00  0.00     0.157 HD
ENDBRANCH   5  15
BRANCH   1  18
HETATM   18  N   UNK N   1      34.629  14.887  11.681  0.00  0.00    -0.362 N 
HETATM   19  H   UNK N   1      33.866  15.013  12.289  0.00  0.00     0.162 HD
BRANCH  18  20
HETATM   20  C   UNK N   1      35.692  13.997  12.123  0.00  0.00     0.021 C 
HETATM   21  C   UNK N   1      36.213  14.458  13.467  0.00  0.00     0.037 C 
HETATM   22  C   UNK N   1      36.854  13.896  11.145  0.00  0.00     0.037 C 
HETATM   23  C   UNK N   1      35.109  12.608  12.280  0.00  0.00     0.037 C 
ENDBRANCH  18  20
ENDBRANCH   1  18
TORSDOF 5
ENDMDL
MODEL 3
REMARK VINA RESULT:      -6.1     13.948     16.762
REMARK  5 active torsions:
REMARK  status: ('A' for Active; 'I' for Inactive)
REMARK    1  A    between atoms: C_2  and  N_5 
REMARK    2  A    between atoms: N_5  and  C_6 
REMARK    3  A    between atoms: C_10  and  N_11 
REMARK    4  A    between atoms: C_12  and  C_13 
REMARK    5  A    between atoms: C_13  and  C_15 
ROOT
HETATM    1  C   UNK N   1      27.981  25.382  -4.615  0.00  0.00     0.147 A 
HETATM    2  S   UNK N   1      28.104  23.935  -3.833  0.00  0.00    -0.046 SA
HETATM    3  N   UNK N   1      29.176  26.014  -4.607  0.00  0.00    -0.322 N 
ATOM      4  HN  UNK N   1      29.344  26.919  -5.047  1.00  0.00     0.169 HD
HETATM    5  C   UNK N   1      30.142  25.297  -3.936  0.00  0.00     0.122 A 
HETATM    6  C   UNK N   1      29.702  24.061  -3.388  0.00  0.00     0.102 A 
ENDROOT
BRANCH   6   7
HETATM    7  C   UNK N   1      30.434  23.010  -2.621  0.00  0.00     0.203 C 
HETATM    8  O   UNK N   1      30.361  23.045  -1.399  0.00  0.00    -0.286 OA
BRANCH   7   9
HETATM    9  C   UNK N   1      31.263  21.940  -3.243  0.00  0.00     0.015 A 
HETATM   10  C   UNK N   1      30.699  21.110  -4.226  0.00  0.00     0.015 A 
HETATM   11  C   UNK N   1      31.455  20.092  -4.816  0.00  0.00     0.001 A 
HETATM   12  C   UNK N   1      32.776  19.878  -4.413  0.00  0.00     0.000 A 
HETATM   13  C   UNK N   1      33.336  20.675  -3.415  0.00  0.00     0.001 A 
HETATM   14  C   UNK N   1      32.581  21.696  -2.834  0.00  0.00     0.015 A 
ENDBRANCH   7   9
ENDBRANCH   6   7
BRANCH   5  15
HETATM   15  N   UNK N   1      31.467  25.758  -3.893  0.00  0.00    -0.384 N 
HETATM   16  H   UNK N   1      31.852  26.081  -3.046  0.00  0.00     0.157 HD
HETATM   17  H   UNK N   1      32.014  25.759  -4.713  0.00  0.00     0.157 HD
ENDBRANCH   5  15
BRANCH   1  18
HETATM   18  N   UNK N   1      26.801  25.883  -5.228  0.00  0.00    -0.362 N 
HETATM   19  H   UNK N   1      26.387  25.330  -5.929  0.00  0.00     0.162 HD
BRANCH  18  20
HETATM   20  C   UNK N   1      26.153  27.147  -4.910  0.00  0.00     0.021 C 
HETATM   21  C   UNK N   1      24.760  27.165  -5.503  0.00  0.00     0.037 C 
HETATM   22  C   UNK N   1      26.918  28.369  -5.398  0.00  0.00     0.037 C 
HETATM   23  C   UNK N   1      26.039  27.254  -3.404  0.00  0.00     0.037 C 
ENDBRANCH  18  20
ENDBRANCH   1  18
TORSDOF 5
ENDMDL
MODEL 4
REMARK VINA RESULT:      -6.0      3.939      9.129
REMARK  5 active torsions:
REMARK  status: ('A' for Active; 'I' for Inactive)
REMARK    1  A    between atoms: C_2  and  N_5 
REMARK    2  A    between atoms: N_5  and  C_6 
REMARK    3  A    between atoms: C_10  and  N_11 
REMARK    4  A    between atoms: C_12  and  C_13 
REMARK    5  A    between atoms: C_13  and  C_15 
ROOT
HETATM    1  C   UNK N   1      34.889  14.641  11.704  0.00  0.00     0.147 A 
HETATM    2  S   UNK N   1      36.003  14.593  12.919  0.00  0.00    -0.046 SA
HETATM    3  N   UNK N   1      34.310  13.427  11.561  0.00  0.00    -0.322 N 
ATOM      4  HN  UNK N   1      33.578  13.223  10.881  1.00  0.00     0.169 HD
HETATM    5  C   UNK N   1      34.821  12.498  12.440  0.00  0.00     0.122 A 
HETATM    6  C   UNK N   1      35.842  12.984  13.303  0.00  0.00     0.102 A 
ENDROOT
BRANCH   6   7
HETATM    7  C   UNK N   1      36.621  12.307  14.382  0.00  0.00     0.203 C 
HETATM    8  O   UNK N   1      37.701  11.815  14.080  0.00  0.00    -0.286 OA
BRANCH   7   9
HETATM    9  C   UNK N   1      36.159  12.170  15.791  0.00  0.00     0.015 A 
HETATM   10  C   UNK N   1      36.249  10.924  16.432  0.00  0.00     0.015 A 
HETATM   11  C   UNK N   1      35.811  10.770  17.751  0.00  0.00     0.001 A 
HETATM   12  C   UNK N   1      35.257  11.854  18.436  0.00  0.00     0.000 A 
HETATM   13  C   UNK N   1      35.133  13.088  17.799  0.00  0.00     0.001 A 
HETATM   14  C   UNK N   1      35.580  13.241  16.485  0.00  0.00     0.015 A 
ENDBRANCH   7   9
ENDBRANCH   6   7
BRANCH   5  15
HETATM   15  N   UNK N   1      34.284  11.202  12.495  0.00  0.00    -0.384 N 
HETATM   16  H   UNK N   1      34.673  10.531  13.101  0.00  0.00     0.157 HD
HETATM   17  H   UNK N   1      33.517  10.963  11.925  0.00  0.00     0.157 HD
ENDBRANCH   5  15
BRANCH   1  18
HETATM   18  N   UNK N   1      34.567  15.790  10.933  0.00  0.00    -0.362 N 
HETATM   19  H   UNK N   1      34.449  16.639  11.417  0.00  0.00     0.162 HD
BRANCH  18  20
HETATM   20  C   UNK N   1      34.395  15.820   9.488  0.00  0.00     0.021 C 
HETATM   21  C   UNK N   1      32.991  15.373   9.136  0.00  0.00     0.037 C 
HETATM   22  C   UNK N   1      35.396  14.956   8.733  0.00  0.00     0.037 C 
HETATM   23  C   UNK N   1      34.580  17.247   9.018  0.00  0.00     0.037 C 
ENDBRANCH  18  20
ENDBRANCH   1  18
TORSDOF 5
ENDMDL
MODEL 5
REMARK VINA RESULT:      -6.0      4.492      5.858
REMARK  5 active torsions:
REMARK  status: ('A' for Active; 'I' for Inactive)
REMARK    1  A    between atoms: C_2  and  N_5 
REMARK    2  A    between atoms: N_5  and  C_6 
REMARK    3  A    between atoms: C_10  and  N_11 
REMARK    4  A    between atoms: C_12  and  C_13 
REMARK    5  A    between atoms: C_13  and  C_15 
ROOT
HETATM    1  C   UNK N   1      31.402  16.760   8.670  0.00  0.00     0.147 A 
HETATM    2  S   UNK N   1      30.735  16.467   7.190  0.00  0.00    -0.046 SA
HETATM    3  N   UNK N   1      30.510  17.400   9.459  0.00  0.00    -0.322 N 
ATOM      4  HN  UNK N   1      30.696  17.669  10.426  1.00  0.00     0.169 HD
HETATM    5  C   UNK N   1      29.321  17.646   8.810  0.00  0.00     0.122 A 
HETATM    6  C   UNK N   1      29.266  17.196   7.463  0.00  0.00     0.102 A 
ENDROOT
BRANCH   6   7
HETATM    7  C   UNK N   1      28.172  17.260   6.449  0.00  0.00     0.203 C 
HETATM    8  O   UNK N   1      27.617  16.212   6.145  0.00  0.00    -0.286 OA
BRANCH   7   9
HETATM    9  C   UNK N   1      27.729  18.509   5.769  0.00  0.00     0.015 A 
HETATM   10  C   UNK N   1      27.475  18.493   4.388  0.00  0.00     0.015 A 
HETATM   11  C   UNK N   1      27.069  19.656   3.726  0.00  0.00     0.001 A 
HETATM   12  C   UNK N   1      26.937  20.854   4.433  0.00  0.00     0.000 A 
HETATM   13  C   UNK N   1      27.218  20.889   5.798  0.00  0.00     0.001 A 
HETATM   14  C   UNK N   1      27.613  19.724   6.458  0.00  0.00     0.015 A 
ENDBRANCH   7   9
ENDBRANCH   6   7
BRANCH   5  15
HETATM   15  N   UNK N   1      28.245  18.229   9.498  0.00  0.00    -0.384 N 
HETATM   16  H   UNK N   1      27.340  18.208   9.110  0.00  0.00     0.157 HD
HETATM   17  H   UNK N   1      28.395  18.661  10.371  0.00  0.00     0.157 HD
ENDBRANCH   5  15
BRANCH   1  18
HETATM   18  N   UNK N   1      32.713  16.380   9.067  0.00  0.00    -0.362 N 
HETATM   19  H   UNK N   1      32.789  15.679   9.754  0.00  0.00     0.162 HD
BRANCH  18  20
HETATM   20  C   UNK N   1      33.951  16.939   8.547  0.00  0.00     0.021 C 
HETATM   21  C   UNK N   1      33.715  18.368   8.105  0.00  0.00     0.037 C 
HETATM   22  C   UNK N   1      34.540  16.150   7.386  0.00  0.00     0.037 C 
HETATM   23  C   UNK N   1      34.975  16.940   9.662  0.00  0.00     0.037 C 
ENDBRANCH  18  20
ENDBRANCH   1  18
TORSDOF 5
ENDMDL
MODEL 6
REMARK VINA RESULT:      -6.0      3.422      4.263
REMARK  5 active torsions:
REMARK  status: ('A' for Active; 'I' for Inactive)
REMARK    1  A    between atoms: C_2  and  N_5 
REMARK    2  A    between atoms: N_5  and  C_6 
REMARK    3  A    between atoms: C_10  and  N_11 
REMARK    4  A    between atoms: C_12  and  C_13 
REMARK    5  A    between atoms: C_13  and  C_15 
ROOT
HETATM    1  C   UNK N   1      35.946  14.113  12.702  0.00  0.00     0.147 A 
HETATM    2  S   UNK N   1      34.833  14.657  11.614  0.00  0.00    -0.046 SA
HETATM    3  N   UNK N   1      37.133  13.909  12.086  0.00  0.00    -0.322 N 
ATOM      4  HN  UNK N   1      37.975  13.589  12.564  1.00  0.00     0.169 HD
HETATM    5  C   UNK N   1      37.075  14.186  10.738  0.00  0.00     0.122 A 
HETATM    6  C   UNK N   1      35.804  14.615  10.265  0.00  0.00     0.102 A 
ENDROOT
BRANCH   6   7
HETATM    7  C   UNK N   1      35.348  15.016   8.901  0.00  0.00     0.203 C 
HETATM    8  O   UNK N   1      35.937  14.538   7.941  0.00  0.00    -0.286 OA
BRANCH   7   9
HETATM    9  C   UNK N   1      34.241  15.977   8.636  0.00  0.00     0.015 A 
HETATM   10  C   UNK N   1      32.921  15.505   8.542  0.00  0.00     0.015 A 
HETATM   11  C   UNK N   1      31.867  16.386   8.282  0.00  0.00     0.001 A 
HETATM   12  C   UNK N   1      32.123  17.746   8.090  0.00  0.00     0.000 A 
HETATM   13  C   UNK N   1      33.433  18.221   8.148  0.00  0.00     0.001 A 
HETATM   14  C   UNK N   1      34.482  17.339   8.417  0.00  0.00     0.015 A 
ENDBRANCH   7   9
ENDBRANCH   6   7
BRANCH   5  15
HETATM   15  N   UNK N   1      38.233  14.111   9.948  0.00  0.00    -0.384 N 
HETATM   16  H   UNK N   1      38.588  13.235   9.672  0.00  0.00     0.157 HD
HETATM   17  H   UNK N   1      38.692  14.937   9.668  0.00  0.00     0.157 HD
ENDBRANCH   5  15
BRANCH   1  18
HETATM   18  N   UNK N   1      35.705  13.907  14.087  0.00  0.00    -0.362 N 
HETATM   19  H   UNK N   1      35.754  14.695  14.675  0.00  0.00     0.162 HD
BRANCH  18  20
HETATM   20  C   UNK N   1      35.392  12.630  14.711  0.00  0.00     0.021 C 
HETATM   21  C   UNK N   1      36.677  11.904  15.050  0.00  0.00     0.037 C 
HETATM   22  C   UNK N   1      34.520  11.725  13.853  0.00  0.00     0.037 C 
HETATM   23  C   UNK N   1      34.637  12.903  15.995  0.00  0.00     0.037 C 
ENDBRANCH  18  20
ENDBRANCH   1  18
TORSDOF 5
ENDMDL
MODEL 7
REMARK VINA RESULT:      -5.8      4.590      7.567
REMARK  5 active torsions:
REMARK  status: ('A' for Active; 'I' for Inactive)
REMARK    1  A    between atoms: C_2  and  N_5 
REMARK    2  A    between atoms: N_5  and  C_6 
REMARK    3  A    between atoms: C_10  and  N_11 
REMARK    4  A    between atoms: C_12  and  C_13 
REMARK    5  A    between atoms: C_13  and  C_15 
ROOT
HETATM    1  C   UNK N   1      27.798  18.468   6.983  0.00  0.00     0.147 A 
HETATM    2  S   UNK N   1      29.005  17.490   6.429  0.00  0.00    -0.046 SA
HETATM    3  N   UNK N   1      28.024  18.792   8.276  0.00  0.00    -0.322 N 
ATOM      4  HN  UNK N   1      27.417  19.402   8.824  1.00  0.00     0.169 HD
HETATM    5  C   UNK N   1      29.168  18.206   8.769  0.00  0.00     0.122 A 
HETATM    6  C   UNK N   1      29.870  17.384   7.845  0.00  0.00     0.102 A 
ENDROOT
BRANCH   6   7
HETATM    7  C   UNK N   1      31.135  16.603   7.988  0.00  0.00     0.203 C 
HETATM    8  O   UNK N   1      31.425  16.191   9.103  0.00  0.00    -0.286 OA
BRANCH   7   9
HETATM    9  C   UNK N   1      32.074  16.316   6.868  0.00  0.00     0.015 A 
HETATM   10  C   UNK N   1      32.869  17.350   6.348  0.00  0.00     0.015 A 
HETATM   11  C   UNK N   1      33.751  17.106   5.290  0.00  0.00     0.001 A 
HETATM   12  C   UNK N   1      33.830  15.831   4.725  0.00  0.00     0.000 A 
HETATM   13  C   UNK N   1      33.022  14.804   5.212  0.00  0.00     0.001 A 
HETATM   14  C   UNK N   1      32.150  15.049   6.275  0.00  0.00     0.015 A 
ENDBRANCH   7   9
ENDBRANCH   6   7
BRANCH   5  15
HETATM   15  N   UNK N   1      29.608  18.493  10.071  0.00  0.00    -0.384 N 
HETATM   16  H   UNK N   1      28.955  18.657  10.790  0.00  0.00     0.157 HD
HETATM   17  H   UNK N   1      30.573  18.531  10.267  0.00  0.00     0.157 HD
ENDBRANCH   5  15
BRANCH   1  18
HETATM   18  N   UNK N   1      26.693  18.921   6.213  0.00  0.00    -0.362 N 
HETATM   19  H   UNK N   1      25.872  18.379   6.240  0.00  0.00     0.162 HD
BRANCH  18  20
HETATM   20  C   UNK N   1      26.673  20.118   5.385  0.00  0.00     0.021 C 
HETATM   21  C   UNK N   1      26.696  21.346   6.270  0.00  0.00     0.037 C 
HETATM   22  C   UNK N   1      25.473  20.199   4.452  0.00  0.00     0.037 C 
HETATM   23  C   UNK N   1      27.919  20.119   4.524  0.00  0.00     0.037 C 
ENDBRANCH  18  20
ENDBRANCH   1  18
TORSDOF 5
ENDMDL
MODEL 8
REMARK VINA RESULT:      -5.8      2.693      7.765
REMARK  5 active torsions:
REMARK  status: ('A' for Active; 'I' for Inactive)
REMARK    1  A    between atoms: C_2  and  N_5 
REMARK    2  A    between atoms: N_5  and  C_6 
REMARK    3  A    between atoms: C_10  and  N_11 
REMARK    4  A    between atoms: C_12  and  C_13 
REMARK    5  A    between atoms: C_13  and  C_15 
ROOT
HETATM    1  C   UNK N   1      35.036  15.053   9.369  0.00  0.00     0.147 A 
HETATM    2  S   UNK N   1      34.394  14.910  10.881  0.00  0.00    -0.046 SA
HETATM    3  N   UNK N   1      36.334  14.672   9.381  0.00  0.00    -0.322 N 
ATOM      4  HN  UNK N   1      36.931  14.660   8.554  1.00  0.00     0.169 HD
HETATM    5  C   UNK N   1      36.757  14.300  10.638  0.00  0.00     0.122 A 
HETATM    6  C   UNK N   1      35.771  14.395  11.658  0.00  0.00     0.102 A 
ENDROOT
BRANCH   6   7
HETATM    7  C   UNK N   1      35.831  14.077  13.115  0.00  0.00     0.203 C 
HETATM    8  O   UNK N   1      36.463  14.837  13.837  0.00  0.00    -0.286 OA
BRANCH   7   9
HETATM    9  C   UNK N   1      35.193  12.885  13.741  0.00  0.00     0.015 A 
HETATM   10  C   UNK N   1      34.719  11.844  12.926  0.00  0.00     0.015 A 
HETATM   11  C   UNK N   1      34.107  10.721  13.490  0.00  0.00     0.001 A 
HETATM   12  C   UNK N   1      33.942  10.635  14.875  0.00  0.00     0.000 A 
HETATM   13  C   UNK N   1      34.380  11.677  15.692  0.00  0.00     0.001 A 
HETATM   14  C   UNK N   1      34.999  12.793  15.126  0.00  0.00     0.015 A 
ENDBRANCH   7   9
ENDBRANCH   6   7
BRANCH   5  15
HETATM   15  N   UNK N   1      38.053  13.797  10.830  0.00  0.00    -0.384 N 
HETATM   16  H   UNK N   1      38.234  13.161  11.560  0.00  0.00     0.157 HD
HETATM   17  H   UNK N   1      38.784  14.079  10.233  0.00  0.00     0.157 HD
ENDBRANCH   5  15
BRANCH   1  18
HETATM   18  N   UNK N   1      34.329  15.491   8.217  0.00  0.00    -0.362 N 
HETATM   19  H   UNK N   1      34.162  14.825   7.511  0.00  0.00     0.162 HD
BRANCH  18  20
HETATM   20  C   UNK N   1      33.831  16.839   7.990  0.00  0.00     0.021 C 
HETATM   21  C   UNK N   1      34.724  17.834   8.701  0.00  0.00     0.037 C 
HETATM   22  C   UNK N   1      32.393  17.047   8.445  0.00  0.00     0.037 C 
HETATM   23  C   UNK N   1      33.883  17.119   6.503  0.00  0.00     0.037 C 
ENDBRANCH  18  20
ENDBRANCH   1  18
TORSDOF 5
ENDMDL
MODEL 9
REMARK VINA RESULT:      -5.8     14.875     18.185
REMARK  5 active torsions:
REMARK  status: ('A' for Active; 'I' for Inactive)
REMARK    1  A    between atoms: C_2  and  N_5 
REMARK    2  A    between atoms: N_5  and  C_6 
REMARK    3  A    between atoms: C_10  and  N_11 
REMARK    4  A    between atoms: C_12  and  C_13 
REMARK    5  A    between atoms: C_13  and  C_15 
ROOT
HETATM    1  C   UNK N   1      28.360  23.607  -5.276  0.00  0.00     0.147 A 
HETATM    2  S   UNK N   1      28.102  25.162  -4.790  0.00  0.00    -0.046 SA
HETATM    3  N   UNK N   1      27.346  23.197  -6.071  0.00  0.00    -0.322 N 
ATOM      4  HN  UNK N   1      27.299  22.274  -6.503  1.00  0.00     0.169 HD
HETATM    5  C   UNK N   1      26.383  24.169  -6.231  0.00  0.00     0.122 A 
HETATM    6  C   UNK N   1      26.633  25.384  -5.538  0.00  0.00     0.102 A 
ENDROOT
BRANCH   6   7
HETATM    7  C   UNK N   1      25.854  26.656  -5.471  0.00  0.00     0.203 C 
HETATM    8  O   UNK N   1      24.648  26.594  -5.673  0.00  0.00    -0.286 OA
BRANCH   7   9
HETATM    9  C   UNK N   1      26.450  27.994  -5.199  0.00  0.00     0.015 A 
HETATM   10  C   UNK N   1      26.012  28.735  -4.090  0.00  0.00     0.015 A 
HETATM   11  C   UNK N   1      26.549  29.998  -3.822  0.00  0.00     0.001 A 
HETATM   12  C   UNK N   1      27.514  30.543  -4.672  0.00  0.00     0.000 A 
HETATM   13  C   UNK N   1      27.934  29.829  -5.794  0.00  0.00     0.001 A 
HETATM   14  C   UNK N   1      27.402  28.565  -6.054  0.00  0.00     0.015 A 
ENDBRANCH   7   9
ENDBRANCH   6   7
BRANCH   5  15
HETATM   15  N   UNK N   1      25.293  23.953  -7.090  0.00  0.00    -0.384 N 
HETATM   16  H   UNK N   1      24.987  24.671  -7.690  0.00  0.00     0.157 HD
HETATM   17  H   UNK N   1      24.834  23.082  -7.092  0.00  0.00     0.157 HD
ENDBRANCH   5  15
BRANCH   1  18
HETATM   18  N   UNK N   1      29.491  22.818  -4.930  0.00  0.00    -0.362 N 
HETATM   19  H   UNK N   1      29.928  22.316  -5.654  0.00  0.00     0.162 HD
BRANCH  18  20
HETATM   20  C   UNK N   1      30.056  22.689  -3.595  0.00  0.00     0.021 C 
HETATM   21  C   UNK N   1      30.676  21.316  -3.439  0.00  0.00     0.037 C 
HETATM   22  C   UNK N   1      29.046  22.910  -2.478  0.00  0.00     0.037 C 
HETATM   23  C   UNK N   1      31.143  23.731  -3.438  0.00  0.00     0.037 C 
ENDBRANCH  18  20
ENDBRANCH   1  18
TORSDOF 5
ENDMDL
