MODEL 1
REMARK VINA RESULT:      -5.1      0.000      0.000
REMARK  4 active torsions:
REMARK  status: ('A' for Active; 'I' for Inactive)
REMARK    1  A    between atoms: S_2  and  C_3 
REMARK    2  A    between atoms: C_7  and  O_8 
REMARK    3  A    between atoms: C_9  and  C_10 
REMARK    4  A    between atoms: C_10  and  C_11 
ROOT
HETATM    1  C   UNK N   1      34.444  16.193  10.121  0.00  0.00     0.146 A 
HETATM    2  N   UNK N   1      33.307  16.141   9.396  0.00  0.00    -0.336 N 
HETATM    3  N   UNK N   1      35.205  17.262   9.820  0.00  0.00    -0.316 N 
ATOM      4  HN  UNK N   1      36.103  17.521  10.227  1.00  0.00     0.170 HD
HETATM    5  C   UNK N   1      34.521  17.910   8.868  0.00  0.00     0.165 A 
HETATM    6  C   UNK N   1      33.342  17.224   8.597  0.00  0.00     0.067 A 
HETATM    7  H   UNK N   1      32.601  15.456   9.441  0.00  0.00     0.168 HD
ENDROOT
BRANCH   6   8
HETATM    8  C   UNK N   1      32.206  17.488   7.632  0.00  0.00     0.107 C 
BRANCH   8   9
HETATM    9  C   UNK N   1      30.766  17.680   8.028  0.00  0.00    -0.012 A 
HETATM   10  C   UNK N   1      30.381  18.396   9.160  0.00  0.00     0.015 A 
HETATM   11  C   UNK N   1      28.968  18.448   9.339  0.00  0.00     0.008 A 
HETATM   12  C   UNK N   1      28.244  17.776   8.350  0.00  0.00     0.050 A 
HETATM   13  S   UNK N   1      29.371  17.155   7.313  0.00  0.00    -0.106 SA
ENDBRANCH   8   9
ENDBRANCH   6   8
BRANCH   5  14
HETATM   14  O   UNK N   1      34.971  19.038   8.314  0.00  0.00    -0.345 OA
HETATM   15  H   UNK N   1      35.753  19.440   8.638  0.00  0.00     0.219 HD
ENDBRANCH   5  14
BRANCH   1  16
HETATM   16  S   UNK N   1      34.881  14.959  11.351  0.00  0.00    -0.098 SA
HETATM   17  C   UNK N   1      36.516  14.586  10.647  0.00  0.00     0.099 C 
ENDBRANCH   1  16
TORSDOF 4
ENDMDL
MODEL 2
REMARK VINA RESULT:      -5.1      2.970      4.023
REMARK  4 active torsions:
REMARK  status: ('A' for Active; 'I' for Inactive)
REMARK    1  A    between atoms: S_2  and  C_3 
REMARK    2  A    between atoms: C_7  and  O_8 
REMARK    3  A    between atoms: C_9  and  C_10 
REMARK    4  A    between atoms: C_10  and  C_11 
ROOT
HETATM    1  C   UNK N   1      35.502  13.901  12.979  0.00  0.00     0.146 A 
HETATM    2  N   UNK N   1      34.645  13.689  11.958  0.00  0.00    -0.336 N 
HETATM    3  N   UNK N   1      36.418  14.847  12.702  0.00  0.00    -0.316 N 
ATOM      4  HN  UNK N   1      37.167  15.185  13.306  1.00  0.00     0.170 HD
HETATM    5  C   UNK N   1      36.127  15.248  11.457  0.00  0.00     0.165 A 
HETATM    6  C   UNK N   1      35.030  14.536  10.986  0.00  0.00     0.067 A 
HETATM    7  H   UNK N   1      33.896  13.050  11.930  0.00  0.00     0.168 HD
ENDROOT
BRANCH   6   8
HETATM    8  C   UNK N   1      34.279  14.570   9.673  0.00  0.00     0.107 C 
BRANCH   8   9
HETATM    9  C   UNK N   1      33.566  15.775   9.118  0.00  0.00    -0.012 A 
HETATM   10  C   UNK N   1      32.196  15.793   8.864  0.00  0.00     0.015 A 
HETATM   11  C   UNK N   1      31.736  17.036   8.342  0.00  0.00     0.008 A 
HETATM   12  C   UNK N   1      32.743  17.994   8.185  0.00  0.00     0.050 A 
HETATM   13  S   UNK N   1      34.137  17.267   8.693  0.00  0.00    -0.106 SA
ENDBRANCH   8   9
ENDBRANCH   6   8
BRANCH   5  14
HETATM   14  O   UNK N   1      36.834  16.194  10.833  0.00  0.00    -0.345 OA
HETATM   15  H   UNK N   1      37.082  16.080   9.937  0.00  0.00     0.219 HD
ENDBRANCH   5  14
BRANCH   1  16
HETATM   16  S   UNK N   1      35.415  13.008  14.535  0.00  0.00    -0.098 SA
HETATM   17  C   UNK N   1      36.792  13.900  15.322  0.00  0.00     0.099 C 
ENDBRANCH   1  16
TORSDOF 4
ENDMDL
MODEL 3
REMARK VINA RESULT:      -5.0      4.113      6.987
REMARK  4 active torsions:
REMARK  status: ('A' for Active; 'I' for Inactive)
REMARK    1  A    between atoms: S_2  and  C_3 
REMARK    2  A    between atoms: C_7  and  O_8 
REMARK    3  A    between atoms: C_9  and  C_10 
REMARK    4  A    between atoms: C_10  and  C_11 
ROOT
HETATM    1  C   UNK N   1      27.596  19.612   6.656  0.00  0.00     0.146 A 
HETATM    2  N   UNK N   1      28.560  18.753   6.264  0.00  0.00    -0.336 N 
HETATM    3  N   UNK N   1      27.296  19.497   7.963  0.00  0.00    -0.316 N 
ATOM      4  HN  UNK N   1      26.607  20.030   8.493  1.00  0.00     0.170 HD
HETATM    5  C   UNK N   1      28.102  18.527   8.413  0.00  0.00     0.165 A 
HETATM    6  C   UNK N   1      28.891  18.059   7.368  0.00  0.00     0.067 A 
HETATM    7  H   UNK N   1      28.941  18.655   5.361  0.00  0.00     0.168 HD
ENDROOT
BRANCH   6   8
HETATM    8  C   UNK N   1      29.960  16.990   7.296  0.00  0.00     0.107 C 
BRANCH   8   9
HETATM    9  C   UNK N   1      31.434  17.253   7.135  0.00  0.00    -0.012 A 
HETATM   10  C   UNK N   1      32.095  17.132   5.915  0.00  0.00     0.015 A 
HETATM   11  C   UNK N   1      33.486  17.430   5.998  0.00  0.00     0.008 A 
HETATM   12  C   UNK N   1      33.918  17.784   7.280  0.00  0.00     0.050 A 
HETATM   13  S   UNK N   1      32.574  17.713   8.240  0.00  0.00    -0.106 SA
ENDBRANCH   8   9
ENDBRANCH   6   8
BRANCH   5  14
HETATM   14  O   UNK N   1      28.090  18.128   9.688  0.00  0.00    -0.345 OA
HETATM   15  H   UNK N   1      28.170  18.758  10.377  0.00  0.00     0.219 HD
ENDBRANCH   5  14
BRANCH   1  16
HETATM   16  S   UNK N   1      26.807  20.778   5.540  0.00  0.00    -0.098 SA
HETATM   17  C   UNK N   1      27.353  19.950   4.014  0.00  0.00     0.099 C 
ENDBRANCH   1  16
TORSDOF 4
ENDMDL
MODEL 4
REMARK VINA RESULT:      -5.0      6.372      9.609
REMARK  4 active torsions:
REMARK  status: ('A' for Active; 'I' for Inactive)
REMARK    1  A    between atoms: S_2  and  C_3 
REMARK    2  A    between atoms: C_7  and  O_8 
REMARK    3  A    between atoms: C_9  and  C_10 
REMARK    4  A    between atoms: C_10  and  C_11 
ROOT
HETATM    1  C   UNK N   1      35.723  13.555  12.850  0.00  0.00     0.146 A 
HETATM    2  N   UNK N   1      34.929  13.013  13.796  0.00  0.00    -0.336 N 
HETATM    3  N   UNK N   1      36.787  14.197  13.368  0.00  0.00    -0.316 N 
ATOM      4  HN  UNK N   1      37.526  14.684  12.863  1.00  0.00     0.170 HD
HETATM    5  C   UNK N   1      36.658  14.054  14.693  0.00  0.00     0.165 A 
HETATM    6  C   UNK N   1      35.510  13.322  14.971  0.00  0.00     0.067 A 
HETATM    7  H   UNK N   1      34.100  12.500  13.658  0.00  0.00     0.168 HD
ENDROOT
BRANCH   6   8
HETATM    8  C   UNK N   1      34.879  12.865  16.269  0.00  0.00     0.107 C 
BRANCH   8   9
HETATM    9  C   UNK N   1      35.440  11.799  17.173  0.00  0.00    -0.012 A 
HETATM   10  C   UNK N   1      35.311  11.839  18.559  0.00  0.00     0.015 A 
HETATM   11  C   UNK N   1      35.919  10.728  19.213  0.00  0.00     0.008 A 
HETATM   12  C   UNK N   1      36.524   9.817  18.341  0.00  0.00     0.050 A 
HETATM   13  S   UNK N   1      36.282  10.421  16.822  0.00  0.00    -0.106 SA
ENDBRANCH   8   9
ENDBRANCH   6   8
BRANCH   5  14
HETATM   14  O   UNK N   1      37.543  14.568  15.552  0.00  0.00    -0.345 OA
HETATM   15  H   UNK N   1      37.269  15.201  16.185  0.00  0.00     0.219 HD
ENDBRANCH   5  14
BRANCH   1  16
HETATM   16  S   UNK N   1      35.383  13.425  11.091  0.00  0.00    -0.098 SA
HETATM   17  C   UNK N   1      34.285  14.875  11.021  0.00  0.00     0.099 C 
ENDBRANCH   1  16
TORSDOF 4
ENDMDL
MODEL 5
REMARK VINA RESULT:      -4.9      1.893      2.947
REMARK  4 active torsions:
REMARK  status: ('A' for Active; 'I' for Inactive)
REMARK    1  A    between atoms: S_2  and  C_3 
REMARK    2  A    between atoms: C_7  and  O_8 
REMARK    3  A    between atoms: C_9  and  C_10 
REMARK    4  A    between atoms: C_10  and  C_11 
ROOT
HETATM    1  C   UNK N   1      34.402  16.152  10.081  0.00  0.00     0.146 A 
HETATM    2  N   UNK N   1      33.243  16.140   9.389  0.00  0.00    -0.336 N 
HETATM    3  N   UNK N   1      35.185  17.200   9.769  0.00  0.00    -0.316 N 
ATOM      4  HN  UNK N   1      36.101  17.429  10.152  1.00  0.00     0.170 HD
HETATM    5  C   UNK N   1      34.493  17.877   8.843  0.00  0.00     0.165 A 
HETATM    6  C   UNK N   1      33.288  17.229   8.599  0.00  0.00     0.067 A 
HETATM    7  H   UNK N   1      32.519  15.475   9.448  0.00  0.00     0.168 HD
ENDROOT
BRANCH   6   8
HETATM    8  C   UNK N   1      32.133  17.536   7.670  0.00  0.00     0.107 C 
BRANCH   8   9
HETATM    9  C   UNK N   1      32.132  17.288   6.185  0.00  0.00    -0.012 A 
HETATM   10  C   UNK N   1      33.249  17.503   5.381  0.00  0.00     0.015 A 
HETATM   11  C   UNK N   1      33.020  17.203   4.007  0.00  0.00     0.008 A 
HETATM   12  C   UNK N   1      31.725  16.754   3.731  0.00  0.00     0.050 A 
HETATM   13  S   UNK N   1      30.934  16.748   5.182  0.00  0.00    -0.106 SA
ENDBRANCH   8   9
ENDBRANCH   6   8
BRANCH   5  14
HETATM   14  O   UNK N   1      34.961  18.998   8.286  0.00  0.00    -0.345 OA
HETATM   15  H   UNK N   1      34.477  19.796   8.361  0.00  0.00     0.219 HD
ENDBRANCH   5  14
BRANCH   1  16
HETATM   16  S   UNK N   1      34.837  14.893  11.287  0.00  0.00    -0.098 SA
HETATM   17  C   UNK N   1      34.682  13.492  10.137  0.00  0.00     0.099 C 
ENDBRANCH   1  16
TORSDOF 4
ENDMDL
MODEL 6
REMARK VINA RESULT:      -4.9      3.172      4.312
REMARK  4 active torsions:
REMARK  status: ('A' for Active; 'I' for Inactive)
REMARK    1  A    between atoms: S_2  and  C_3 
REMARK    2  A    between atoms: C_7  and  O_8 
REMARK    3  A    between atoms: C_9  and  C_10 
REMARK    4  A    between atoms: C_10  and  C_11 
ROOT
HETATM    1  C   UNK N   1      31.644  17.163   7.916  0.00  0.00     0.146 A 
HETATM    2  N   UNK N   1      30.500  17.167   7.201  0.00  0.00    -0.336 N 
HETATM    3  N   UNK N   1      31.512  17.761   9.114  0.00  0.00    -0.316 N 
ATOM      4  HN  UNK N   1      32.226  17.885   9.831  1.00  0.00     0.170 HD
HETATM    5  C   UNK N   1      30.233  18.159   9.157  0.00  0.00     0.165 A 
HETATM    6  C   UNK N   1      29.596  17.796   7.976  0.00  0.00     0.067 A 
HETATM    7  H   UNK N   1      30.356  16.791   6.302  0.00  0.00     0.168 HD
ENDROOT
BRANCH   6   8
HETATM    8  C   UNK N   1      28.178  17.984   7.481  0.00  0.00     0.107 C 
BRANCH   8   9
HETATM    9  C   UNK N   1      27.746  19.015   6.472  0.00  0.00    -0.012 A 
HETATM   10  C   UNK N   1      27.521  20.349   6.802  0.00  0.00     0.015 A 
HETATM   11  C   UNK N   1      27.120  21.144   5.690  0.00  0.00     0.008 A 
HETATM   12  C   UNK N   1      27.030  20.436   4.487  0.00  0.00     0.050 A 
HETATM   13  S   UNK N   1      27.445  18.879   4.852  0.00  0.00    -0.106 SA
ENDBRANCH   8   9
ENDBRANCH   6   8
BRANCH   5  14
HETATM   14  O   UNK N   1      29.724  18.801  10.211  0.00  0.00    -0.345 OA
HETATM   15  H   UNK N   1      29.598  19.729  10.180  0.00  0.00     0.219 HD
ENDBRANCH   5  14
BRANCH   1  16
HETATM   16  S   UNK N   1      33.172  16.433   7.318  0.00  0.00    -0.098 SA
HETATM   17  C   UNK N   1      34.207  17.888   7.669  0.00  0.00     0.099 C 
ENDBRANCH   1  16
TORSDOF 4
ENDMDL
MODEL 7
REMARK VINA RESULT:      -4.8      3.447      6.589
REMARK  4 active torsions:
REMARK  status: ('A' for Active; 'I' for Inactive)
REMARK    1  A    between atoms: S_2  and  C_3 
REMARK    2  A    between atoms: C_7  and  O_8 
REMARK    3  A    between atoms: C_9  and  C_10 
REMARK    4  A    between atoms: C_10  and  C_11 
ROOT
HETATM    1  C   UNK N   1      33.813  15.414   9.889  0.00  0.00     0.146 A 
HETATM    2  N   UNK N   1      33.863  14.549  10.924  0.00  0.00    -0.336 N 
HETATM    3  N   UNK N   1      34.957  16.105   9.731  0.00  0.00    -0.316 N 
ATOM      4  HN  UNK N   1      35.166  16.811   9.027  1.00  0.00     0.170 HD
HETATM    5  C   UNK N   1      35.761  15.659  10.706  0.00  0.00     0.165 A 
HETATM    6  C   UNK N   1      35.093  14.694  11.451  0.00  0.00     0.067 A 
HETATM    7  H   UNK N   1      33.151  13.941  11.229  0.00  0.00     0.168 HD
ENDROOT
BRANCH   6   8
HETATM    8  C   UNK N   1      35.503  13.865  12.649  0.00  0.00     0.107 C 
BRANCH   8   9
HETATM    9  C   UNK N   1      34.967  12.496  12.975  0.00  0.00    -0.012 A 
HETATM   10  C   UNK N   1      34.456  12.162  14.227  0.00  0.00     0.015 A 
HETATM   11  C   UNK N   1      34.005  10.813  14.309  0.00  0.00     0.008 A 
HETATM   12  C   UNK N   1      34.163  10.087  13.124  0.00  0.00     0.050 A 
HETATM   13  S   UNK N   1      34.843  11.136  12.044  0.00  0.00    -0.106 SA
ENDBRANCH   8   9
ENDBRANCH   6   8
BRANCH   5  14
HETATM   14  O   UNK N   1      37.003  16.122  10.869  0.00  0.00    -0.345 OA
HETATM   15  H   UNK N   1      37.674  15.892  10.257  0.00  0.00     0.219 HD
ENDBRANCH   5  14
BRANCH   1  16
HETATM   16  S   UNK N   1      32.366  15.609   8.842  0.00  0.00    -0.098 SA
HETATM   17  C   UNK N   1      32.700  17.344   8.409  0.00  0.00     0.099 C 
ENDBRANCH   1  16
TORSDOF 4
ENDMDL
MODEL 8
REMARK VINA RESULT:      -4.8      3.652      6.394
REMARK  4 active torsions:
REMARK  status: ('A' for Active; 'I' for Inactive)
REMARK    1  A    between atoms: S_2  and  C_3 
REMARK    2  A    between atoms: C_7  and  O_8 
REMARK    3  A    between atoms: C_9  and  C_10 
REMARK    4  A    between atoms: C_10  and  C_11 
ROOT
HETATM    1  C   UNK N   1      28.363  17.901   6.047  0.00  0.00     0.146 A 
HETATM    2  N   UNK N   1      29.583  17.587   6.531  0.00  0.00    -0.336 N 
HETATM    3  N   UNK N   1      27.464  18.146   7.018  0.00  0.00    -0.316 N 
ATOM      4  HN  UNK N   1      26.483  18.401   6.909  1.00  0.00     0.170 HD
HETATM    5  C   UNK N   1      28.144  17.980   8.160  0.00  0.00     0.165 A 
HETATM    6  C   UNK N   1      29.459  17.633   7.871  0.00  0.00     0.067 A 
HETATM    7  H   UNK N   1      30.393  17.370   6.015  0.00  0.00     0.168 HD
ENDROOT
BRANCH   6   8
HETATM    8  C   UNK N   1      30.652  17.330   8.751  0.00  0.00     0.107 C 
BRANCH   8   9
HETATM    9  C   UNK N   1      32.066  17.162   8.259  0.00  0.00    -0.012 A 
HETATM   10  C   UNK N   1      32.956  18.227   8.137  0.00  0.00     0.015 A 
HETATM   11  C   UNK N   1      34.238  17.836   7.653  0.00  0.00     0.008 A 
HETATM   12  C   UNK N   1      34.355  16.467   7.395  0.00  0.00     0.050 A 
HETATM   13  S   UNK N   1      32.886  15.812   7.773  0.00  0.00    -0.106 SA
ENDBRANCH   8   9
ENDBRANCH   6   8
BRANCH   5  14
HETATM   14  O   UNK N   1      27.572  18.141   9.356  0.00  0.00    -0.345 OA
HETATM   15  H   UNK N   1      28.089  18.084  10.135  0.00  0.00     0.219 HD
ENDBRANCH   5  14
BRANCH   1  16
HETATM   16  S   UNK N   1      27.995  17.979   4.290  0.00  0.00    -0.098 SA
HETATM   17  C   UNK N   1      29.249  16.755   3.798  0.00  0.00     0.099 C 
ENDBRANCH   1  16
TORSDOF 4
ENDMDL
MODEL 9
REMARK VINA RESULT:      -4.8      7.048      9.641
REMARK  4 active torsions:
REMARK  status: ('A' for Active; 'I' for Inactive)
REMARK    1  A    between atoms: S_2  and  C_3 
REMARK    2  A    between atoms: C_7  and  O_8 
REMARK    3  A    between atoms: C_9  and  C_10 
REMARK    4  A    between atoms: C_10  and  C_11 
ROOT
HETATM    1  C   UNK N   1      35.726  13.582  13.312  0.00  0.00     0.146 A 
HETATM    2  N   UNK N   1      35.088  13.045  14.374  0.00  0.00    -0.336 N 
HETATM    3  N   UNK N   1      36.775  14.345  13.666  0.00  0.00    -0.316 N 
ATOM      4  HN  UNK N   1      37.410  14.854  13.052  1.00  0.00     0.170 HD
HETATM    5  C   UNK N   1      36.801  14.289  15.004  0.00  0.00     0.165 A 
HETATM    6  C   UNK N   1      35.760  13.486  15.454  0.00  0.00     0.067 A 
HETATM    7  H   UNK N   1      34.299  12.457  14.362  0.00  0.00     0.168 HD
ENDROOT
BRANCH   6   8
HETATM    8  C   UNK N   1      35.314  13.074  16.840  0.00  0.00     0.107 C 
BRANCH   8   9
HETATM    9  C   UNK N   1      35.239  11.654  17.336  0.00  0.00    -0.012 A 
HETATM   10  C   UNK N   1      35.374  11.314  18.681  0.00  0.00     0.015 A 
HETATM   11  C   UNK N   1      35.270   9.913  18.920  0.00  0.00     0.008 A 
HETATM   12  C   UNK N   1      35.052   9.153  17.766  0.00  0.00     0.050 A 
HETATM   13  S   UNK N   1      35.001  10.237  16.520  0.00  0.00    -0.106 SA
ENDBRANCH   8   9
ENDBRANCH   6   8
BRANCH   5  14
HETATM   14  O   UNK N   1      37.722  14.935  15.724  0.00  0.00    -0.345 OA
HETATM   15  H   UNK N   1      38.561  14.545  15.873  0.00  0.00     0.219 HD
ENDBRANCH   5  14
BRANCH   1  16
HETATM   16  S   UNK N   1      35.214  13.296  11.614  0.00  0.00    -0.098 SA
HETATM   17  C   UNK N   1      34.851  11.527  11.839  0.00  0.00     0.099 C 
ENDBRANCH   1  16
TORSDOF 4
ENDMDL
