REMARK  4 active torsions:
REMARK  status: ('A' for Active; 'I' for Inactive)
REMARK    1  A    between atoms: S_2  and  C_3 
REMARK    2  A    between atoms: C_7  and  O_8 
REMARK    3  A    between atoms: C_9  and  C_10 
REMARK    4  A    between atoms: C_10  and  C_11 
ROOT
HETATM    1  C   UNK N   1       0.019   2.811  -0.000  0.00  0.00     0.146 A 
HETATM    2  N   UNK N   1       1.055   1.946  -0.000  0.00  0.00    -0.336 N 
HETATM    3  N   UNK N   1      -1.176   2.193   0.000  0.00  0.00    -0.316 N 
ATOM      4  HN  UNK N   1      -2.100   2.624   0.000  1.00  0.00     0.170 HD
HETATM    5  C   UNK N   1      -0.883   0.886   0.000  0.00  0.00     0.165 A 
HETATM    6  C   UNK N   1       0.497   0.721  -0.000  0.00  0.00     0.067 A 
HETATM    7  H   UNK N   1       2.015   2.164  -0.000  0.00  0.00     0.168 HD
ENDROOT
BRANCH   6   8
HETATM    8  C   UNK N   1       1.378  -0.510   0.000  0.00  0.00     0.107 C 
BRANCH   8   9
HETATM    9  C   UNK N   1       0.876  -1.930  -0.000  0.00  0.00    -0.012 A 
HETATM   10  C   UNK N   1       1.727  -3.033   0.000  0.00  0.00     0.015 A 
HETATM   11  C   UNK N   1       1.034  -4.278   0.000  0.00  0.00     0.008 A 
HETATM   12  C   UNK N   1      -0.359  -4.154  -0.000  0.00  0.00     0.050 A 
HETATM   13  S   UNK N   1      -0.664  -2.530  -0.000  0.00  0.00    -0.106 SA
ENDBRANCH   8   9
ENDBRANCH   6   8
BRANCH   5  14
HETATM   14  O   UNK N   1      -1.832  -0.054   0.000  0.00  0.00    -0.345 OA
HETATM   15  H   UNK N   1      -2.736   0.192   0.000  0.00  0.00     0.219 HD
ENDBRANCH   5  14
BRANCH   1  16
HETATM   16  S   UNK N   1       0.231   4.595  -0.000  0.00  0.00    -0.098 SA
HETATM   17  C   UNK N   1      -1.548   4.979  -0.000  0.00  0.00     0.099 C 
ENDBRANCH   1  16
TORSDOF 4
