MODEL 1
REMARK VINA RESULT:      -5.4      0.000      0.000
REMARK  1 active torsions:
REMARK  status: ('A' for Active; 'I' for Inactive)
REMARK    1  A    between atoms: C_6  and  N_18 
ROOT
HETATM    1  C   UNK N   1      21.573  13.291   9.821  0.00  0.00     0.135 A 
HETATM    2  N   UNK N   1      20.677  12.747  10.704  0.00  0.00    -0.337 N 
ATOM      3  HN  UNK N   1      19.680  12.902  10.561  1.00  0.00     0.168 HD
HETATM    4  C   UNK N   1      21.093  11.996  11.776  0.00  0.00     0.183 A 
HETATM    5  N   UNK N   1      22.426  11.772  11.991  0.00  0.00    -0.337 N 
ATOM      6  HN  UNK N   1      22.745  11.215  12.785  1.00  0.00     0.168 HD
HETATM    7  C   UNK N   1      23.309  12.309  11.120  0.00  0.00     0.138 A 
HETATM    8  C   UNK N   1      22.929  13.048  10.062  0.00  0.00     0.122 A 
HETATM    9  N   UNK N   1      24.016  13.444   9.382  0.00  0.00    -0.346 N 
ATOM     10  HN  UNK N   1      24.051  14.014   8.537  1.00  0.00     0.167 HD
HETATM   11  C   UNK N   1      25.058  12.914  10.074  0.00  0.00     0.182 A 
HETATM   12  N   UNK N   1      24.644  12.205  11.156  0.00  0.00    -0.337 N 
HETATM   13  H   UNK N   1      25.197  11.727  11.815  0.00  0.00     0.168 HD
ENDROOT
BRANCH   1  14
HETATM   14  N   UNK N   1      21.119  14.070   8.710  0.00  0.00    -0.361 N 
HETATM   15  C   UNK N   1      20.993  13.452   7.416  0.00  0.00     0.150 A 
HETATM   16  C   UNK N   1      20.507  14.316   6.267  0.00  0.00     0.187 A 
HETATM   17  O   UNK N   1      20.187  15.675   6.443  0.00  0.00    -0.388 OA
HETATM   18  C   UNK N   1      20.321  16.252   7.724  0.00  0.00     0.187 A 
HETATM   19  C   UNK N   1      20.801  15.455   8.931  0.00  0.00     0.150 A 
ENDBRANCH   1  14
TORSDOF 1
ENDMDL
MODEL 2
REMARK VINA RESULT:      -5.3      8.523     10.576
REMARK  1 active torsions:
REMARK  status: ('A' for Active; 'I' for Inactive)
REMARK    1  A    between atoms: C_6  and  N_18 
ROOT
HETATM    1  C   UNK N   1      30.460  17.478   8.083  0.00  0.00     0.135 A 
HETATM    2  N   UNK N   1      30.206  17.273   9.414  0.00  0.00    -0.337 N 
ATOM      3  HN  UNK N   1      30.987  17.143  10.057  1.00  0.00     0.168 HD
HETATM    4  C   UNK N   1      28.922  17.237   9.902  0.00  0.00     0.183 A 
HETATM    5  N   UNK N   1      27.856  17.408   9.061  0.00  0.00    -0.337 N 
ATOM      6  HN  UNK N   1      26.899  17.383   9.414  1.00  0.00     0.168 HD
HETATM    7  C   UNK N   1      28.108  17.611   7.748  0.00  0.00     0.138 A 
HETATM    8  C   UNK N   1      29.354  17.650   7.245  0.00  0.00     0.122 A 
HETATM    9  N   UNK N   1      29.293  17.865   5.922  0.00  0.00    -0.346 N 
ATOM     10  HN  UNK N   1      30.070  17.945   5.265  1.00  0.00     0.167 HD
HETATM   11  C   UNK N   1      27.964  17.953   5.655  0.00  0.00     0.182 A 
HETATM   12  N   UNK N   1      27.209  17.798   6.774  0.00  0.00    -0.337 N 
HETATM   13  H   UNK N   1      26.227  17.819   6.850  0.00  0.00     0.168 HD
ENDROOT
BRANCH   1  14
HETATM   14  N   UNK N   1      31.806  17.512   7.596  0.00  0.00    -0.361 N 
HETATM   15  C   UNK N   1      32.121  16.875   6.344  0.00  0.00     0.150 A 
HETATM   16  C   UNK N   1      33.560  16.935   5.866  0.00  0.00     0.187 A 
HETATM   17  O   UNK N   1      34.563  17.587   6.609  0.00  0.00    -0.388 OA
HETATM   18  C   UNK N   1      34.222  18.202   7.832  0.00  0.00     0.187 A 
HETATM   19  C   UNK N   1      32.801  18.187   8.383  0.00  0.00     0.150 A 
ENDBRANCH   1  14
TORSDOF 1
ENDMDL
MODEL 3
REMARK VINA RESULT:      -5.1     13.128     14.377
REMARK  1 active torsions:
REMARK  status: ('A' for Active; 'I' for Inactive)
REMARK    1  A    between atoms: C_6  and  N_18 
ROOT
HETATM    1  C   UNK N   1      36.012  14.033  13.207  0.00  0.00     0.135 A 
HETATM    2  N   UNK N   1      36.803  14.758  14.059  0.00  0.00    -0.337 N 
ATOM      3  HN  UNK N   1      37.333  15.549  13.696  1.00  0.00     0.168 HD
HETATM    4  C   UNK N   1      36.897  14.441  15.393  0.00  0.00     0.183 A 
HETATM    5  N   UNK N   1      36.196  13.384  15.907  0.00  0.00    -0.337 N 
ATOM      6  HN  UNK N   1      36.260  13.142  16.895  1.00  0.00     0.168 HD
HETATM    7  C   UNK N   1      35.416  12.670  15.064  0.00  0.00     0.138 A 
HETATM    8  C   UNK N   1      35.306  12.958  13.756  0.00  0.00     0.122 A 
HETATM    9  N   UNK N   1      34.468  12.084  13.177  0.00  0.00    -0.346 N 
ATOM     10  HN  UNK N   1      34.184  12.044  12.198  1.00  0.00     0.167 HD
HETATM   11  C   UNK N   1      34.082  11.264  14.190  0.00  0.00     0.182 A 
HETATM   12  N   UNK N   1      34.659  11.609  15.371  0.00  0.00    -0.337 N 
HETATM   13  H   UNK N   1      34.545  11.178  16.249  0.00  0.00     0.168 HD
ENDROOT
BRANCH   1  14
HETATM   14  N   UNK N   1      35.927  14.379  11.820  0.00  0.00    -0.361 N 
HETATM   15  C   UNK N   1      34.893  15.276  11.377  0.00  0.00     0.150 A 
HETATM   16  C   UNK N   1      34.841  15.616   9.899  0.00  0.00     0.187 A 
HETATM   17  O   UNK N   1      35.765  15.080   8.981  0.00  0.00    -0.388 OA
HETATM   18  C   UNK N   1      36.767  14.203   9.446  0.00  0.00     0.187 A 
HETATM   19  C   UNK N   1      36.889  13.811  10.914  0.00  0.00     0.150 A 
ENDBRANCH   1  14
TORSDOF 1
ENDMDL
MODEL 4
REMARK VINA RESULT:      -5.1     13.012     14.164
REMARK  1 active torsions:
REMARK  status: ('A' for Active; 'I' for Inactive)
REMARK    1  A    between atoms: C_6  and  N_18 
ROOT
HETATM    1  C   UNK N   1      35.265  13.250  12.806  0.00  0.00     0.135 A 
HETATM    2  N   UNK N   1      34.449  12.162  12.982  0.00  0.00    -0.337 N 
ATOM      3  HN  UNK N   1      33.959  11.771  12.178  1.00  0.00     0.168 HD
HETATM    4  C   UNK N   1      34.278  11.587  14.218  0.00  0.00     0.183 A 
HETATM    5  N   UNK N   1      34.924  12.092  15.314  0.00  0.00    -0.337 N 
ATOM      6  HN  UNK N   1      34.803  11.672  16.235  1.00  0.00     0.168 HD
HETATM    7  C   UNK N   1      35.728  13.165  15.138  0.00  0.00     0.138 A 
HETATM    8  C   UNK N   1      35.913  13.747  13.941  0.00  0.00     0.122 A 
HETATM    9  N   UNK N   1      36.757  14.781  14.074  0.00  0.00    -0.346 N 
ATOM     10  HN  UNK N   1      37.090  15.415  13.347  1.00  0.00     0.167 HD
HETATM   11  C   UNK N   1      37.068  14.794  15.397  0.00  0.00     0.182 A 
HETATM   12  N   UNK N   1      36.441  13.800  16.077  0.00  0.00    -0.337 N 
HETATM   13  H   UNK N   1      36.497  13.594  17.039  0.00  0.00     0.168 HD
ENDROOT
BRANCH   1  14
HETATM   14  N   UNK N   1      35.429  13.833  11.510  0.00  0.00    -0.361 N 
HETATM   15  C   UNK N   1      36.521  13.405  10.674  0.00  0.00     0.150 A 
HETATM   16  C   UNK N   1      36.657  14.052   9.308  0.00  0.00     0.187 A 
HETATM   17  O   UNK N   1      35.756  15.036   8.858  0.00  0.00    -0.388 OA
HETATM   18  C   UNK N   1      34.697  15.434   9.701  0.00  0.00     0.187 A 
HETATM   19  C   UNK N   1      34.489  14.836  11.087  0.00  0.00     0.150 A 
ENDBRANCH   1  14
TORSDOF 1
ENDMDL
MODEL 5
REMARK VINA RESULT:      -5.0     12.991     13.984
REMARK  1 active torsions:
REMARK  status: ('A' for Active; 'I' for Inactive)
REMARK    1  A    between atoms: C_6  and  N_18 
ROOT
HETATM    1  C   UNK N   1      35.462  14.985  10.161  0.00  0.00     0.135 A 
HETATM    2  N   UNK N   1      34.572  14.742  11.175  0.00  0.00    -0.337 N 
ATOM      3  HN  UNK N   1      33.651  15.176  11.144  1.00  0.00     0.168 HD
HETATM    4  C   UNK N   1      34.896  13.927  12.232  0.00  0.00     0.183 A 
HETATM    5  N   UNK N   1      36.126  13.331  12.299  0.00  0.00    -0.337 N 
ATOM      6  HN  UNK N   1      36.375  12.724  13.080  1.00  0.00     0.168 HD
HETATM    7  C   UNK N   1      37.002  13.571  11.298  0.00  0.00     0.138 A 
HETATM    8  C   UNK N   1      36.713  14.365  10.252  0.00  0.00     0.122 A 
HETATM    9  N   UNK N   1      37.768  14.415   9.425  0.00  0.00    -0.346 N 
ATOM     10  HN  UNK N   1      37.852  14.932   8.549  1.00  0.00     0.167 HD
HETATM   11  C   UNK N   1      38.698  13.621  10.017  0.00  0.00     0.182 A 
HETATM   12  N   UNK N   1      38.245  13.087  11.181  0.00  0.00    -0.337 N 
HETATM   13  H   UNK N   1      38.721  12.483  11.796  0.00  0.00     0.168 HD
ENDROOT
BRANCH   1  14
HETATM   14  N   UNK N   1      35.106  15.838   9.069  0.00  0.00    -0.361 N 
HETATM   15  C   UNK N   1      34.970  15.279   7.749  0.00  0.00     0.150 A 
HETATM   16  C   UNK N   1      34.590  16.220   6.621  0.00  0.00     0.187 A 
HETATM   17  O   UNK N   1      34.375  17.594   6.841  0.00  0.00    -0.388 OA
HETATM   18  C   UNK N   1      34.517  18.112   8.145  0.00  0.00     0.187 A 
HETATM   19  C   UNK N   1      34.895  17.236   9.333  0.00  0.00     0.150 A 
ENDBRANCH   1  14
TORSDOF 1
ENDMDL
MODEL 6
REMARK VINA RESULT:      -5.0      8.324     10.460
REMARK  1 active torsions:
REMARK  status: ('A' for Active; 'I' for Inactive)
REMARK    1  A    between atoms: C_6  and  N_18 
ROOT
HETATM    1  C   UNK N   1      30.236  16.688   7.003  0.00  0.00     0.135 A 
HETATM    2  N   UNK N   1      29.261  16.254   6.143  0.00  0.00    -0.337 N 
ATOM      3  HN  UNK N   1      29.523  15.695   5.331  1.00  0.00     0.168 HD
HETATM    4  C   UNK N   1      27.936  16.555   6.350  0.00  0.00     0.183 A 
HETATM    5  N   UNK N   1      27.555  17.304   7.431  0.00  0.00    -0.337 N 
ATOM      6  HN  UNK N   1      26.575  17.532   7.593  1.00  0.00     0.168 HD
HETATM    7  C   UNK N   1      28.518  17.731   8.278  0.00  0.00     0.138 A 
HETATM    8  C   UNK N   1      29.821  17.451   8.099  0.00  0.00     0.122 A 
HETATM    9  N   UNK N   1      30.536  18.003   9.091  0.00  0.00    -0.346 N 
ATOM     10  HN  UNK N   1      31.546  17.966   9.230  1.00  0.00     0.167 HD
HETATM   11  C   UNK N   1      29.610  18.624   9.869  0.00  0.00     0.182 A 
HETATM   12  N   UNK N   1      28.351  18.468   9.384  0.00  0.00    -0.337 N 
HETATM   13  H   UNK N   1      27.510  18.817   9.758  0.00  0.00     0.168 HD
ENDROOT
BRANCH   1  14
HETATM   14  N   UNK N   1      31.609  16.363   6.769  0.00  0.00    -0.361 N 
HETATM   15  C   UNK N   1      32.174  15.190   7.383  0.00  0.00     0.150 A 
HETATM   16  C   UNK N   1      33.635  14.884   7.107  0.00  0.00     0.187 A 
HETATM   17  O   UNK N   1      34.423  15.709   6.282  0.00  0.00    -0.388 OA
HETATM   18  C   UNK N   1      33.841  16.851   5.694  0.00  0.00     0.187 A 
HETATM   19  C   UNK N   1      32.382  17.230   5.920  0.00  0.00     0.150 A 
ENDBRANCH   1  14
TORSDOF 1
ENDMDL
MODEL 7
REMARK VINA RESULT:      -5.0      5.632      8.650
REMARK  1 active torsions:
REMARK  status: ('A' for Active; 'I' for Inactive)
REMARK    1  A    between atoms: C_6  and  N_18 
ROOT
HETATM    1  C   UNK N   1      21.126  18.111   3.884  0.00  0.00     0.135 A 
HETATM    2  N   UNK N   1      21.026  19.463   4.085  0.00  0.00    -0.337 N 
ATOM      3  HN  UNK N   1      21.305  19.856   4.983  1.00  0.00     0.168 HD
HETATM    4  C   UNK N   1      20.558  20.301   3.102  0.00  0.00     0.183 A 
HETATM    5  N   UNK N   1      20.177  19.801   1.886  0.00  0.00    -0.337 N 
ATOM      6  HN  UNK N   1      19.828  20.415   1.151  1.00  0.00     0.168 HD
HETATM    7  C   UNK N   1      20.276  18.467   1.690  0.00  0.00     0.138 A 
HETATM    8  C   UNK N   1      20.730  17.624   2.634  0.00  0.00     0.122 A 
HETATM    9  N   UNK N   1      20.715  16.371   2.157  0.00  0.00    -0.346 N 
ATOM     10  HN  UNK N   1      21.000  15.515   2.635  1.00  0.00     0.167 HD
HETATM   11  C   UNK N   1      20.236  16.497   0.892  0.00  0.00     0.182 A 
HETATM   12  N   UNK N   1      19.956  17.789   0.580  0.00  0.00    -0.337 N 
HETATM   13  H   UNK N   1      19.600  18.145  -0.266  0.00  0.00     0.168 HD
ENDROOT
BRANCH   1  14
HETATM   14  N   UNK N   1      21.615  17.255   4.921  0.00  0.00    -0.361 N 
HETATM   15  C   UNK N   1      20.714  16.799   5.947  0.00  0.00     0.150 A 
HETATM   16  C   UNK N   1      21.277  15.893   7.027  0.00  0.00     0.187 A 
HETATM   17  O   UNK N   1      22.630  15.505   7.040  0.00  0.00    -0.388 OA
HETATM   18  C   UNK N   1      23.488  15.969   6.021  0.00  0.00     0.187 A 
HETATM   19  C   UNK N   1      23.004  16.881   4.900  0.00  0.00     0.150 A 
ENDBRANCH   1  14
TORSDOF 1
ENDMDL
MODEL 8
REMARK VINA RESULT:      -5.0      8.825     11.090
REMARK  1 active torsions:
REMARK  status: ('A' for Active; 'I' for Inactive)
REMARK    1  A    between atoms: C_6  and  N_18 
ROOT
HETATM    1  C   UNK N   1      31.137  16.772   7.491  0.00  0.00     0.135 A 
HETATM    2  N   UNK N   1      30.963  16.046   6.342  0.00  0.00    -0.337 N 
ATOM      3  HN  UNK N   1      31.774  15.623   5.892  1.00  0.00     0.168 HD
HETATM    4  C   UNK N   1      29.720  15.874   5.783  0.00  0.00     0.183 A 
HETATM    5  N   UNK N   1      28.614  16.431   6.367  0.00  0.00    -0.337 N 
ATOM      6  HN  UNK N   1      27.687  16.309   5.959  1.00  0.00     0.168 HD
HETATM    7  C   UNK N   1      28.787  17.147   7.500  0.00  0.00     0.138 A 
HETATM    8  C   UNK N   1      29.992  17.330   8.068  0.00  0.00     0.122 A 
HETATM    9  N   UNK N   1      29.854  18.077   9.174  0.00  0.00    -0.346 N 
ATOM     10  HN  UNK N   1      30.585  18.384   9.817  1.00  0.00     0.167 HD
HETATM   11  C   UNK N   1      28.521  18.333   9.245  0.00  0.00     0.182 A 
HETATM   12  N   UNK N   1      27.839  17.765   8.216  0.00  0.00    -0.337 N 
HETATM   13  H   UNK N   1      26.871  17.801   8.038  0.00  0.00     0.168 HD
ENDROOT
BRANCH   1  14
HETATM   14  N   UNK N   1      32.441  16.938   8.057  0.00  0.00    -0.361 N 
HETATM   15  C   UNK N   1      32.945  15.951   8.975  0.00  0.00     0.150 A 
HETATM   16  C   UNK N   1      34.332  16.168   9.551  0.00  0.00     0.187 A 
HETATM   17  O   UNK N   1      35.112  17.290   9.208  0.00  0.00    -0.388 OA
HETATM   18  C   UNK N   1      34.589  18.240   8.305  0.00  0.00     0.187 A 
HETATM   19  C   UNK N   1      33.206  18.097   7.683  0.00  0.00     0.150 A 
ENDBRANCH   1  14
TORSDOF 1
ENDMDL
MODEL 9
REMARK VINA RESULT:      -4.9      5.675      8.686
REMARK  1 active torsions:
REMARK  status: ('A' for Active; 'I' for Inactive)
REMARK    1  A    between atoms: C_6  and  N_18 
ROOT
HETATM    1  C   UNK N   1      20.571  17.089   3.239  0.00  0.00     0.135 A 
HETATM    2  N   UNK N   1      20.321  16.210   2.217  0.00  0.00    -0.337 N 
ATOM      3  HN  UNK N   1      20.306  15.209   2.412  1.00  0.00     0.168 HD
HETATM    4  C   UNK N   1      20.091  16.648   0.936  0.00  0.00     0.183 A 
HETATM    5  N   UNK N   1      20.105  17.986   0.646  0.00  0.00    -0.337 N 
ATOM      6  HN  UNK N   1      19.935  18.320  -0.302  1.00  0.00     0.168 HD
HETATM    7  C   UNK N   1      20.351  18.851   1.656  0.00  0.00     0.138 A 
HETATM    8  C   UNK N   1      20.580  18.450   2.918  0.00  0.00     0.122 A 
HETATM    9  N   UNK N   1      20.791  19.523   3.695  0.00  0.00    -0.346 N 
ATOM     10  HN  UNK N   1      20.990  19.541   4.696  1.00  0.00     0.167 HD
HETATM   11  C   UNK N   1      20.680  20.580   2.849  0.00  0.00     0.182 A 
HETATM   12  N   UNK N   1      20.408  20.187   1.577  0.00  0.00    -0.337 N 
HETATM   13  H   UNK N   1      20.281  20.753   0.782  0.00  0.00     0.168 HD
ENDROOT
BRANCH   1  14
HETATM   14  N   UNK N   1      20.808  16.611   4.567  0.00  0.00    -0.361 N 
HETATM   15  C   UNK N   1      19.691  16.235   5.395  0.00  0.00     0.150 A 
HETATM   16  C   UNK N   1      19.990  15.735   6.796  0.00  0.00     0.187 A 
HETATM   17  O   UNK N   1      21.307  15.636   7.284  0.00  0.00    -0.388 OA
HETATM   18  C   UNK N   1      22.380  16.012   6.449  0.00  0.00     0.187 A 
HETATM   19  C   UNK N   1      22.167  16.524   5.030  0.00  0.00     0.150 A 
ENDBRANCH   1  14
TORSDOF 1
ENDMDL
