REMARK  3 active torsions:
REMARK  status: ('A' for Active; 'I' for Inactive)
REMARK    1  A    between atoms: C_12  and  N_13 
REMARK    2  A    between atoms: C_18  and  C_19 
REMARK    3  A    between atoms: C_19  and  N_20 
ROOT
HETATM    1 Br   UNK N   1       3.289  -1.687  -0.022  0.00  0.00    -0.047 Br
HETATM    2  C   UNK N   1       1.468  -2.297   0.009  0.00  0.00     0.053 A 
HETATM    3  C   UNK N   1       1.316  -3.700   0.109  0.00  0.00     0.111 A 
HETATM    4  N   UNK N   1       0.085  -4.283   0.123  0.00  0.00    -0.349 N 
ATOM      5  HN  UNK N   1      -0.010  -5.296   0.194  1.00  0.00     0.167 HD
HETATM    6  C   UNK N   1      -1.006  -3.494   0.041  0.00  0.00     0.134 A 
HETATM    7  N   UNK N   1      -2.280  -3.903   0.048  0.00  0.00    -0.285 N 
HETATM    8  N   UNK N   1      -3.045  -2.821  -0.047  0.00  0.00    -0.309 N 
ATOM      9  HN  UNK N   1      -4.065  -2.819  -0.064  1.00  0.00     0.186 HD
HETATM   10  C   UNK N   1      -2.256  -1.720  -0.116  0.00  0.00     0.124 A 
HETATM   11  C   UNK N   1      -0.939  -2.141  -0.062  0.00  0.00     0.054 A 
HETATM   12  C   UNK N   1       0.298  -1.460  -0.089  0.00  0.00     0.065 A 
HETATM   13  H   UNK N   1      -2.593  -4.835   0.111  0.00  0.00     0.188 HD
ENDROOT
BRANCH  12  14
HETATM   14  N   UNK N   1       0.348  -0.020  -0.230  0.00  0.00    -0.374 N 
HETATM   15  C   UNK N   1      -0.842   0.729  -0.580  0.00  0.00     0.156 C 
HETATM   16  C   UNK N   1      -0.933   2.009   0.275  0.00  0.00     0.156 C 
HETATM   17  O   UNK N   1       0.300   2.710   0.436  0.00  0.00    -0.381 OA
HETATM   18  C   UNK N   1       1.330   2.217  -0.398  0.00  0.00     0.188 C 
HETATM   19  C   UNK N   1       1.583   0.731  -0.122  0.00  0.00     0.149 C 
BRANCH  16  20
HETATM   20  C   UNK N   1      -1.972   2.947  -0.325  0.00  0.00     0.144 C 
BRANCH  20  21
HETATM   21  N   UNK N   1      -3.286   2.321  -0.340  0.00  0.00    -0.428 N 
HETATM   22  H   UNK N   1      -4.126   2.899  -0.350  0.00  0.00     0.150 HD
HETATM   23  H   UNK N   1      -3.366   1.304  -0.340  0.00  0.00     0.150 HD
ENDBRANCH  20  21
ENDBRANCH  16  20
ENDBRANCH  12  14
TORSDOF 3
