MODEL 1
REMARK VINA RESULT:      -6.0      0.000      0.000
REMARK  3 active torsions:
REMARK  status: ('A' for Active; 'I' for Inactive)
REMARK    1  A    between atoms: C_12  and  N_13 
REMARK    2  A    between atoms: C_18  and  C_19 
REMARK    3  A    between atoms: C_19  and  N_20 
ROOT
HETATM    1 Br   UNK N   1      32.081  16.529   4.572  0.00  0.00    -0.047 Br
HETATM    2  C   UNK N   1      30.733  17.139   5.796  0.00  0.00     0.053 A 
HETATM    3  C   UNK N   1      29.479  17.419   5.204  0.00  0.00     0.111 A 
HETATM    4  N   UNK N   1      28.430  17.879   5.941  0.00  0.00    -0.349 N 
ATOM      5  HN  UNK N   1      27.532  18.078   5.501  1.00  0.00     0.167 HD
HETATM    6  C   UNK N   1      28.603  18.065   7.266  0.00  0.00     0.134 A 
HETATM    7  N   UNK N   1      27.679  18.502   8.130  0.00  0.00    -0.285 N 
HETATM    8  N   UNK N   1      28.246  18.542   9.331  0.00  0.00    -0.309 N 
ATOM      9  HN  UNK N   1      27.785  18.835  10.192  1.00  0.00     0.186 HD
HETATM   10  C   UNK N   1      29.535  18.132   9.231  0.00  0.00     0.124 A 
HETATM   11  C   UNK N   1      29.778  17.823   7.904  0.00  0.00     0.054 A 
HETATM   12  C   UNK N   1      30.914  17.351   7.211  0.00  0.00     0.065 A 
HETATM   13  H   UNK N   1      26.750  18.748   7.915  0.00  0.00     0.188 HD
ENDROOT
BRANCH  12  14
HETATM   14  N   UNK N   1      32.165  17.128   7.905  0.00  0.00    -0.374 N 
HETATM   15  C   UNK N   1      32.342  15.967   8.753  0.00  0.00     0.156 C 
HETATM   16  C   UNK N   1      33.735  15.347   8.520  0.00  0.00     0.156 C 
HETATM   17  O   UNK N   1      34.800  16.291   8.413  0.00  0.00    -0.381 OA
HETATM   18  C   UNK N   1      34.410  17.606   8.758  0.00  0.00     0.188 C 
HETATM   19  C   UNK N   1      33.258  18.079   7.865  0.00  0.00     0.149 C 
BRANCH  16  20
HETATM   20  C   UNK N   1      34.045  14.361   9.638  0.00  0.00     0.144 C 
BRANCH  20  21
HETATM   21  N   UNK N   1      33.523  14.840  10.909  0.00  0.00    -0.428 N 
HETATM   22  H   UNK N   1      33.138  14.180  11.584  0.00  0.00     0.150 HD
HETATM   23  H   UNK N   1      33.543  15.837  11.125  0.00  0.00     0.150 HD
ENDBRANCH  20  21
ENDBRANCH  16  20
ENDBRANCH  12  14
TORSDOF 3
ENDMDL
MODEL 2
REMARK VINA RESULT:      -5.9      1.261      1.815
REMARK  3 active torsions:
REMARK  status: ('A' for Active; 'I' for Inactive)
REMARK    1  A    between atoms: C_12  and  N_13 
REMARK    2  A    between atoms: C_18  and  C_19 
REMARK    3  A    between atoms: C_19  and  N_20 
ROOT
HETATM    1 Br   UNK N   1      31.012  16.789   3.757  0.00  0.00    -0.047 Br
HETATM    2  C   UNK N   1      29.932  17.451   5.201  0.00  0.00     0.053 A 
HETATM    3  C   UNK N   1      28.777  18.162   4.798  0.00  0.00     0.111 A 
HETATM    4  N   UNK N   1      27.924  18.708   5.709  0.00  0.00    -0.349 N 
ATOM      5  HN  UNK N   1      27.096  19.220   5.404  1.00  0.00     0.167 HD
HETATM    6  C   UNK N   1      28.196  18.559   7.022  0.00  0.00     0.134 A 
HETATM    7  N   UNK N   1      27.463  19.024   8.039  0.00  0.00    -0.285 N 
HETATM    8  N   UNK N   1      28.069  18.663   9.164  0.00  0.00    -0.309 N 
ATOM      9  HN  UNK N   1      27.741  18.875  10.107  1.00  0.00     0.186 HD
HETATM   10  C   UNK N   1      29.193  17.966   8.862  0.00  0.00     0.124 A 
HETATM   11  C   UNK N   1      29.287  17.894   7.484  0.00  0.00     0.054 A 
HETATM   12  C   UNK N   1      30.223  17.304   6.606  0.00  0.00     0.065 A 
HETATM   13  H   UNK N   1      26.627  19.541   7.967  0.00  0.00     0.188 HD
ENDROOT
BRANCH  12  14
HETATM   14  N   UNK N   1      31.395  16.627   7.118  0.00  0.00    -0.374 N 
HETATM   15  C   UNK N   1      32.560  17.381   7.536  0.00  0.00     0.156 C 
HETATM   16  C   UNK N   1      33.118  16.807   8.854  0.00  0.00     0.156 C 
HETATM   17  O   UNK N   1      33.161  15.382   8.916  0.00  0.00    -0.381 OA
HETATM   18  C   UNK N   1      32.886  14.765   7.673  0.00  0.00     0.188 C 
HETATM   19  C   UNK N   1      31.505  15.182   7.157  0.00  0.00     0.149 C 
BRANCH  16  20
HETATM   20  C   UNK N   1      34.513  17.366   9.100  0.00  0.00     0.144 C 
BRANCH  20  21
HETATM   21  N   UNK N   1      34.959  17.066  10.452  0.00  0.00    -0.428 N 
HETATM   22  H   UNK N   1      34.647  17.644  11.232  0.00  0.00     0.150 HD
HETATM   23  H   UNK N   1      35.584  16.277  10.620  0.00  0.00     0.150 HD
ENDBRANCH  20  21
ENDBRANCH  16  20
ENDBRANCH  12  14
TORSDOF 3
ENDMDL
MODEL 3
REMARK VINA RESULT:      -5.6      3.165      4.493
REMARK  3 active torsions:
REMARK  status: ('A' for Active; 'I' for Inactive)
REMARK    1  A    between atoms: C_12  and  N_13 
REMARK    2  A    between atoms: C_18  and  C_19 
REMARK    3  A    between atoms: C_19  and  N_20 
ROOT
HETATM    1 Br   UNK N   1      31.849  16.057   8.586  0.00  0.00    -0.047 Br
HETATM    2  C   UNK N   1      30.360  17.224   8.257  0.00  0.00     0.053 A 
HETATM    3  C   UNK N   1      29.880  17.907   9.400  0.00  0.00     0.111 A 
HETATM    4  N   UNK N   1      28.817  18.755   9.327  0.00  0.00    -0.349 N 
ATOM      5  HN  UNK N   1      28.480  19.240  10.159  1.00  0.00     0.167 HD
HETATM    6  C   UNK N   1      28.217  18.941   8.133  0.00  0.00     0.134 A 
HETATM    7  N   UNK N   1      27.172  19.740   7.889  0.00  0.00    -0.285 N 
HETATM    8  N   UNK N   1      26.891  19.642   6.595  0.00  0.00    -0.309 N 
ATOM      9  HN  UNK N   1      26.141  20.140   6.114  1.00  0.00     0.186 HD
HETATM   10  C   UNK N   1      27.759  18.778   6.013  0.00  0.00     0.124 A 
HETATM   11  C   UNK N   1      28.618  18.318   6.995  0.00  0.00     0.054 A 
HETATM   12  C   UNK N   1      29.708  17.420   6.986  0.00  0.00     0.065 A 
HETATM   13  H   UNK N   1      26.697  20.297   8.549  0.00  0.00     0.188 HD
ENDROOT
BRANCH  12  14
HETATM   14  N   UNK N   1      30.100  16.742   5.768  0.00  0.00    -0.374 N 
HETATM   15  C   UNK N   1      31.038  17.357   4.851  0.00  0.00     0.156 C 
HETATM   16  C   UNK N   1      32.052  16.309   4.349  0.00  0.00     0.156 C 
HETATM   17  O   UNK N   1      31.487  15.043   4.011  0.00  0.00    -0.381 OA
HETATM   18  C   UNK N   1      30.073  15.055   3.993  0.00  0.00     0.188 C 
HETATM   19  C   UNK N   1      29.520  15.479   5.358  0.00  0.00     0.149 C 
BRANCH  16  20
HETATM   20  C   UNK N   1      32.802  16.865   3.146  0.00  0.00     0.144 C 
BRANCH  20  21
HETATM   21  N   UNK N   1      33.514  15.805   2.446  0.00  0.00    -0.428 N 
HETATM   22  H   UNK N   1      33.099  14.877   2.369  0.00  0.00     0.150 HD
HETATM   23  H   UNK N   1      34.429  15.992   2.034  0.00  0.00     0.150 HD
ENDBRANCH  20  21
ENDBRANCH  16  20
ENDBRANCH  12  14
TORSDOF 3
ENDMDL
MODEL 4
REMARK VINA RESULT:      -5.4      9.619     10.867
REMARK  3 active torsions:
REMARK  status: ('A' for Active; 'I' for Inactive)
REMARK    1  A    between atoms: C_12  and  N_13 
REMARK    2  A    between atoms: C_18  and  C_19 
REMARK    3  A    between atoms: C_19  and  N_20 
ROOT
HETATM    1 Br   UNK N   1      24.923  18.984   4.670  0.00  0.00    -0.047 Br
HETATM    2  C   UNK N   1      23.196  19.080   3.834  0.00  0.00     0.053 A 
HETATM    3  C   UNK N   1      23.017  20.187   2.971  0.00  0.00     0.111 A 
HETATM    4  N   UNK N   1      21.839  20.400   2.322  0.00  0.00    -0.349 N 
ATOM      5  HN  UNK N   1      21.723  21.203   1.704  1.00  0.00     0.167 HD
HETATM    6  C   UNK N   1      20.828  19.527   2.512  0.00  0.00     0.134 A 
HETATM    7  N   UNK N   1      19.616  19.586   1.948  0.00  0.00    -0.285 N 
HETATM    8  N   UNK N   1      18.921  18.544   2.391  0.00  0.00    -0.309 N 
ATOM      9  HN  UNK N   1      17.959  18.323   2.132  1.00  0.00     0.186 HD
HETATM   10  C   UNK N   1      19.692  17.820   3.241  0.00  0.00     0.124 A 
HETATM   11  C   UNK N   1      20.924  18.445   3.328  0.00  0.00     0.054 A 
HETATM   12  C   UNK N   1      22.108  18.157   4.042  0.00  0.00     0.065 A 
HETATM   13  H   UNK N   1      19.297  20.276   1.321  0.00  0.00     0.188 HD
ENDROOT
BRANCH  12  14
HETATM   14  N   UNK N   1      22.179  17.016   4.929  0.00  0.00    -0.374 N 
HETATM   15  C   UNK N   1      21.812  17.143   6.325  0.00  0.00     0.156 C 
HETATM   16  C   UNK N   1      20.971  15.927   6.765  0.00  0.00     0.156 C 
HETATM   17  O   UNK N   1      21.445  14.668   6.289  0.00  0.00    -0.381 OA
HETATM   18  C   UNK N   1      22.721  14.750   5.684  0.00  0.00     0.188 C 
HETATM   19  C   UNK N   1      22.697  15.730   4.506  0.00  0.00     0.149 C 
BRANCH  16  20
HETATM   20  C   UNK N   1      20.886  15.893   8.285  0.00  0.00     0.144 C 
BRANCH  20  21
HETATM   21  N   UNK N   1      19.521  16.130   8.732  0.00  0.00    -0.428 N 
HETATM   22  H   UNK N   1      19.304  16.952   9.295  0.00  0.00     0.150 HD
HETATM   23  H   UNK N   1      18.782  15.473   8.482  0.00  0.00     0.150 HD
ENDBRANCH  20  21
ENDBRANCH  16  20
ENDBRANCH  12  14
TORSDOF 3
ENDMDL
MODEL 5
REMARK VINA RESULT:      -5.4      2.981      5.748
REMARK  3 active torsions:
REMARK  status: ('A' for Active; 'I' for Inactive)
REMARK    1  A    between atoms: C_12  and  N_13 
REMARK    2  A    between atoms: C_18  and  C_19 
REMARK    3  A    between atoms: C_19  and  N_20 
ROOT
HETATM    1 Br   UNK N   1      32.122  17.020   2.955  0.00  0.00    -0.047 Br
HETATM    2  C   UNK N   1      32.117  17.191   4.868  0.00  0.00     0.053 A 
HETATM    3  C   UNK N   1      33.386  17.437   5.443  0.00  0.00     0.111 A 
HETATM    4  N   UNK N   1      33.544  17.563   6.790  0.00  0.00    -0.349 N 
ATOM      5  HN  UNK N   1      34.465  17.738   7.191  1.00  0.00     0.167 HD
HETATM    6  C   UNK N   1      32.458  17.451   7.583  0.00  0.00     0.134 A 
HETATM    7  N   UNK N   1      32.439  17.554   8.916  0.00  0.00    -0.285 N 
HETATM    8  N   UNK N   1      31.181  17.386   9.310  0.00  0.00    -0.309 N 
ATOM      9  HN  UNK N   1      30.856  17.413  10.276  1.00  0.00     0.186 HD
HETATM   10  C   UNK N   1      30.397  17.173   8.223  0.00  0.00     0.124 A 
HETATM   11  C   UNK N   1      31.209  17.211   7.104  0.00  0.00     0.054 A 
HETATM   12  C   UNK N   1      30.962  17.062   5.721  0.00  0.00     0.065 A 
HETATM   13  H   UNK N   1      33.214  17.723   9.500  0.00  0.00     0.188 HD
ENDROOT
BRANCH  12  14
HETATM   14  N   UNK N   1      29.629  16.776   5.234  0.00  0.00    -0.374 N 
HETATM   15  C   UNK N   1      28.610  17.807   5.224  0.00  0.00     0.156 C 
HETATM   16  C   UNK N   1      27.815  17.753   3.904  0.00  0.00     0.156 C 
HETATM   17  O   UNK N   1      27.470  16.439   3.466  0.00  0.00    -0.381 OA
HETATM   18  C   UNK N   1      27.734  15.445   4.436  0.00  0.00     0.188 C 
HETATM   19  C   UNK N   1      29.217  15.449   4.822  0.00  0.00     0.149 C 
BRANCH  16  20
HETATM   20  C   UNK N   1      26.549  18.588   4.040  0.00  0.00     0.144 C 
BRANCH  20  21
HETATM   21  N   UNK N   1      26.066  18.575   5.414  0.00  0.00    -0.428 N 
HETATM   22  H   UNK N   1      26.512  19.165   6.116  0.00  0.00     0.150 HD
HETATM   23  H   UNK N   1      25.283  17.975   5.673  0.00  0.00     0.150 HD
ENDBRANCH  20  21
ENDBRANCH  16  20
ENDBRANCH  12  14
TORSDOF 3
ENDMDL
MODEL 6
REMARK VINA RESULT:      -5.3      2.660      2.870
REMARK  3 active torsions:
REMARK  status: ('A' for Active; 'I' for Inactive)
REMARK    1  A    between atoms: C_12  and  N_13 
REMARK    2  A    between atoms: C_18  and  C_19 
REMARK    3  A    between atoms: C_19  and  N_20 
ROOT
HETATM    1 Br   UNK N   1      28.685  16.956   3.706  0.00  0.00    -0.047 Br
HETATM    2  C   UNK N   1      28.766  17.455   5.559  0.00  0.00     0.053 A 
HETATM    3  C   UNK N   1      27.625  18.140   6.038  0.00  0.00     0.111 A 
HETATM    4  N   UNK N   1      27.545  18.575   7.327  0.00  0.00    -0.349 N 
ATOM      5  HN  UNK N   1      26.716  19.068   7.658  1.00  0.00     0.167 HD
HETATM    6  C   UNK N   1      28.582  18.339   8.155  0.00  0.00     0.134 A 
HETATM    7  N   UNK N   1      28.661  18.690   9.444  0.00  0.00    -0.285 N 
HETATM    8  N   UNK N   1      29.837  18.273   9.898  0.00  0.00    -0.309 N 
ATOM      9  HN  UNK N   1      30.180  18.397  10.851  1.00  0.00     0.186 HD
HETATM   10  C   UNK N   1      30.510  17.655   8.896  0.00  0.00     0.124 A 
HETATM   11  C   UNK N   1      29.712  17.692   7.767  0.00  0.00     0.054 A 
HETATM   12  C   UNK N   1      29.877  17.215   6.447  0.00  0.00     0.065 A 
HETATM   13  H   UNK N   1      27.973  19.171   9.960  0.00  0.00     0.188 HD
ENDROOT
BRANCH  12  14
HETATM   14  N   UNK N   1      31.101  16.556   6.045  0.00  0.00    -0.374 N 
HETATM   15  C   UNK N   1      31.289  15.139   6.284  0.00  0.00     0.156 C 
HETATM   16  C   UNK N   1      31.928  14.474   5.048  0.00  0.00     0.156 C 
HETATM   17  O   UNK N   1      32.989  15.219   4.449  0.00  0.00    -0.381 OA
HETATM   18  C   UNK N   1      33.399  16.324   5.230  0.00  0.00     0.188 C 
HETATM   19  C   UNK N   1      32.223  17.276   5.476  0.00  0.00     0.149 C 
BRANCH  16  20
HETATM   20  C   UNK N   1      32.435  13.088   5.423  0.00  0.00     0.144 C 
BRANCH  20  21
HETATM   21  N   UNK N   1      32.558  12.956   6.868  0.00  0.00    -0.428 N 
HETATM   22  H   UNK N   1      31.810  12.518   7.405  0.00  0.00     0.150 HD
HETATM   23  H   UNK N   1      33.392  13.302   7.342  0.00  0.00     0.150 HD
ENDBRANCH  20  21
ENDBRANCH  16  20
ENDBRANCH  12  14
TORSDOF 3
ENDMDL
MODEL 7
REMARK VINA RESULT:      -5.2      3.569      6.379
REMARK  3 active torsions:
REMARK  status: ('A' for Active; 'I' for Inactive)
REMARK    1  A    between atoms: C_12  and  N_13 
REMARK    2  A    between atoms: C_18  and  C_19 
REMARK    3  A    between atoms: C_19  and  N_20 
ROOT
HETATM    1 Br   UNK N   1      30.086  16.522   3.609  0.00  0.00    -0.047 Br
HETATM    2  C   UNK N   1      29.921  16.980   5.467  0.00  0.00     0.053 A 
HETATM    3  C   UNK N   1      30.861  16.350   6.317  0.00  0.00     0.111 A 
HETATM    4  N   UNK N   1      30.856  16.561   7.663  0.00  0.00    -0.349 N 
ATOM      5  HN  UNK N   1      31.539  16.099   8.264  1.00  0.00     0.167 HD
HETATM    6  C   UNK N   1      29.932  17.393   8.185  0.00  0.00     0.134 A 
HETATM    7  N   UNK N   1      29.795  17.713   9.477  0.00  0.00    -0.285 N 
HETATM    8  N   UNK N   1      28.775  18.558   9.571  0.00  0.00    -0.309 N 
ATOM      9  HN  UNK N   1      28.434  18.978  10.436  1.00  0.00     0.186 HD
HETATM   10  C   UNK N   1      28.260  18.777   8.335  0.00  0.00     0.124 A 
HETATM   11  C   UNK N   1      28.996  18.030   7.433  0.00  0.00     0.054 A 
HETATM   12  C   UNK N   1      28.929  17.860   6.033  0.00  0.00     0.065 A 
HETATM   13  H   UNK N   1      30.349  17.381  10.221  0.00  0.00     0.188 HD
ENDROOT
BRANCH  12  14
HETATM   14  N   UNK N   1      27.905  18.524   5.254  0.00  0.00    -0.374 N 
HETATM   15  C   UNK N   1      26.637  17.873   4.996  0.00  0.00     0.156 C 
HETATM   16  C   UNK N   1      25.480  18.879   5.168  0.00  0.00     0.156 C 
HETATM   17  O   UNK N   1      25.720  20.169   4.605  0.00  0.00    -0.381 OA
HETATM   18  C   UNK N   1      26.886  20.216   3.806  0.00  0.00     0.188 C 
HETATM   19  C   UNK N   1      28.117  19.812   4.624  0.00  0.00     0.149 C 
BRANCH  16  20
HETATM   20  C   UNK N   1      24.208  18.296   4.568  0.00  0.00     0.144 C 
BRANCH  20  21
HETATM   21  N   UNK N   1      23.204  18.077   5.599  0.00  0.00    -0.428 N 
HETATM   22  H   UNK N   1      22.280  18.499   5.508  0.00  0.00     0.150 HD
HETATM   23  H   UNK N   1      23.425  17.502   6.412  0.00  0.00     0.150 HD
ENDBRANCH  20  21
ENDBRANCH  16  20
ENDBRANCH  12  14
TORSDOF 3
ENDMDL
MODEL 8
REMARK VINA RESULT:      -5.2      9.655     11.373
REMARK  3 active torsions:
REMARK  status: ('A' for Active; 'I' for Inactive)
REMARK    1  A    between atoms: C_12  and  N_13 
REMARK    2  A    between atoms: C_18  and  C_19 
REMARK    3  A    between atoms: C_19  and  N_20 
ROOT
HETATM    1 Br   UNK N   1      20.657  14.284   2.224  0.00  0.00    -0.047 Br
HETATM    2  C   UNK N   1      20.588  16.201   2.128  0.00  0.00     0.053 A 
HETATM    3  C   UNK N   1      20.125  16.715   0.894  0.00  0.00     0.111 A 
HETATM    4  N   UNK N   1      20.038  18.055   0.669  0.00  0.00    -0.349 N 
ATOM      5  HN  UNK N   1      19.704  18.412  -0.226  1.00  0.00     0.167 HD
HETATM    6  C   UNK N   1      20.404  18.902   1.654  0.00  0.00     0.134 A 
HETATM    7  N   UNK N   1      20.375  20.239   1.599  0.00  0.00    -0.285 N 
HETATM    8  N   UNK N   1      20.810  20.694   2.769  0.00  0.00    -0.309 N 
ATOM      9  HN  UNK N   1      20.897  21.678   3.024  1.00  0.00     0.186 HD
HETATM   10  C   UNK N   1      21.119  19.644   3.570  0.00  0.00     0.124 A 
HETATM   11  C   UNK N   1      20.863  18.483   2.862  0.00  0.00     0.054 A 
HETATM   12  C   UNK N   1      20.988  17.111   3.173  0.00  0.00     0.065 A 
HETATM   13  H   UNK N   1      20.085  20.784   0.832  0.00  0.00     0.188 HD
ENDROOT
BRANCH  12  14
HETATM   14  N   UNK N   1      21.508  16.686   4.455  0.00  0.00    -0.374 N 
HETATM   15  C   UNK N   1      20.645  16.627   5.618  0.00  0.00     0.156 C 
HETATM   16  C   UNK N   1      20.923  15.338   6.418  0.00  0.00     0.156 C 
HETATM   17  O   UNK N   1      22.305  15.012   6.568  0.00  0.00    -0.381 OA
HETATM   18  C   UNK N   1      23.167  16.048   6.140  0.00  0.00     0.188 C 
HETATM   19  C   UNK N   1      22.911  16.390   4.668  0.00  0.00     0.149 C 
BRANCH  16  20
HETATM   20  C   UNK N   1      20.279  15.446   7.794  0.00  0.00     0.144 C 
BRANCH  20  21
HETATM   21  N   UNK N   1      20.291  16.824   8.263  0.00  0.00    -0.428 N 
HETATM   22  H   UNK N   1      21.171  17.338   8.313  0.00  0.00     0.150 HD
HETATM   23  H   UNK N   1      19.420  17.275   8.543  0.00  0.00     0.150 HD
ENDBRANCH  20  21
ENDBRANCH  16  20
ENDBRANCH  12  14
TORSDOF 3
ENDMDL
MODEL 9
REMARK VINA RESULT:      -5.2      5.351      8.678
REMARK  3 active torsions:
REMARK  status: ('A' for Active; 'I' for Inactive)
REMARK    1  A    between atoms: C_12  and  N_13 
REMARK    2  A    between atoms: C_18  and  C_19 
REMARK    3  A    between atoms: C_19  and  N_20 
ROOT
HETATM    1 Br   UNK N   1      34.016  10.338  11.023  0.00  0.00    -0.047 Br
HETATM    2  C   UNK N   1      34.484  11.153  12.698  0.00  0.00     0.053 A 
HETATM    3  C   UNK N   1      33.944  10.513  13.838  0.00  0.00     0.111 A 
HETATM    4  N   UNK N   1      34.172  10.987  15.095  0.00  0.00    -0.349 N 
ATOM      5  HN  UNK N   1      33.775  10.516  15.908  1.00  0.00     0.167 HD
HETATM    6  C   UNK N   1      34.933  12.091  15.243  0.00  0.00     0.134 A 
HETATM    7  N   UNK N   1      35.257  12.679  16.400  0.00  0.00    -0.285 N 
HETATM    8  N   UNK N   1      36.017  13.729  16.113  0.00  0.00    -0.309 N 
ATOM      9  HN  UNK N   1      36.419  14.372  16.796  1.00  0.00     0.186 HD
HETATM   10  C   UNK N   1      36.176  13.812  14.768  0.00  0.00     0.124 A 
HETATM   11  C   UNK N   1      35.480  12.761  14.196  0.00  0.00     0.054 A 
HETATM   12  C   UNK N   1      35.287  12.339  12.862  0.00  0.00     0.065 A 
HETATM   13  H   UNK N   1      34.982  12.386  17.300  0.00  0.00     0.188 HD
ENDROOT
BRANCH  12  14
HETATM   14  N   UNK N   1      35.855  13.086  11.759  0.00  0.00    -0.374 N 
HETATM   15  C   UNK N   1      35.016  13.927  10.929  0.00  0.00     0.156 C 
HETATM   16  C   UNK N   1      35.727  15.265  10.643  0.00  0.00     0.156 C 
HETATM   17  O   UNK N   1      37.115  15.151  10.328  0.00  0.00    -0.381 OA
HETATM   18  C   UNK N   1      37.528  13.814  10.126  0.00  0.00     0.188 C 
HETATM   19  C   UNK N   1      37.246  12.967  11.372  0.00  0.00     0.149 C 
BRANCH  16  20
HETATM   20  C   UNK N   1      35.011  15.988   9.509  0.00  0.00     0.144 C 
BRANCH  20  21
HETATM   21  N   UNK N   1      34.599  17.320   9.925  0.00  0.00    -0.428 N 
HETATM   22  H   UNK N   1      35.038  18.142   9.512  0.00  0.00     0.150 HD
HETATM   23  H   UNK N   1      33.870  17.431  10.630  0.00  0.00     0.150 HD
ENDBRANCH  20  21
ENDBRANCH  16  20
ENDBRANCH  12  14
TORSDOF 3
ENDMDL
