MODEL 1
REMARK VINA RESULT:      -5.1      0.000      0.000
REMARK  5 active torsions:
REMARK  status: ('A' for Active; 'I' for Inactive)
REMARK    1  A    between atoms: C_1  and  S_7 
REMARK    2  A    between atoms: C_4  and  C_11 
REMARK    3  A    between atoms: S_7  and  N_10 
REMARK    4  A    between atoms: C_11  and  C_12 
REMARK    5  A    between atoms: C_12  and  N_13 
ROOT
HETATM    1  C   UNK N   1      20.629  14.785   8.724  0.00  0.00     0.079 A 
HETATM    2  C   UNK N   1      20.206  14.090   9.861  0.00  0.00     0.026 A 
HETATM    3  C   UNK N   1      20.950  13.006  10.333  0.00  0.00     0.009 A 
HETATM    4  C   UNK N   1      22.122  12.619   9.670  0.00  0.00    -0.057 A 
HETATM    5  C   UNK N   1      22.531  13.300   8.520  0.00  0.00     0.009 A 
HETATM    6  C   UNK N   1      21.787  14.387   8.049  0.00  0.00     0.026 A 
ENDROOT
BRANCH   1   7
HETATM    7  S   UNK N   1      19.745  16.246   8.194  0.00  0.00     0.256 S 
HETATM    8  O   UNK N   1      20.658  17.448   7.916  0.00  0.00    -0.201 OA
HETATM    9  O   UNK N   1      19.061  16.034   6.836  0.00  0.00    -0.201 OA
BRANCH   7  10
HETATM   10  N   UNK N   1      18.472  16.864   9.246  0.00  0.00    -0.324 N 
HETATM   11  H   UNK N   1      17.852  16.215   9.732  0.00  0.00     0.169 HD
HETATM   12  H   UNK N   1      18.355  17.870   9.369  0.00  0.00     0.169 HD
ENDBRANCH   7  10
ENDBRANCH   1   7
BRANCH   4  13
HETATM   13  C   UNK N   1      22.961  11.511  10.210  0.00  0.00     0.057 C 
BRANCH  13  14
HETATM   14  C   UNK N   1      23.692  11.992  11.454  0.00  0.00     0.115 C 
BRANCH  14  15
HETATM   15  N   UNK N   1      24.998  12.506  11.091  0.00  0.00    -0.430 N 
HETATM   16  H   UNK N   1      25.368  13.337  11.553  0.00  0.00     0.149 HD
HETATM   17  H   UNK N   1      25.549  12.036  10.372  0.00  0.00     0.149 HD
ENDBRANCH  14  15
ENDBRANCH  13  14
ENDBRANCH   4  13
TORSDOF 5
ENDMDL
MODEL 2
REMARK VINA RESULT:      -5.0     13.131     13.882
REMARK  5 active torsions:
REMARK  status: ('A' for Active; 'I' for Inactive)
REMARK    1  A    between atoms: C_1  and  S_7 
REMARK    2  A    between atoms: C_4  and  C_11 
REMARK    3  A    between atoms: S_7  and  N_10 
REMARK    4  A    between atoms: C_11  and  C_12 
REMARK    5  A    between atoms: C_12  and  N_13 
ROOT
HETATM    1  C   UNK N   1      34.680  16.586   9.398  0.00  0.00     0.079 A 
HETATM    2  C   UNK N   1      34.188  15.304   9.133  0.00  0.00     0.026 A 
HETATM    3  C   UNK N   1      34.372  14.280  10.066  0.00  0.00     0.009 A 
HETATM    4  C   UNK N   1      35.044  14.540  11.267  0.00  0.00    -0.057 A 
HETATM    5  C   UNK N   1      35.556  15.816  11.520  0.00  0.00     0.009 A 
HETATM    6  C   UNK N   1      35.369  16.841  10.586  0.00  0.00     0.026 A 
ENDROOT
BRANCH   1   7
HETATM    7  S   UNK N   1      34.338  17.922   8.260  0.00  0.00     0.256 S 
HETATM    8  O   UNK N   1      35.214  19.161   8.489  0.00  0.00    -0.201 OA
HETATM    9  O   UNK N   1      34.683  17.540   6.814  0.00  0.00    -0.201 OA
BRANCH   7  10
HETATM   10  N   UNK N   1      32.685  18.532   8.181  0.00  0.00    -0.324 N 
HETATM   11  H   UNK N   1      31.999  18.240   8.878  0.00  0.00     0.169 HD
HETATM   12  H   UNK N   1      32.414  19.178   7.439  0.00  0.00     0.169 HD
ENDBRANCH   7  10
ENDBRANCH   1   7
BRANCH   4  13
HETATM   13  C   UNK N   1      35.179  13.473  12.300  0.00  0.00     0.057 C 
BRANCH  13  14
HETATM   14  C   UNK N   1      36.497  13.647  13.038  0.00  0.00     0.115 C 
BRANCH  14  15
HETATM   15  N   UNK N   1      37.572  13.044  12.274  0.00  0.00    -0.430 N 
HETATM   16  H   UNK N   1      37.389  12.231  11.686  0.00  0.00     0.149 HD
HETATM   17  H   UNK N   1      38.514  13.433  12.326  0.00  0.00     0.149 HD
ENDBRANCH  14  15
ENDBRANCH  13  14
ENDBRANCH   4  13
TORSDOF 5
ENDMDL
MODEL 3
REMARK VINA RESULT:      -5.0      7.660      8.544
REMARK  5 active torsions:
REMARK  status: ('A' for Active; 'I' for Inactive)
REMARK    1  A    between atoms: C_1  and  S_7 
REMARK    2  A    between atoms: C_4  and  C_11 
REMARK    3  A    between atoms: S_7  and  N_10 
REMARK    4  A    between atoms: C_11  and  C_12 
REMARK    5  A    between atoms: C_12  and  N_13 
ROOT
HETATM    1  C   UNK N   1      22.835  19.838   3.154  0.00  0.00     0.079 A 
HETATM    2  C   UNK N   1      23.067  18.762   4.015  0.00  0.00     0.026 A 
HETATM    3  C   UNK N   1      24.358  18.516   4.493  0.00  0.00     0.009 A 
HETATM    4  C   UNK N   1      25.416  19.352   4.112  0.00  0.00    -0.057 A 
HETATM    5  C   UNK N   1      25.186  20.414   3.232  0.00  0.00     0.009 A 
HETATM    6  C   UNK N   1      23.893  20.660   2.756  0.00  0.00     0.026 A 
ENDROOT
BRANCH   1   7
HETATM    7  S   UNK N   1      21.166  20.223   2.643  0.00  0.00     0.256 S 
HETATM    8  O   UNK N   1      20.264  20.692   3.794  0.00  0.00    -0.201 OA
HETATM    9  O   UNK N   1      21.126  21.424   1.687  0.00  0.00    -0.201 OA
BRANCH   7  10
HETATM   10  N   UNK N   1      20.247  18.963   1.819  0.00  0.00    -0.324 N 
HETATM   11  H   UNK N   1      20.559  17.993   1.861  0.00  0.00     0.169 HD
HETATM   12  H   UNK N   1      19.402  19.205   1.299  0.00  0.00     0.169 HD
ENDBRANCH   7  10
ENDBRANCH   1   7
BRANCH   4  13
HETATM   13  C   UNK N   1      26.780  19.143   4.675  0.00  0.00     0.057 C 
BRANCH  13  14
HETATM   14  C   UNK N   1      27.191  20.371   5.472  0.00  0.00     0.115 C 
BRANCH  14  15
HETATM   15  N   UNK N   1      26.588  20.328   6.790  0.00  0.00    -0.430 N 
HETATM   16  H   UNK N   1      26.376  21.196   7.284  0.00  0.00     0.149 HD
HETATM   17  H   UNK N   1      26.375  19.430   7.224  0.00  0.00     0.149 HD
ENDBRANCH  14  15
ENDBRANCH  13  14
ENDBRANCH   4  13
TORSDOF 5
ENDMDL
MODEL 4
REMARK VINA RESULT:      -5.0     15.831     16.790
REMARK  5 active torsions:
REMARK  status: ('A' for Active; 'I' for Inactive)
REMARK    1  A    between atoms: C_1  and  S_7 
REMARK    2  A    between atoms: C_4  and  C_11 
REMARK    3  A    between atoms: S_7  and  N_10 
REMARK    4  A    between atoms: C_11  and  C_12 
REMARK    5  A    between atoms: C_12  and  N_13 
ROOT
HETATM    1  C   UNK N   1      35.717  12.696  15.943  0.00  0.00     0.079 A 
HETATM    2  C   UNK N   1      35.282  13.594  16.923  0.00  0.00     0.026 A 
HETATM    3  C   UNK N   1      35.107  13.159  18.239  0.00  0.00     0.009 A 
HETATM    4  C   UNK N   1      35.371  11.826  18.577  0.00  0.00    -0.057 A 
HETATM    5  C   UNK N   1      35.783  10.923  17.592  0.00  0.00     0.009 A 
HETATM    6  C   UNK N   1      35.960  11.360  16.274  0.00  0.00     0.026 A 
ENDROOT
BRANCH   1   7
HETATM    7  S   UNK N   1      36.057  13.282  14.288  0.00  0.00     0.256 S 
HETATM    8  O   UNK N   1      36.965  12.344  13.481  0.00  0.00    -0.201 OA
HETATM    9  O   UNK N   1      34.786  13.326  13.429  0.00  0.00    -0.201 OA
BRANCH   7  10
HETATM   10  N   UNK N   1      36.774  14.884  14.114  0.00  0.00    -0.324 N 
HETATM   11  H   UNK N   1      36.316  15.587  13.535  0.00  0.00     0.169 HD
HETATM   12  H   UNK N   1      37.647  15.107  14.593  0.00  0.00     0.169 HD
ENDBRANCH   7  10
ENDBRANCH   1   7
BRANCH   4  13
HETATM   13  C   UNK N   1      35.260  11.372  19.993  0.00  0.00     0.057 C 
BRANCH  13  14
HETATM   14  C   UNK N   1      36.429  10.458  20.324  0.00  0.00     0.115 C 
BRANCH  14  15
HETATM   15  N   UNK N   1      37.059  10.891  21.556  0.00  0.00    -0.430 N 
HETATM   16  H   UNK N   1      37.500  10.208  22.173  0.00  0.00     0.149 HD
HETATM   17  H   UNK N   1      37.062  11.880  21.807  0.00  0.00     0.149 HD
ENDBRANCH  14  15
ENDBRANCH  13  14
ENDBRANCH   4  13
TORSDOF 5
ENDMDL
MODEL 5
REMARK VINA RESULT:      -4.9     10.636     11.999
REMARK  5 active torsions:
REMARK  status: ('A' for Active; 'I' for Inactive)
REMARK    1  A    between atoms: C_1  and  S_7 
REMARK    2  A    between atoms: C_4  and  C_11 
REMARK    3  A    between atoms: S_7  and  N_10 
REMARK    4  A    between atoms: C_11  and  C_12 
REMARK    5  A    between atoms: C_12  and  N_13 
ROOT
HETATM    1  C   UNK N   1      32.332  17.540   7.868  0.00  0.00     0.079 A 
HETATM    2  C   UNK N   1      31.908  17.096   6.611  0.00  0.00     0.026 A 
HETATM    3  C   UNK N   1      30.551  17.139   6.278  0.00  0.00     0.009 A 
HETATM    4  C   UNK N   1      29.618  17.630   7.200  0.00  0.00    -0.057 A 
HETATM    5  C   UNK N   1      30.041  18.051   8.465  0.00  0.00     0.009 A 
HETATM    6  C   UNK N   1      31.400  18.010   8.797  0.00  0.00     0.026 A 
ENDROOT
BRANCH   1   7
HETATM    7  S   UNK N   1      34.078  17.599   8.247  0.00  0.00     0.256 S 
HETATM    8  O   UNK N   1      34.937  16.733   7.315  0.00  0.00    -0.201 OA
HETATM    9  O   UNK N   1      34.661  19.001   8.021  0.00  0.00    -0.201 OA
BRANCH   7  10
HETATM   10  N   UNK N   1      34.580  17.161   9.880  0.00  0.00    -0.324 N 
HETATM   11  H   UNK N   1      35.360  16.517  10.019  0.00  0.00     0.169 HD
HETATM   12  H   UNK N   1      34.091  17.551  10.686  0.00  0.00     0.169 HD
ENDBRANCH   7  10
ENDBRANCH   1   7
BRANCH   4  13
HETATM   13  C   UNK N   1      28.180  17.749   6.825  0.00  0.00     0.057 C 
BRANCH  13  14
HETATM   14  C   UNK N   1      27.903  19.159   6.328  0.00  0.00     0.115 C 
BRANCH  14  15
HETATM   15  N   UNK N   1      27.122  19.884   7.312  0.00  0.00    -0.430 N 
HETATM   16  H   UNK N   1      26.123  19.699   7.410  0.00  0.00     0.149 HD
HETATM   17  H   UNK N   1      27.572  20.580   7.906  0.00  0.00     0.149 HD
ENDBRANCH  14  15
ENDBRANCH  13  14
ENDBRANCH   4  13
TORSDOF 5
ENDMDL
MODEL 6
REMARK VINA RESULT:      -4.9     10.175     11.147
REMARK  5 active torsions:
REMARK  status: ('A' for Active; 'I' for Inactive)
REMARK    1  A    between atoms: C_1  and  S_7 
REMARK    2  A    between atoms: C_4  and  C_11 
REMARK    3  A    between atoms: S_7  and  N_10 
REMARK    4  A    between atoms: C_11  and  C_12 
REMARK    5  A    between atoms: C_12  and  N_13 
ROOT
HETATM    1  C   UNK N   1      30.484  17.701   8.126  0.00  0.00     0.079 A 
HETATM    2  C   UNK N   1      30.032  17.295   6.867  0.00  0.00     0.026 A 
HETATM    3  C   UNK N   1      30.950  17.037   5.845  0.00  0.00     0.009 A 
HETATM    4  C   UNK N   1      32.323  17.181   6.085  0.00  0.00    -0.057 A 
HETATM    5  C   UNK N   1      32.772  17.609   7.337  0.00  0.00     0.009 A 
HETATM    6  C   UNK N   1      31.852  17.865   8.360  0.00  0.00     0.026 A 
ENDROOT
BRANCH   1   7
HETATM    7  S   UNK N   1      29.318  17.912   9.464  0.00  0.00     0.256 S 
HETATM    8  O   UNK N   1      29.231  16.697  10.398  0.00  0.00    -0.201 OA
HETATM    9  O   UNK N   1      29.750  19.030  10.423  0.00  0.00    -0.201 OA
BRANCH   7  10
HETATM   10  N   UNK N   1      27.648  18.297   9.047  0.00  0.00    -0.324 N 
HETATM   11  H   UNK N   1      27.351  19.270   8.978  0.00  0.00     0.169 HD
HETATM   12  H   UNK N   1      26.979  17.546   8.875  0.00  0.00     0.169 HD
ENDBRANCH   7  10
ENDBRANCH   1   7
BRANCH   4  13
HETATM   13  C   UNK N   1      33.312  16.835   5.024  0.00  0.00     0.057 C 
BRANCH  13  14
HETATM   14  C   UNK N   1      32.738  17.195   3.662  0.00  0.00     0.115 C 
BRANCH  14  15
HETATM   15  N   UNK N   1      33.125  16.196   2.685  0.00  0.00    -0.430 N 
HETATM   16  H   UNK N   1      32.548  16.039   1.858  0.00  0.00     0.149 HD
HETATM   17  H   UNK N   1      33.975  15.649   2.824  0.00  0.00     0.149 HD
ENDBRANCH  14  15
ENDBRANCH  13  14
ENDBRANCH   4  13
TORSDOF 5
ENDMDL
MODEL 7
REMARK VINA RESULT:      -4.8      2.302      2.698
REMARK  5 active torsions:
REMARK  status: ('A' for Active; 'I' for Inactive)
REMARK    1  A    between atoms: C_1  and  S_7 
REMARK    2  A    between atoms: C_4  and  C_11 
REMARK    3  A    between atoms: S_7  and  N_10 
REMARK    4  A    between atoms: C_11  and  C_12 
REMARK    5  A    between atoms: C_12  and  N_13 
ROOT
HETATM    1  C   UNK N   1      21.331  15.915   7.477  0.00  0.00     0.079 A 
HETATM    2  C   UNK N   1      20.310  15.939   8.432  0.00  0.00     0.026 A 
HETATM    3  C   UNK N   1      20.206  14.906   9.369  0.00  0.00     0.009 A 
HETATM    4  C   UNK N   1      21.128  13.852   9.353  0.00  0.00    -0.057 A 
HETATM    5  C   UNK N   1      22.134  13.817   8.383  0.00  0.00     0.009 A 
HETATM    6  C   UNK N   1      22.238  14.852   7.447  0.00  0.00     0.026 A 
ENDROOT
BRANCH   1   7
HETATM    7  S   UNK N   1      21.535  17.295   6.360  0.00  0.00     0.256 S 
HETATM    8  O   UNK N   1      20.603  17.240   5.141  0.00  0.00    -0.201 OA
HETATM    9  O   UNK N   1      21.136  18.623   7.017  0.00  0.00    -0.201 OA
BRANCH   7  10
HETATM   10  N   UNK N   1      23.145  17.587   5.699  0.00  0.00    -0.324 N 
HETATM   11  H   UNK N   1      23.276  18.283   4.965  0.00  0.00     0.169 HD
HETATM   12  H   UNK N   1      23.944  17.060   6.051  0.00  0.00     0.169 HD
ENDBRANCH   7  10
ENDBRANCH   1   7
BRANCH   4  13
HETATM   13  C   UNK N   1      21.071  12.786  10.395  0.00  0.00     0.057 C 
BRANCH  13  14
HETATM   14  C   UNK N   1      22.482  12.442  10.844  0.00  0.00     0.115 C 
BRANCH  14  15
HETATM   15  N   UNK N   1      22.436  11.699  12.088  0.00  0.00    -0.430 N 
HETATM   16  H   UNK N   1      22.804  10.749  12.131  0.00  0.00     0.149 HD
HETATM   17  H   UNK N   1      22.034  12.127  12.923  0.00  0.00     0.149 HD
ENDBRANCH  14  15
ENDBRANCH  13  14
ENDBRANCH   4  13
TORSDOF 5
ENDMDL
MODEL 8
REMARK VINA RESULT:      -4.8     18.647     19.885
REMARK  5 active torsions:
REMARK  status: ('A' for Active; 'I' for Inactive)
REMARK    1  A    between atoms: C_1  and  S_7 
REMARK    2  A    between atoms: C_4  and  C_11 
REMARK    3  A    between atoms: S_7  and  N_10 
REMARK    4  A    between atoms: C_11  and  C_12 
REMARK    5  A    between atoms: C_12  and  N_13 
ROOT
HETATM    1  C   UNK N   1      25.779  24.992  -5.728  0.00  0.00     0.079 A 
HETATM    2  C   UNK N   1      25.221  26.197  -6.167  0.00  0.00     0.026 A 
HETATM    3  C   UNK N   1      25.284  27.332  -5.354  0.00  0.00     0.009 A 
HETATM    4  C   UNK N   1      25.909  27.263  -4.102  0.00  0.00    -0.057 A 
HETATM    5  C   UNK N   1      26.446  26.052  -3.655  0.00  0.00     0.009 A 
HETATM    6  C   UNK N   1      26.385  24.917  -4.470  0.00  0.00     0.026 A 
ENDROOT
BRANCH   1   7
HETATM    7  S   UNK N   1      25.807  23.576  -6.818  0.00  0.00     0.256 S 
HETATM    8  O   UNK N   1      24.993  22.384  -6.294  0.00  0.00    -0.201 OA
HETATM    9  O   UNK N   1      25.122  23.876  -8.158  0.00  0.00    -0.201 OA
BRANCH   7  10
HETATM   10  N   UNK N   1      27.379  22.906  -7.257  0.00  0.00    -0.324 N 
HETATM   11  H   UNK N   1      28.100  22.789  -6.545  0.00  0.00     0.169 HD
HETATM   12  H   UNK N   1      27.566  22.636  -8.223  0.00  0.00     0.169 HD
ENDBRANCH   7  10
ENDBRANCH   1   7
BRANCH   4  13
HETATM   13  C   UNK N   1      26.046  28.487  -3.262  0.00  0.00     0.057 C 
BRANCH  13  14
HETATM   14  C   UNK N   1      26.597  29.623  -4.109  0.00  0.00     0.115 C 
BRANCH  14  15
HETATM   15  N   UNK N   1      26.069  30.889  -3.640  0.00  0.00    -0.430 N 
HETATM   16  H   UNK N   1      25.113  31.161  -3.871  0.00  0.00     0.149 HD
HETATM   17  H   UNK N   1      26.653  31.509  -3.080  0.00  0.00     0.149 HD
ENDBRANCH  14  15
ENDBRANCH  13  14
ENDBRANCH   4  13
TORSDOF 5
ENDMDL
MODEL 9
REMARK VINA RESULT:      -4.7      3.445      5.689
REMARK  5 active torsions:
REMARK  status: ('A' for Active; 'I' for Inactive)
REMARK    1  A    between atoms: C_1  and  S_7 
REMARK    2  A    between atoms: C_4  and  C_11 
REMARK    3  A    between atoms: S_7  and  N_10 
REMARK    4  A    between atoms: C_11  and  C_12 
REMARK    5  A    between atoms: C_12  and  N_13 
ROOT
HETATM    1  C   UNK N   1      22.403  13.470   9.224  0.00  0.00     0.079 A 
HETATM    2  C   UNK N   1      22.639  14.163   8.033  0.00  0.00     0.026 A 
HETATM    3  C   UNK N   1      21.703  15.093   7.570  0.00  0.00     0.009 A 
HETATM    4  C   UNK N   1      20.533  15.333   8.302  0.00  0.00    -0.057 A 
HETATM    5  C   UNK N   1      20.288  14.622   9.480  0.00  0.00     0.009 A 
HETATM    6  C   UNK N   1      21.226  13.693   9.944  0.00  0.00     0.026 A 
ENDROOT
BRANCH   1   7
HETATM    7  S   UNK N   1      23.654  12.373   9.878  0.00  0.00     0.256 S 
HETATM    8  O   UNK N   1      23.152  11.483  11.023  0.00  0.00    -0.201 OA
HETATM    9  O   UNK N   1      24.105  11.340   8.835  0.00  0.00    -0.201 OA
BRANCH   7  10
HETATM   10  N   UNK N   1      25.150  13.093  10.473  0.00  0.00    -0.324 N 
HETATM   11  H   UNK N   1      25.779  12.548  11.063  0.00  0.00     0.169 HD
HETATM   12  H   UNK N   1      25.386  14.055  10.226  0.00  0.00     0.169 HD
ENDBRANCH   7  10
ENDBRANCH   1   7
BRANCH   4  13
HETATM   13  C   UNK N   1      19.567  16.377   7.855  0.00  0.00     0.057 C 
BRANCH  13  14
HETATM   14  C   UNK N   1      19.569  17.526   8.850  0.00  0.00     0.115 C 
BRANCH  14  15
HETATM   15  N   UNK N   1      18.207  17.867   9.212  0.00  0.00    -0.430 N 
HETATM   16  H   UNK N   1      17.626  17.194   9.712  0.00  0.00     0.149 HD
HETATM   17  H   UNK N   1      17.828  18.782   8.966  0.00  0.00     0.149 HD
ENDBRANCH  14  15
ENDBRANCH  13  14
ENDBRANCH   4  13
TORSDOF 5
ENDMDL
