MODEL 1
REMARK VINA RESULT:      -6.5      0.000      0.000
REMARK  11 active torsions:
REMARK  status: ('A' for Active; 'I' for Inactive)
REMARK    1  A    between atoms: Se_1  and  O_23 
REMARK    2  A    between atoms: Se_1  and  O_24 
REMARK    3  A    between atoms: C_2  and  Se_1 
REMARK    4  A    between atoms: C_4  and  C_2 
REMARK    5  A    between atoms: C_15  and  N_3 
REMARK       I    between atoms: C_17  and  N_3 
REMARK    6  A    between atoms: O_8  and  C_16 
REMARK    7  A    between atoms: C_14  and  C_9 
REMARK    8  A    between atoms: O_12  and  C_17 
REMARK    9  A    between atoms: C_19  and  O_12 
REMARK   10  A    between atoms: C_15  and  C_14 
REMARK   11  A    between atoms: C_15  and  C_16 
ROOT
HETATM    1  C   UNK N   1      27.356  19.346   5.029  0.00  0.00     0.190 C 
ENDROOT
BRANCH   1   2
HETATM    2  N   UNK N   1      28.645  18.860   4.584  0.00  0.00    -0.323 N 
HETATM    3  C   UNK N   1      29.097  17.620   4.929  0.00  0.00     0.362 C 
HETATM    4  O   UNK N   1      28.332  16.794   5.397  0.00  0.00    -0.238 OA
HETATM    5  H   UNK N   1      29.208  19.437   4.020  0.00  0.00     0.165 HD
BRANCH   3   6
HETATM    6  O   UNK N   1      30.408  17.287   4.777  0.00  0.00    -0.294 OA
BRANCH   6   7
HETATM    7  C   UNK N   1      30.959  16.471   3.793  0.00  0.00     0.061 C 
HETATM    8  C   UNK N   1      32.208  17.149   3.270  0.00  0.00     0.046 C 
HETATM    9  C   UNK N   1      31.351  15.141   4.399  0.00  0.00     0.046 C 
HETATM   10  C   UNK N   1      30.051  16.221   2.592  0.00  0.00     0.046 C 
ENDBRANCH   6   7
ENDBRANCH   3   6
ENDBRANCH   1   2
BRANCH   1  11
HETATM   11  C   UNK N   1      26.711  20.259   3.965  0.00  0.00     0.074 C 
BRANCH  11  12
HETATM   12  C   UNK N   1      25.268  19.890   3.736  0.00  0.00    -0.056 A 
HETATM   13  C   UNK N   1      24.687  18.795   4.388  0.00  0.00     0.007 A 
HETATM   14  C   UNK N   1      23.312  18.546   4.246  0.00  0.00     0.007 A 
HETATM   15  C   UNK N   1      22.511  19.399   3.466  0.00  0.00    -0.058 A 
HETATM   16  C   UNK N   1      23.109  20.468   2.799  0.00  0.00     0.007 A 
HETATM   17  C   UNK N   1      24.474  20.709   2.927  0.00  0.00     0.007 A 
BRANCH  15  18
HETATM   18  C   UNK N   1      21.018  19.254   3.324  0.00  0.00     0.043 C 
BRANCH  18  19
HETATM   19 Se   UNK N   1      20.204  17.991   2.051  0.00  0.00     0.000 Se
BRANCH  19  20
HETATM   20  O   UNK N   1      18.532  18.662   2.407  0.00  0.00    -0.253 OA
HETATM   21  H   UNK N   1      17.809  18.839   3.029  0.00  0.00     0.253 HD
ENDBRANCH  19  20
BRANCH  19  22
HETATM   22  O   UNK N   1      20.390  18.967   0.742  0.00  0.00    -0.253 OA
ATOM     23  HO  UNK N   1      19.684  19.539   1.020  1.00  0.00     0.253 HD
ENDBRANCH  19  22
ENDBRANCH  18  19
ENDBRANCH  15  18
ENDBRANCH  11  12
ENDBRANCH   1  11
BRANCH   1  24
HETATM   24  C   UNK N   1      27.608  20.104   6.306  0.00  0.00     0.281 C 
HETATM   25  O   UNK N   1      27.874  21.297   6.269  0.00  0.00    -0.263 OA
BRANCH  24  26
HETATM   26  O   UNK N   1      27.533  19.444   7.490  0.00  0.00    -0.325 OA
HETATM   27  C   UNK N   1      28.644  19.002   8.167  0.00  0.00     0.213 C 
ENDBRANCH  24  26
ENDBRANCH   1  24
TORSDOF 11
ENDMDL
MODEL 2
REMARK VINA RESULT:      -6.3     10.777     13.918
REMARK  11 active torsions:
REMARK  status: ('A' for Active; 'I' for Inactive)
REMARK    1  A    between atoms: Se_1  and  O_23 
REMARK    2  A    between atoms: Se_1  and  O_24 
REMARK    3  A    between atoms: C_2  and  Se_1 
REMARK    4  A    between atoms: C_4  and  C_2 
REMARK    5  A    between atoms: C_15  and  N_3 
REMARK       I    between atoms: C_17  and  N_3 
REMARK    6  A    between atoms: O_8  and  C_16 
REMARK    7  A    between atoms: C_14  and  C_9 
REMARK    8  A    between atoms: O_12  and  C_17 
REMARK    9  A    between atoms: C_19  and  O_12 
REMARK   10  A    between atoms: C_15  and  C_14 
REMARK   11  A    between atoms: C_15  and  C_16 
ROOT
HETATM    1  C   UNK N   1      26.503  23.354  -7.486  0.00  0.00     0.190 C 
ENDROOT
BRANCH   1   2
HETATM    2  N   UNK N   1      26.612  24.749  -7.114  0.00  0.00    -0.323 N 
HETATM    3  C   UNK N   1      25.820  25.292  -6.145  0.00  0.00     0.362 C 
HETATM    4  O   UNK N   1      25.188  24.572  -5.391  0.00  0.00    -0.238 OA
HETATM    5  H   UNK N   1      27.273  25.318  -7.570  0.00  0.00     0.165 HD
BRANCH   3   6
HETATM    6  O   UNK N   1      25.705  26.642  -6.012  0.00  0.00    -0.294 OA
BRANCH   6   7
HETATM    7  C   UNK N   1      26.464  27.473  -5.195  0.00  0.00     0.061 C 
HETATM    8  C   UNK N   1      25.524  28.162  -4.228  0.00  0.00     0.046 C 
HETATM    9  C   UNK N   1      27.447  26.642  -4.400  0.00  0.00     0.046 C 
HETATM   10  C   UNK N   1      27.226  28.570  -5.934  0.00  0.00     0.046 C 
ENDBRANCH   6   7
ENDBRANCH   3   6
ENDBRANCH   1   2
BRANCH   1  11
HETATM   11  C   UNK N   1      27.813  22.847  -8.124  0.00  0.00     0.074 C 
BRANCH  11  12
HETATM   12  C   UNK N   1      28.646  22.086  -7.124  0.00  0.00    -0.056 A 
HETATM   13  C   UNK N   1      29.230  20.857  -7.454  0.00  0.00     0.007 A 
HETATM   14  C   UNK N   1      30.096  20.229  -6.544  0.00  0.00     0.007 A 
HETATM   15  C   UNK N   1      30.394  20.835  -5.311  0.00  0.00    -0.058 A 
HETATM   16  C   UNK N   1      29.781  22.045  -4.985  0.00  0.00     0.007 A 
HETATM   17  C   UNK N   1      28.912  22.662  -5.879  0.00  0.00     0.007 A 
BRANCH  15  18
HETATM   18  C   UNK N   1      31.372  20.273  -4.312  0.00  0.00     0.043 C 
BRANCH  18  19
HETATM   19 Se   UNK N   1      33.050  21.195  -3.851  0.00  0.00     0.000 Se
BRANCH  19  20
HETATM   20  O   UNK N   1      32.518  21.355  -2.101  0.00  0.00    -0.253 OA
HETATM   21  H   UNK N   1      31.877  21.656  -1.438  0.00  0.00     0.253 HD
ENDBRANCH  19  20
BRANCH  19  22
HETATM   22  O   UNK N   1      33.890  19.817  -3.540  0.00  0.00    -0.253 OA
ATOM     23  HO  UNK N   1      34.277  20.184  -2.755  1.00  0.00     0.253 HD
ENDBRANCH  19  22
ENDBRANCH  18  19
ENDBRANCH  15  18
ENDBRANCH  11  12
ENDBRANCH   1  11
BRANCH   1  24
HETATM   24  C   UNK N   1      25.359  23.265  -8.462  0.00  0.00     0.281 C 
HETATM   25  O   UNK N   1      25.363  23.951  -9.475  0.00  0.00    -0.263 OA
BRANCH  24  26
HETATM   26  O   UNK N   1      24.334  22.415  -8.201  0.00  0.00    -0.325 OA
HETATM   27  C   UNK N   1      24.453  21.348  -7.344  0.00  0.00     0.213 C 
ENDBRANCH  24  26
ENDBRANCH   1  24
TORSDOF 11
ENDMDL
MODEL 3
REMARK VINA RESULT:      -6.1      4.371      9.065
REMARK  11 active torsions:
REMARK  status: ('A' for Active; 'I' for Inactive)
REMARK    1  A    between atoms: Se_1  and  O_23 
REMARK    2  A    between atoms: Se_1  and  O_24 
REMARK    3  A    between atoms: C_2  and  Se_1 
REMARK    4  A    between atoms: C_4  and  C_2 
REMARK    5  A    between atoms: C_15  and  N_3 
REMARK       I    between atoms: C_17  and  N_3 
REMARK    6  A    between atoms: O_8  and  C_16 
REMARK    7  A    between atoms: C_14  and  C_9 
REMARK    8  A    between atoms: O_12  and  C_17 
REMARK    9  A    between atoms: C_19  and  O_12 
REMARK   10  A    between atoms: C_15  and  C_14 
REMARK   11  A    between atoms: C_15  and  C_16 
ROOT
HETATM    1  C   UNK N   1      28.981  16.245   3.490  0.00  0.00     0.190 C 
ENDROOT
BRANCH   1   2
HETATM    2  N   UNK N   1      28.708  17.667   3.476  0.00  0.00    -0.323 N 
HETATM    3  C   UNK N   1      28.609  18.385   4.632  0.00  0.00     0.362 C 
HETATM    4  O   UNK N   1      29.001  17.912   5.686  0.00  0.00    -0.238 OA
HETATM    5  H   UNK N   1      28.591  18.126   2.613  0.00  0.00     0.165 HD
BRANCH   3   6
HETATM    6  O   UNK N   1      28.056  19.628   4.637  0.00  0.00    -0.294 OA
BRANCH   6   7
HETATM    7  C   UNK N   1      26.702  19.946   4.636  0.00  0.00     0.061 C 
HETATM    8  C   UNK N   1      25.929  18.695   4.997  0.00  0.00     0.046 C 
HETATM    9  C   UNK N   1      26.427  21.000   5.686  0.00  0.00     0.046 C 
HETATM   10  C   UNK N   1      26.163  20.431   3.293  0.00  0.00     0.046 C 
ENDBRANCH   6   7
ENDBRANCH   3   6
ENDBRANCH   1   2
BRANCH   1  11
HETATM   11  C   UNK N   1      30.371  15.943   2.891  0.00  0.00     0.074 C 
BRANCH  11  12
HETATM   12  C   UNK N   1      31.464  16.212   3.892  0.00  0.00    -0.056 A 
HETATM   13  C   UNK N   1      32.293  17.336   3.777  0.00  0.00     0.007 A 
HETATM   14  C   UNK N   1      33.224  17.624   4.787  0.00  0.00     0.007 A 
HETATM   15  C   UNK N   1      33.319  16.801   5.924  0.00  0.00    -0.058 A 
HETATM   16  C   UNK N   1      32.507  15.669   6.011  0.00  0.00     0.007 A 
HETATM   17  C   UNK N   1      31.594  15.374   5.004  0.00  0.00     0.007 A 
BRANCH  15  18
HETATM   18  C   UNK N   1      34.231  17.079   7.090  0.00  0.00     0.043 C 
BRANCH  18  19
HETATM   19 Se   UNK N   1      33.789  18.409   8.474  0.00  0.00     0.000 Se
BRANCH  19  20
HETATM   20  O   UNK N   1      34.318  17.253   9.798  0.00  0.00    -0.253 OA
HETATM   21  H   UNK N   1      35.015  16.855  10.342  0.00  0.00     0.253 HD
ENDBRANCH  19  20
BRANCH  19  22
HETATM   22  O   UNK N   1      35.259  19.145   8.438  0.00  0.00    -0.253 OA
ATOM     23  HO  UNK N   1      35.713  18.336   8.639  1.00  0.00     0.253 HD
ENDBRANCH  19  22
ENDBRANCH  18  19
ENDBRANCH  15  18
ENDBRANCH  11  12
ENDBRANCH   1  11
BRANCH   1  24
HETATM   24  C   UNK N   1      27.892  15.598   2.675  0.00  0.00     0.281 C 
HETATM   25  O   UNK N   1      28.179  14.910   1.705  0.00  0.00    -0.263 OA
BRANCH  24  26
HETATM   26  O   UNK N   1      26.598  15.789   3.035  0.00  0.00    -0.325 OA
HETATM   27  C   UNK N   1      25.544  15.487   2.208  0.00  0.00     0.213 C 
ENDBRANCH  24  26
ENDBRANCH   1  24
TORSDOF 11
ENDMDL
MODEL 4
REMARK VINA RESULT:      -6.1     11.223     13.344
REMARK  11 active torsions:
REMARK  status: ('A' for Active; 'I' for Inactive)
REMARK    1  A    between atoms: Se_1  and  O_23 
REMARK    2  A    between atoms: Se_1  and  O_24 
REMARK    3  A    between atoms: C_2  and  Se_1 
REMARK    4  A    between atoms: C_4  and  C_2 
REMARK    5  A    between atoms: C_15  and  N_3 
REMARK       I    between atoms: C_17  and  N_3 
REMARK    6  A    between atoms: O_8  and  C_16 
REMARK    7  A    between atoms: C_14  and  C_9 
REMARK    8  A    between atoms: O_12  and  C_17 
REMARK    9  A    between atoms: C_19  and  O_12 
REMARK   10  A    between atoms: C_15  and  C_14 
REMARK   11  A    between atoms: C_15  and  C_16 
ROOT
HETATM    1  C   UNK N   1      26.386  23.577  -7.793  0.00  0.00     0.190 C 
ENDROOT
BRANCH   1   2
HETATM    2  N   UNK N   1      26.826  23.548  -6.414  0.00  0.00    -0.323 N 
HETATM    3  C   UNK N   1      28.151  23.530  -6.089  0.00  0.00     0.362 C 
HETATM    4  O   UNK N   1      28.994  23.799  -6.928  0.00  0.00    -0.238 OA
HETATM    5  H   UNK N   1      26.154  23.541  -5.695  0.00  0.00     0.165 HD
BRANCH   3   6
HETATM    6  O   UNK N   1      28.557  23.196  -4.834  0.00  0.00    -0.294 OA
BRANCH   6   7
HETATM    7  C   UNK N   1      28.675  24.042  -3.736  0.00  0.00     0.061 C 
HETATM    8  C   UNK N   1      27.389  23.957  -2.941  0.00  0.00     0.046 C 
HETATM    9  C   UNK N   1      29.816  23.577  -2.857  0.00  0.00     0.046 C 
HETATM   10  C   UNK N   1      28.887  25.513  -4.086  0.00  0.00     0.046 C 
ENDBRANCH   6   7
ENDBRANCH   3   6
ENDBRANCH   1   2
BRANCH   1  11
HETATM   11  C   UNK N   1      25.578  24.857  -8.089  0.00  0.00     0.074 C 
BRANCH  11  12
HETATM   12  C   UNK N   1      26.000  25.987  -7.185  0.00  0.00    -0.056 A 
HETATM   13  C   UNK N   1      27.093  26.802  -7.505  0.00  0.00     0.007 A 
HETATM   14  C   UNK N   1      27.391  27.918  -6.707  0.00  0.00     0.007 A 
HETATM   15  C   UNK N   1      26.587  28.233  -5.596  0.00  0.00    -0.058 A 
HETATM   16  C   UNK N   1      25.520  27.395  -5.273  0.00  0.00     0.007 A 
HETATM   17  C   UNK N   1      25.231  26.281  -6.055  0.00  0.00     0.007 A 
BRANCH  15  18
HETATM   18  C   UNK N   1      26.785  29.453  -4.734  0.00  0.00     0.043 C 
BRANCH  18  19
HETATM   19 Se   UNK N   1      28.037  29.471  -3.214  0.00  0.00     0.000 Se
BRANCH  19  20
HETATM   20  O   UNK N   1      27.340  31.062  -2.619  0.00  0.00    -0.253 OA
HETATM   21  H   UNK N   1      27.236  31.730  -1.924  0.00  0.00     0.253 HD
ENDBRANCH  19  20
BRANCH  19  22
HETATM   22  O   UNK N   1      27.064  28.596  -2.218  0.00  0.00    -0.253 OA
ATOM     23  HO  UNK N   1      26.622  28.182  -2.950  1.00  0.00     0.253 HD
ENDBRANCH  19  22
ENDBRANCH  18  19
ENDBRANCH  15  18
ENDBRANCH  11  12
ENDBRANCH   1  11
BRANCH   1  24
HETATM   24  C   UNK N   1      25.537  22.348  -7.991  0.00  0.00     0.281 C 
HETATM   25  O   UNK N   1      24.318  22.432  -7.952  0.00  0.00    -0.263 OA
BRANCH  24  26
HETATM   26  O   UNK N   1      26.147  21.156  -8.215  0.00  0.00    -0.325 OA
HETATM   27  C   UNK N   1      27.391  21.053  -8.787  0.00  0.00     0.213 C 
ENDBRANCH  24  26
ENDBRANCH   1  24
TORSDOF 11
ENDMDL
MODEL 5
REMARK VINA RESULT:      -5.9      7.303     12.014
REMARK  11 active torsions:
REMARK  status: ('A' for Active; 'I' for Inactive)
REMARK    1  A    between atoms: Se_1  and  O_23 
REMARK    2  A    between atoms: Se_1  and  O_24 
REMARK    3  A    between atoms: C_2  and  Se_1 
REMARK    4  A    between atoms: C_4  and  C_2 
REMARK    5  A    between atoms: C_15  and  N_3 
REMARK       I    between atoms: C_17  and  N_3 
REMARK    6  A    between atoms: O_8  and  C_16 
REMARK    7  A    between atoms: C_14  and  C_9 
REMARK    8  A    between atoms: O_12  and  C_17 
REMARK    9  A    between atoms: C_19  and  O_12 
REMARK   10  A    between atoms: C_15  and  C_14 
REMARK   11  A    between atoms: C_15  and  C_16 
ROOT
HETATM    1  C   UNK N   1      33.378  16.861   7.550  0.00  0.00     0.190 C 
ENDROOT
BRANCH   1   2
HETATM    2  N   UNK N   1      32.120  17.552   7.357  0.00  0.00    -0.323 N 
HETATM    3  C   UNK N   1      30.985  16.881   7.006  0.00  0.00     0.362 C 
HETATM    4  O   UNK N   1      30.935  15.666   7.099  0.00  0.00    -0.238 OA
HETATM    5  H   UNK N   1      32.083  18.527   7.482  0.00  0.00     0.165 HD
BRANCH   3   6
HETATM    6  O   UNK N   1      29.899  17.548   6.530  0.00  0.00    -0.294 OA
BRANCH   6   7
HETATM    7  C   UNK N   1      28.735  17.862   7.225  0.00  0.00     0.061 C 
HETATM    8  C   UNK N   1      27.747  16.734   7.013  0.00  0.00     0.046 C 
HETATM    9  C   UNK N   1      29.039  17.962   8.704  0.00  0.00     0.046 C 
HETATM   10  C   UNK N   1      28.049  19.147   6.771  0.00  0.00     0.046 C 
ENDBRANCH   6   7
ENDBRANCH   3   6
ENDBRANCH   1   2
BRANCH   1  11
HETATM   11  C   UNK N   1      34.167  17.467   8.729  0.00  0.00     0.074 C 
BRANCH  11  12
HETATM   12  C   UNK N   1      34.497  16.418   9.760  0.00  0.00    -0.056 A 
HETATM   13  C   UNK N   1      33.970  15.123   9.670  0.00  0.00     0.007 A 
HETATM   14  C   UNK N   1      34.387  14.135  10.576  0.00  0.00     0.007 A 
HETATM   15  C   UNK N   1      35.343  14.432  11.564  0.00  0.00    -0.058 A 
HETATM   16  C   UNK N   1      35.837  15.734  11.659  0.00  0.00     0.007 A 
HETATM   17  C   UNK N   1      35.415  16.718  10.770  0.00  0.00     0.007 A 
BRANCH  15  18
HETATM   18  C   UNK N   1      35.905  13.416  12.523  0.00  0.00     0.043 C 
BRANCH  18  19
HETATM   19 Se   UNK N   1      37.167  12.016  11.950  0.00  0.00     0.000 Se
BRANCH  19  20
HETATM   20  O   UNK N   1      38.320  13.283  11.289  0.00  0.00    -0.253 OA
HETATM   21  H   UNK N   1      38.635  13.837  10.558  0.00  0.00     0.253 HD
ENDBRANCH  19  20
BRANCH  19  22
HETATM   22  O   UNK N   1      37.962  11.945  13.386  0.00  0.00    -0.253 OA
ATOM     23  HO  UNK N   1      37.622  12.788  13.661  1.00  0.00     0.253 HD
ENDBRANCH  19  22
ENDBRANCH  18  19
ENDBRANCH  15  18
ENDBRANCH  11  12
ENDBRANCH   1  11
BRANCH   1  24
HETATM   24  C   UNK N   1      34.142  17.006   6.260  0.00  0.00     0.281 C 
HETATM   25  O   UNK N   1      33.926  17.958   5.523  0.00  0.00    -0.263 OA
BRANCH  24  26
HETATM   26  O   UNK N   1      35.069  16.069   5.935  0.00  0.00    -0.325 OA
HETATM   27  C   UNK N   1      34.734  14.800   5.534  0.00  0.00     0.213 C 
ENDBRANCH  24  26
ENDBRANCH   1  24
TORSDOF 11
ENDMDL
MODEL 6
REMARK VINA RESULT:      -5.9      1.798      2.459
REMARK  11 active torsions:
REMARK  status: ('A' for Active; 'I' for Inactive)
REMARK    1  A    between atoms: Se_1  and  O_23 
REMARK    2  A    between atoms: Se_1  and  O_24 
REMARK    3  A    between atoms: C_2  and  Se_1 
REMARK    4  A    between atoms: C_4  and  C_2 
REMARK    5  A    between atoms: C_15  and  N_3 
REMARK       I    between atoms: C_17  and  N_3 
REMARK    6  A    between atoms: O_8  and  C_16 
REMARK    7  A    between atoms: C_14  and  C_9 
REMARK    8  A    between atoms: O_12  and  C_17 
REMARK    9  A    between atoms: C_19  and  O_12 
REMARK   10  A    between atoms: C_15  and  C_14 
REMARK   11  A    between atoms: C_15  and  C_16 
ROOT
HETATM    1  C   UNK N   1      27.859  18.661   5.356  0.00  0.00     0.190 C 
ENDROOT
BRANCH   1   2
HETATM    2  N   UNK N   1      29.250  18.258   5.358  0.00  0.00    -0.323 N 
HETATM    3  C   UNK N   1      29.671  17.154   6.039  0.00  0.00     0.362 C 
HETATM    4  O   UNK N   1      28.863  16.336   6.446  0.00  0.00    -0.238 OA
HETATM    5  H   UNK N   1      29.906  18.792   4.856  0.00  0.00     0.165 HD
BRANCH   3   6
HETATM    6  O   UNK N   1      30.993  16.952   6.295  0.00  0.00    -0.294 OA
BRANCH   6   7
HETATM    7  C   UNK N   1      31.642  17.088   7.517  0.00  0.00     0.061 C 
HETATM    8  C   UNK N   1      30.757  17.914   8.427  0.00  0.00     0.046 C 
HETATM    9  C   UNK N   1      31.834  15.724   8.143  0.00  0.00     0.046 C 
HETATM   10  C   UNK N   1      32.992  17.796   7.446  0.00  0.00     0.046 C 
ENDBRANCH   6   7
ENDBRANCH   3   6
ENDBRANCH   1   2
BRANCH   1  11
HETATM   11  C   UNK N   1      27.458  19.256   3.990  0.00  0.00     0.074 C 
BRANCH  11  12
HETATM   12  C   UNK N   1      25.964  19.208   3.795  0.00  0.00    -0.056 A 
HETATM   13  C   UNK N   1      25.205  18.129   4.266  0.00  0.00     0.007 A 
HETATM   14  C   UNK N   1      23.805  18.166   4.175  0.00  0.00     0.007 A 
HETATM   15  C   UNK N   1      23.157  19.288   3.628  0.00  0.00    -0.058 A 
HETATM   16  C   UNK N   1      23.927  20.342   3.135  0.00  0.00     0.007 A 
HETATM   17  C   UNK N   1      25.316  20.301   3.212  0.00  0.00     0.007 A 
BRANCH  15  18
HETATM   18  C   UNK N   1      21.660  19.447   3.564  0.00  0.00     0.043 C 
BRANCH  18  19
HETATM   19 Se   UNK N   1      20.617  18.927   1.976  0.00  0.00     0.000 Se
BRANCH  19  20
HETATM   20  O   UNK N   1      20.500  17.197   2.581  0.00  0.00    -0.253 OA
HETATM   21  H   UNK N   1      20.202  16.282   2.466  0.00  0.00     0.253 HD
ENDBRANCH  19  20
BRANCH  19  22
HETATM   22  O   UNK N   1      19.161  19.323   2.626  0.00  0.00    -0.253 OA
ATOM     23  HO  UNK N   1      18.829  18.440   2.520  1.00  0.00     0.253 HD
ENDBRANCH  19  22
ENDBRANCH  18  19
ENDBRANCH  15  18
ENDBRANCH  11  12
ENDBRANCH   1  11
BRANCH   1  24
HETATM   24  C   UNK N   1      27.714  19.683   6.452  0.00  0.00     0.281 C 
HETATM   25  O   UNK N   1      27.717  19.331   7.624  0.00  0.00    -0.263 OA
BRANCH  24  26
HETATM   26  O   UNK N   1      27.584  20.993   6.119  0.00  0.00    -0.325 OA
HETATM   27  C   UNK N   1      26.531  21.766   6.541  0.00  0.00     0.213 C 
ENDBRANCH  24  26
ENDBRANCH   1  24
TORSDOF 11
ENDMDL
MODEL 7
REMARK VINA RESULT:      -5.8      5.509      8.166
REMARK  11 active torsions:
REMARK  status: ('A' for Active; 'I' for Inactive)
REMARK    1  A    between atoms: Se_1  and  O_23 
REMARK    2  A    between atoms: Se_1  and  O_24 
REMARK    3  A    between atoms: C_2  and  Se_1 
REMARK    4  A    between atoms: C_4  and  C_2 
REMARK    5  A    between atoms: C_15  and  N_3 
REMARK       I    between atoms: C_17  and  N_3 
REMARK    6  A    between atoms: O_8  and  C_16 
REMARK    7  A    between atoms: C_14  and  C_9 
REMARK    8  A    between atoms: O_12  and  C_17 
REMARK    9  A    between atoms: C_19  and  O_12 
REMARK   10  A    between atoms: C_15  and  C_14 
REMARK   11  A    between atoms: C_15  and  C_16 
ROOT
HETATM    1  C   UNK N   1      33.524  15.622   7.459  0.00  0.00     0.190 C 
ENDROOT
BRANCH   1   2
HETATM    2  N   UNK N   1      34.262  14.613   8.190  0.00  0.00    -0.323 N 
HETATM    3  C   UNK N   1      34.085  14.432   9.531  0.00  0.00     0.362 C 
HETATM    4  O   UNK N   1      33.125  14.928  10.098  0.00  0.00    -0.238 OA
HETATM    5  H   UNK N   1      34.906  14.046   7.709  0.00  0.00     0.165 HD
BRANCH   3   6
HETATM    6  O   UNK N   1      34.980  13.715  10.263  0.00  0.00    -0.294 OA
BRANCH   6   7
HETATM    7  C   UNK N   1      35.946  14.213  11.132  0.00  0.00     0.061 C 
HETATM    8  C   UNK N   1      35.445  14.017  12.547  0.00  0.00     0.046 C 
HETATM    9  C   UNK N   1      37.231  13.432  10.964  0.00  0.00     0.046 C 
HETATM   10  C   UNK N   1      36.244  15.700  10.966  0.00  0.00     0.046 C 
ENDBRANCH   6   7
ENDBRANCH   3   6
ENDBRANCH   1   2
BRANCH   1  11
HETATM   11  C   UNK N   1      32.519  14.975   6.485  0.00  0.00     0.074 C 
BRANCH  11  12
HETATM   12  C   UNK N   1      31.257  15.792   6.383  0.00  0.00    -0.056 A 
HETATM   13  C   UNK N   1      30.347  15.595   5.337  0.00  0.00     0.007 A 
HETATM   14  C   UNK N   1      29.125  16.287   5.333  0.00  0.00     0.007 A 
HETATM   15  C   UNK N   1      28.801  17.165   6.383  0.00  0.00    -0.058 A 
HETATM   16  C   UNK N   1      29.730  17.374   7.403  0.00  0.00     0.007 A 
HETATM   17  C   UNK N   1      30.947  16.700   7.401  0.00  0.00     0.007 A 
BRANCH  15  18
HETATM   18  C   UNK N   1      27.483  17.886   6.500  0.00  0.00     0.043 C 
BRANCH  18  19
HETATM   19 Se   UNK N   1      27.336  19.841   6.309  0.00  0.00     0.000 Se
BRANCH  19  20
HETATM   20  O   UNK N   1      25.600  19.684   5.731  0.00  0.00    -0.253 OA
HETATM   21  H   UNK N   1      24.916  19.209   5.235  0.00  0.00     0.253 HD
ENDBRANCH  19  20
BRANCH  19  22
HETATM   22  O   UNK N   1      26.865  20.100   7.863  0.00  0.00    -0.253 OA
ATOM     23  HO  UNK N   1      26.126  19.509   7.778  1.00  0.00     0.253 HD
ENDBRANCH  19  22
ENDBRANCH  18  19
ENDBRANCH  15  18
ENDBRANCH  11  12
ENDBRANCH   1  11
BRANCH   1  24
HETATM   24  C   UNK N   1      34.548  16.437   6.713  0.00  0.00     0.281 C 
HETATM   25  O   UNK N   1      35.371  15.882   5.999  0.00  0.00    -0.263 OA
BRANCH  24  26
HETATM   26  O   UNK N   1      34.539  17.788   6.846  0.00  0.00    -0.325 OA
HETATM   27  C   UNK N   1      34.433  18.414   8.064  0.00  0.00     0.213 C 
ENDBRANCH  24  26
ENDBRANCH   1  24
TORSDOF 11
ENDMDL
MODEL 8
REMARK VINA RESULT:      -5.8     14.528     17.826
REMARK  11 active torsions:
REMARK  status: ('A' for Active; 'I' for Inactive)
REMARK    1  A    between atoms: Se_1  and  O_23 
REMARK    2  A    between atoms: Se_1  and  O_24 
REMARK    3  A    between atoms: C_2  and  Se_1 
REMARK    4  A    between atoms: C_4  and  C_2 
REMARK    5  A    between atoms: C_15  and  N_3 
REMARK       I    between atoms: C_17  and  N_3 
REMARK    6  A    between atoms: O_8  and  C_16 
REMARK    7  A    between atoms: C_14  and  C_9 
REMARK    8  A    between atoms: O_12  and  C_17 
REMARK    9  A    between atoms: C_19  and  O_12 
REMARK   10  A    between atoms: C_15  and  C_14 
REMARK   11  A    between atoms: C_15  and  C_16 
ROOT
HETATM    1  C   UNK N   1      36.168  12.992  15.015  0.00  0.00     0.190 C 
ENDROOT
BRANCH   1   2
HETATM    2  N   UNK N   1      35.832  12.419  13.728  0.00  0.00    -0.323 N 
HETATM    3  C   UNK N   1      36.625  11.478  13.139  0.00  0.00     0.362 C 
HETATM    4  O   UNK N   1      37.489  10.908  13.785  0.00  0.00    -0.238 OA
HETATM    5  H   UNK N   1      35.013  12.714  13.269  0.00  0.00     0.165 HD
BRANCH   3   6
HETATM    6  O   UNK N   1      36.483  11.172  11.820  0.00  0.00    -0.294 OA
BRANCH   6   7
HETATM    7  C   UNK N   1      35.520  10.346  11.249  0.00  0.00     0.061 C 
HETATM    8  C   UNK N   1      34.512  11.226  10.541  0.00  0.00     0.046 C 
HETATM    9  C   UNK N   1      36.171   9.441  10.225  0.00  0.00     0.046 C 
HETATM   10  C   UNK N   1      34.744   9.491  12.246  0.00  0.00     0.046 C 
ENDBRANCH   6   7
ENDBRANCH   3   6
ENDBRANCH   1   2
BRANCH   1  11
HETATM   11  C   UNK N   1      34.917  13.114  15.910  0.00  0.00     0.074 C 
BRANCH  11  12
HETATM   12  C   UNK N   1      35.103  12.373  17.208  0.00  0.00    -0.056 A 
HETATM   13  C   UNK N   1      35.350  10.994  17.228  0.00  0.00     0.007 A 
HETATM   14  C   UNK N   1      35.637  10.352  18.443  0.00  0.00     0.007 A 
HETATM   15  C   UNK N   1      35.693  11.088  19.640  0.00  0.00    -0.058 A 
HETATM   16  C   UNK N   1      35.415  12.454  19.610  0.00  0.00     0.007 A 
HETATM   17  C   UNK N   1      35.118  13.090  18.408  0.00  0.00     0.007 A 
BRANCH  15  18
HETATM   18  C   UNK N   1      36.070  10.496  20.973  0.00  0.00     0.043 C 
BRANCH  18  19
HETATM   19 Se   UNK N   1      34.799   9.450  22.055  0.00  0.00     0.000 Se
BRANCH  19  20
HETATM   20  O   UNK N   1      35.708   9.876  23.592  0.00  0.00    -0.253 OA
HETATM   21  H   UNK N   1      35.990   9.657  24.493  0.00  0.00     0.253 HD
ENDBRANCH  19  20
BRANCH  19  22
HETATM   22  O   UNK N   1      33.736  10.687  22.261  0.00  0.00    -0.253 OA
ATOM     23  HO  UNK N   1      34.199  11.009  23.026  1.00  0.00     0.253 HD
ENDBRANCH  19  22
ENDBRANCH  18  19
ENDBRANCH  15  18
ENDBRANCH  11  12
ENDBRANCH   1  11
BRANCH   1  24
HETATM   24  C   UNK N   1      36.761  14.348  14.732  0.00  0.00     0.281 C 
HETATM   25  O   UNK N   1      36.441  14.958  13.721  0.00  0.00    -0.263 OA
BRANCH  24  26
HETATM   26  O   UNK N   1      37.647  14.876  15.613  0.00  0.00    -0.325 OA
HETATM   27  C   UNK N   1      37.372  15.991  16.366  0.00  0.00     0.213 C 
ENDBRANCH  24  26
ENDBRANCH   1  24
TORSDOF 11
ENDMDL
MODEL 9
REMARK VINA RESULT:      -5.7     11.667     13.395
REMARK  11 active torsions:
REMARK  status: ('A' for Active; 'I' for Inactive)
REMARK    1  A    between atoms: Se_1  and  O_23 
REMARK    2  A    between atoms: Se_1  and  O_24 
REMARK    3  A    between atoms: C_2  and  Se_1 
REMARK    4  A    between atoms: C_4  and  C_2 
REMARK    5  A    between atoms: C_15  and  N_3 
REMARK       I    between atoms: C_17  and  N_3 
REMARK    6  A    between atoms: O_8  and  C_16 
REMARK    7  A    between atoms: C_14  and  C_9 
REMARK    8  A    between atoms: O_12  and  C_17 
REMARK    9  A    between atoms: C_19  and  O_12 
REMARK   10  A    between atoms: C_15  and  C_14 
REMARK   11  A    between atoms: C_15  and  C_16 
ROOT
HETATM    1  C   UNK N   1      26.266  23.531  -7.341  0.00  0.00     0.190 C 
ENDROOT
BRANCH   1   2
HETATM    2  N   UNK N   1      27.237  22.481  -7.567  0.00  0.00    -0.323 N 
HETATM    3  C   UNK N   1      28.575  22.744  -7.610  0.00  0.00     0.362 C 
HETATM    4  O   UNK N   1      29.005  23.811  -7.206  0.00  0.00    -0.238 OA
HETATM    5  H   UNK N   1      26.924  21.556  -7.692  0.00  0.00     0.165 HD
BRANCH   3   6
HETATM    6  O   UNK N   1      29.449  21.835  -8.120  0.00  0.00    -0.294 OA
BRANCH   6   7
HETATM    7  C   UNK N   1      29.934  20.692  -7.493  0.00  0.00     0.061 C 
HETATM    8  C   UNK N   1      31.324  20.420  -8.027  0.00  0.00     0.046 C 
HETATM    9  C   UNK N   1      30.031  20.935  -6.002  0.00  0.00     0.046 C 
HETATM   10  C   UNK N   1      29.108  19.433  -7.738  0.00  0.00     0.046 C 
ENDBRANCH   6   7
ENDBRANCH   3   6
ENDBRANCH   1   2
BRANCH   1  11
HETATM   11  C   UNK N   1      25.699  23.461  -5.908  0.00  0.00     0.074 C 
BRANCH  11  12
HETATM   12  C   UNK N   1      25.724  24.815  -5.247  0.00  0.00    -0.056 A 
HETATM   13  C   UNK N   1      26.329  25.001  -3.998  0.00  0.00     0.007 A 
HETATM   14  C   UNK N   1      26.441  26.294  -3.461  0.00  0.00     0.007 A 
HETATM   15  C   UNK N   1      25.964  27.406  -4.178  0.00  0.00    -0.058 A 
HETATM   16  C   UNK N   1      25.337  27.202  -5.407  0.00  0.00     0.007 A 
HETATM   17  C   UNK N   1      25.213  25.920  -5.935  0.00  0.00     0.007 A 
BRANCH  15  18
HETATM   18  C   UNK N   1      26.114  28.832  -3.715  0.00  0.00     0.043 C 
BRANCH  18  19
HETATM   19 Se   UNK N   1      27.874  29.696  -3.530  0.00  0.00     0.000 Se
BRANCH  19  20
HETATM   20  O   UNK N   1      27.735  30.412  -5.215  0.00  0.00    -0.253 OA
HETATM   21  H   UNK N   1      28.109  30.928  -5.946  0.00  0.00     0.253 HD
ENDBRANCH  19  20
BRANCH  19  22
HETATM   22  O   UNK N   1      27.290  31.062  -2.828  0.00  0.00    -0.253 OA
ATOM     23  HO  UNK N   1      27.761  30.895  -2.021  1.00  0.00     0.253 HD
ENDBRANCH  19  22
ENDBRANCH  18  19
ENDBRANCH  15  18
ENDBRANCH  11  12
ENDBRANCH   1  11
BRANCH   1  24
HETATM   24  C   UNK N   1      25.176  23.326  -8.361  0.00  0.00     0.281 C 
HETATM   25  O   UNK N   1      24.390  22.396  -8.240  0.00  0.00    -0.263 OA
BRANCH  24  26
HETATM   26  O   UNK N   1      25.083  24.186  -9.407  0.00  0.00    -0.325 OA
HETATM   27  C   UNK N   1      25.960  24.170 -10.463  0.00  0.00     0.213 C 
ENDBRANCH  24  26
ENDBRANCH   1  24
TORSDOF 11
ENDMDL
