REMARK  4 active torsions:
REMARK  status: ('A' for Active; 'I' for Inactive)
REMARK    1  A    between atoms: C_7  and  N_8 
REMARK    2  A    between atoms: N_8  and  C_9 
REMARK    3  A    between atoms: C_15  and  C_16 
REMARK    4  A    between atoms: C_16  and  O_18 
ROOT
HETATM    1  C   UNK N   1      -0.873   0.164   0.000  0.00  0.00     0.122 A 
HETATM    2  N   UNK N   1      -0.943  -1.198   0.000  0.00  0.00    -0.351 N 
ATOM      3  HN  UNK N   1      -0.076  -1.735   0.000  1.00  0.00     0.166 HD
HETATM    4  C   UNK N   1      -2.126  -1.864  -0.000  0.00  0.00     0.090 A 
HETATM    5  C   UNK N   1      -3.323  -1.155  -0.000  0.00  0.00     0.018 A 
HETATM    6  C   UNK N   1      -3.289   0.237  -0.000  0.00  0.00     0.023 A 
HETATM    7  C   UNK N   1      -2.065   0.922   0.000  0.00  0.00     0.081 A 
ENDROOT
BRANCH   1   8
HETATM    8  N   UNK N   1       0.393   0.821   0.000  0.00  0.00    -0.342 N 
HETATM    9  H   UNK N   1       0.386   1.806   0.000  0.00  0.00     0.167 HD
BRANCH   8  10
HETATM   10  C   UNK N   1       1.661   0.183   0.000  0.00  0.00     0.033 A 
HETATM   11  C   UNK N   1       2.818   0.971   0.000  0.00  0.00     0.031 A 
HETATM   12  C   UNK N   1       4.079   0.368  -0.000  0.00  0.00     0.026 A 
HETATM   13  C   UNK N   1       4.187  -1.027  -0.000  0.00  0.00     0.034 A 
HETATM   14 Cl   UNK N   1       5.759  -1.791  -0.000  0.00  0.00    -0.084 Cl
HETATM   15  C   UNK N   1       3.038  -1.817   0.000  0.00  0.00     0.026 A 
HETATM   16  C   UNK N   1       1.783  -1.214   0.000  0.00  0.00     0.031 A 
ENDBRANCH   8  10
ENDBRANCH   1   8
BRANCH   7  17
HETATM   17  C   UNK N   1      -2.067   2.409   0.000  0.00  0.00     0.179 C 
HETATM   18  O   UNK N   1      -3.125   3.017  -0.000  0.00  0.00    -0.646 OA
BRANCH  17  19
HETATM   19  O   UNK N   1      -0.913   3.106  -0.000  0.00  0.00    -0.773 OA
HETATM   20  H   UNK N   1      -0.093   2.654  -0.000  0.00  0.00     0.167 HD
ENDBRANCH  17  19
ENDBRANCH   7  17
TORSDOF 4
