MODEL 1
REMARK VINA RESULT:      -6.4      0.000      0.000
REMARK  4 active torsions:
REMARK  status: ('A' for Active; 'I' for Inactive)
REMARK    1  A    between atoms: C_7  and  N_8 
REMARK    2  A    between atoms: N_8  and  C_9 
REMARK    3  A    between atoms: C_15  and  C_16 
REMARK    4  A    between atoms: C_16  and  O_18 
ROOT
HETATM    1  C   UNK N   1      33.402  16.140   8.995  0.00  0.00     0.122 A 
HETATM    2  N   UNK N   1      33.213  15.157   9.921  0.00  0.00    -0.351 N 
ATOM      3  HN  UNK N   1      32.420  14.526   9.812  1.00  0.00     0.166 HD
HETATM    4  C   UNK N   1      34.043  14.990  10.983  0.00  0.00     0.090 A 
HETATM    5  C   UNK N   1      35.132  15.838  11.154  0.00  0.00     0.018 A 
HETATM    6  C   UNK N   1      35.356  16.853  10.228  0.00  0.00     0.023 A 
HETATM    7  C   UNK N   1      34.496  17.023   9.132  0.00  0.00     0.081 A 
ENDROOT
BRANCH   1   8
HETATM    8  N   UNK N   1      32.504  16.279   7.896  0.00  0.00    -0.342 N 
HETATM    9  H   UNK N   1      32.731  15.793   7.070  0.00  0.00     0.167 HD
BRANCH   8  10
HETATM   10  C   UNK N   1      31.315  17.053   7.886  0.00  0.00     0.033 A 
HETATM   11  C   UNK N   1      30.427  16.920   6.812  0.00  0.00     0.031 A 
HETATM   12  C   UNK N   1      29.248  17.671   6.778  0.00  0.00     0.026 A 
HETATM   13  C   UNK N   1      28.953  18.558   7.820  0.00  0.00     0.034 A 
HETATM   14 Cl   UNK N   1      27.482  19.501   7.787  0.00  0.00    -0.084 Cl
HETATM   15  C   UNK N   1      29.834  18.694   8.892  0.00  0.00     0.026 A 
HETATM   16  C   UNK N   1      31.007  17.945   8.924  0.00  0.00     0.031 A 
ENDBRANCH   8  10
ENDBRANCH   1   8
BRANCH   7  17
HETATM   17  C   UNK N   1      34.767  18.118   8.163  0.00  0.00     0.179 C 
HETATM   18  O   UNK N   1      34.539  17.951   6.976  0.00  0.00    -0.646 OA
BRANCH  17  19
HETATM   19  O   UNK N   1      35.263  19.303   8.573  0.00  0.00    -0.773 OA
HETATM   20  H   UNK N   1      34.887  20.101   8.260  0.00  0.00     0.167 HD
ENDBRANCH  17  19
ENDBRANCH   7  17
TORSDOF 4
ENDMDL
MODEL 2
REMARK VINA RESULT:      -6.1      3.923      5.403
REMARK  4 active torsions:
REMARK  status: ('A' for Active; 'I' for Inactive)
REMARK    1  A    between atoms: C_7  and  N_8 
REMARK    2  A    between atoms: N_8  and  C_9 
REMARK    3  A    between atoms: C_15  and  C_16 
REMARK    4  A    between atoms: C_16  and  O_18 
ROOT
HETATM    1  C   UNK N   1      29.563  17.223   6.908  0.00  0.00     0.122 A 
HETATM    2  N   UNK N   1      30.789  17.019   6.347  0.00  0.00    -0.351 N 
ATOM      3  HN  UNK N   1      30.840  16.645   5.399  1.00  0.00     0.166 HD
HETATM    4  C   UNK N   1      31.944  17.297   7.004  0.00  0.00     0.090 A 
HETATM    5  C   UNK N   1      31.901  17.809   8.298  0.00  0.00     0.018 A 
HETATM    6  C   UNK N   1      30.666  18.029   8.902  0.00  0.00     0.023 A 
HETATM    7  C   UNK N   1      29.475  17.740   8.219  0.00  0.00     0.081 A 
ENDROOT
BRANCH   1   8
HETATM    8  N   UNK N   1      28.376  16.916   6.179  0.00  0.00    -0.342 N 
HETATM    9  H   UNK N   1      28.010  16.007   6.281  0.00  0.00     0.167 HD
BRANCH   8  10
HETATM   10  C   UNK N   1      27.675  17.802   5.320  0.00  0.00     0.033 A 
HETATM   11  C   UNK N   1      26.439  17.405   4.796  0.00  0.00     0.031 A 
HETATM   12  C   UNK N   1      25.729  18.259   3.947  0.00  0.00     0.026 A 
HETATM   13  C   UNK N   1      26.252  19.515   3.620  0.00  0.00     0.034 A 
HETATM   14 Cl   UNK N   1      25.372  20.590   2.561  0.00  0.00    -0.084 Cl
HETATM   15  C   UNK N   1      27.483  19.916   4.140  0.00  0.00     0.026 A 
HETATM   16  C   UNK N   1      28.189  19.063   4.984  0.00  0.00     0.031 A 
ENDBRANCH   8  10
ENDBRANCH   1   8
BRANCH   7  17
HETATM   17  C   UNK N   1      28.174  17.988   8.896  0.00  0.00     0.179 C 
HETATM   18  O   UNK N   1      27.753  17.191   9.718  0.00  0.00    -0.646 OA
BRANCH  17  19
HETATM   19  O   UNK N   1      27.444  19.087   8.617  0.00  0.00    -0.773 OA
HETATM   20  H   UNK N   1      26.552  19.139   8.898  0.00  0.00     0.167 HD
ENDBRANCH  17  19
ENDBRANCH   7  17
TORSDOF 4
ENDMDL
MODEL 3
REMARK VINA RESULT:      -6.0      5.937      8.290
REMARK  4 active torsions:
REMARK  status: ('A' for Active; 'I' for Inactive)
REMARK    1  A    between atoms: C_7  and  N_8 
REMARK    2  A    between atoms: N_8  and  C_9 
REMARK    3  A    between atoms: C_15  and  C_16 
REMARK    4  A    between atoms: C_16  and  O_18 
ROOT
HETATM    1  C   UNK N   1      36.408  13.924  12.186  0.00  0.00     0.122 A 
HETATM    2  N   UNK N   1      37.489  13.096  12.110  0.00  0.00    -0.351 N 
ATOM      3  HN  UNK N   1      37.756  12.559  12.934  1.00  0.00     0.166 HD
HETATM    4  C   UNK N   1      38.222  12.961  10.975  0.00  0.00     0.090 A 
HETATM    5  C   UNK N   1      37.879  13.683   9.836  0.00  0.00     0.018 A 
HETATM    6  C   UNK N   1      36.781  14.538   9.878  0.00  0.00     0.023 A 
HETATM    7  C   UNK N   1      36.026  14.674  11.052  0.00  0.00     0.081 A 
ENDROOT
BRANCH   1   8
HETATM    8  N   UNK N   1      35.667  14.033  13.400  0.00  0.00    -0.342 N 
HETATM    9  H   UNK N   1      35.313  14.923  13.629  0.00  0.00     0.167 HD
BRANCH   8  10
HETATM   10  C   UNK N   1      35.396  12.975  14.306  0.00  0.00     0.033 A 
HETATM   11  C   UNK N   1      36.039  12.965  15.550  0.00  0.00     0.031 A 
HETATM   12  C   UNK N   1      35.790  11.934  16.461  0.00  0.00     0.026 A 
HETATM   13  C   UNK N   1      34.895  10.910  16.131  0.00  0.00     0.034 A 
HETATM   14 Cl   UNK N   1      34.576   9.618  17.264  0.00  0.00    -0.084 Cl
HETATM   15  C   UNK N   1      34.252  10.916  14.894  0.00  0.00     0.026 A 
HETATM   16  C   UNK N   1      34.502  11.943  13.988  0.00  0.00     0.031 A 
ENDBRANCH   8  10
ENDBRANCH   1   8
BRANCH   7  17
HETATM   17  C   UNK N   1      34.859  15.597  11.060  0.00  0.00     0.179 C 
HETATM   18  O   UNK N   1      35.029  16.795  10.899  0.00  0.00    -0.646 OA
BRANCH  17  19
HETATM   19  O   UNK N   1      33.607  15.133  11.243  0.00  0.00    -0.773 OA
HETATM   20  H   UNK N   1      33.456  14.406  11.813  0.00  0.00     0.167 HD
ENDBRANCH  17  19
ENDBRANCH   7  17
TORSDOF 4
ENDMDL
MODEL 4
REMARK VINA RESULT:      -5.9     16.831     17.833
REMARK  4 active torsions:
REMARK  status: ('A' for Active; 'I' for Inactive)
REMARK    1  A    between atoms: C_7  and  N_8 
REMARK    2  A    between atoms: N_8  and  C_9 
REMARK    3  A    between atoms: C_15  and  C_16 
REMARK    4  A    between atoms: C_16  and  O_18 
ROOT
HETATM    1  C   UNK N   1      26.663  23.059  -6.331  0.00  0.00     0.122 A 
HETATM    2  N   UNK N   1      27.967  23.301  -6.014  0.00  0.00    -0.351 N 
ATOM      3  HN  UNK N   1      28.181  24.027  -5.331  1.00  0.00     0.166 HD
HETATM    4  C   UNK N   1      28.990  22.608  -6.576  0.00  0.00     0.090 A 
HETATM    5  C   UNK N   1      28.726  21.612  -7.510  0.00  0.00     0.018 A 
HETATM    6  C   UNK N   1      27.405  21.338  -7.857  0.00  0.00     0.023 A 
HETATM    7  C   UNK N   1      26.350  22.056  -7.275  0.00  0.00     0.081 A 
ENDROOT
BRANCH   1   8
HETATM    8  N   UNK N   1      25.620  23.812  -5.715  0.00  0.00    -0.342 N 
HETATM    9  H   UNK N   1      24.742  23.373  -5.627  0.00  0.00     0.167 HD
BRANCH   8  10
HETATM   10  C   UNK N   1      25.733  25.137  -5.218  0.00  0.00     0.033 A 
HETATM   11  C   UNK N   1      26.289  25.342  -3.950  0.00  0.00     0.031 A 
HETATM   12  C   UNK N   1      26.411  26.636  -3.437  0.00  0.00     0.026 A 
HETATM   13  C   UNK N   1      25.978  27.732  -4.192  0.00  0.00     0.034 A 
HETATM   14 Cl   UNK N   1      26.127  29.354  -3.560  0.00  0.00    -0.084 Cl
HETATM   15  C   UNK N   1      25.423  27.534  -5.456  0.00  0.00     0.026 A 
HETATM   16  C   UNK N   1      25.302  26.243  -5.964  0.00  0.00     0.031 A 
ENDBRANCH   8  10
ENDBRANCH   1   8
BRANCH   7  17
HETATM   17  C   UNK N   1      24.952  21.737  -7.669  0.00  0.00     0.179 C 
HETATM   18  O   UNK N   1      24.120  21.483  -6.813  0.00  0.00    -0.646 OA
BRANCH  17  19
HETATM   19  O   UNK N   1      24.582  21.722  -8.965  0.00  0.00    -0.773 OA
HETATM   20  H   UNK N   1      24.571  20.914  -9.440  0.00  0.00     0.167 HD
ENDBRANCH  17  19
ENDBRANCH   7  17
TORSDOF 4
ENDMDL
MODEL 5
REMARK VINA RESULT:      -5.9      9.988     12.757
REMARK  4 active torsions:
REMARK  status: ('A' for Active; 'I' for Inactive)
REMARK    1  A    between atoms: C_7  and  N_8 
REMARK    2  A    between atoms: N_8  and  C_9 
REMARK    3  A    between atoms: C_15  and  C_16 
REMARK    4  A    between atoms: C_16  and  O_18 
ROOT
HETATM    1  C   UNK N   1      21.309  18.264   2.853  0.00  0.00     0.122 A 
HETATM    2  N   UNK N   1      21.268  16.940   3.177  0.00  0.00    -0.351 N 
ATOM      3  HN  UNK N   1      21.722  16.630   4.036  1.00  0.00     0.166 HD
HETATM    4  C   UNK N   1      20.643  16.021   2.397  0.00  0.00     0.090 A 
HETATM    5  C   UNK N   1      20.016  16.418   1.220  0.00  0.00     0.018 A 
HETATM    6  C   UNK N   1      20.038  17.762   0.858  0.00  0.00     0.023 A 
HETATM    7  C   UNK N   1      20.684  18.710   1.666  0.00  0.00     0.081 A 
ENDROOT
BRANCH   1   8
HETATM    8  N   UNK N   1      21.976  19.195   3.703  0.00  0.00    -0.342 N 
HETATM    9  H   UNK N   1      21.411  19.766   4.272  0.00  0.00     0.167 HD
BRANCH   8  10
HETATM   10  C   UNK N   1      23.381  19.370   3.802  0.00  0.00     0.033 A 
HETATM   11  C   UNK N   1      24.103  18.577   4.701  0.00  0.00     0.031 A 
HETATM   12  C   UNK N   1      25.488  18.730   4.819  0.00  0.00     0.026 A 
HETATM   13  C   UNK N   1      26.155  19.678   4.036  0.00  0.00     0.034 A 
HETATM   14 Cl   UNK N   1      27.886  19.877   4.175  0.00  0.00    -0.084 Cl
HETATM   15  C   UNK N   1      25.441  20.471   3.138  0.00  0.00     0.026 A 
HETATM   16  C   UNK N   1      24.062  20.317   3.023  0.00  0.00     0.031 A 
ENDBRANCH   8  10
ENDBRANCH   1   8
BRANCH   7  17
HETATM   17  C   UNK N   1      20.688  20.137   1.248  0.00  0.00     0.179 C 
HETATM   18  O   UNK N   1      20.675  21.019   2.091  0.00  0.00    -0.646 OA
BRANCH  17  19
HETATM   19  O   UNK N   1      20.705  20.479  -0.056  0.00  0.00    -0.773 OA
HETATM   20  H   UNK N   1      21.031  21.318  -0.315  0.00  0.00     0.167 HD
ENDBRANCH  17  19
ENDBRANCH   7  17
TORSDOF 4
ENDMDL
MODEL 6
REMARK VINA RESULT:      -5.8     13.105     14.994
REMARK  4 active torsions:
REMARK  status: ('A' for Active; 'I' for Inactive)
REMARK    1  A    between atoms: C_7  and  N_8 
REMARK    2  A    between atoms: N_8  and  C_9 
REMARK    3  A    between atoms: C_15  and  C_16 
REMARK    4  A    between atoms: C_16  and  O_18 
ROOT
HETATM    1  C   UNK N   1      30.327  23.079  -4.704  0.00  0.00     0.122 A 
HETATM    2  N   UNK N   1      29.883  22.888  -5.979  0.00  0.00    -0.351 N 
ATOM      3  HN  UNK N   1      29.520  23.688  -6.498  1.00  0.00     0.166 HD
HETATM    4  C   UNK N   1      29.907  21.672  -6.582  0.00  0.00     0.090 A 
HETATM    5  C   UNK N   1      30.397  20.566  -5.895  0.00  0.00     0.018 A 
HETATM    6  C   UNK N   1      30.858  20.724  -4.591  0.00  0.00     0.023 A 
HETATM    7  C   UNK N   1      30.832  21.982  -3.971  0.00  0.00     0.081 A 
ENDROOT
BRANCH   1   8
HETATM    8  N   UNK N   1      30.282  24.376  -4.111  0.00  0.00    -0.342 N 
HETATM    9  H   UNK N   1      31.126  24.730  -3.746  0.00  0.00     0.167 HD
BRANCH   8  10
HETATM   10  C   UNK N   1      29.132  25.200  -3.999  0.00  0.00     0.033 A 
HETATM   11  C   UNK N   1      29.261  26.578  -4.205  0.00  0.00     0.031 A 
HETATM   12  C   UNK N   1      28.144  27.412  -4.101  0.00  0.00     0.026 A 
HETATM   13  C   UNK N   1      26.893  26.869  -3.790  0.00  0.00     0.034 A 
HETATM   14 Cl   UNK N   1      25.490  27.904  -3.657  0.00  0.00    -0.084 Cl
HETATM   15  C   UNK N   1      26.758  25.497  -3.584  0.00  0.00     0.026 A 
HETATM   16  C   UNK N   1      27.872  24.668  -3.688  0.00  0.00     0.031 A 
ENDBRANCH   8  10
ENDBRANCH   1   8
BRANCH   7  17
HETATM   17  C   UNK N   1      31.333  22.113  -2.577  0.00  0.00     0.179 C 
HETATM   18  O   UNK N   1      30.775  22.869  -1.798  0.00  0.00    -0.646 OA
BRANCH  17  19
HETATM   19  O   UNK N   1      32.400  21.408  -2.152  0.00  0.00    -0.773 OA
HETATM   20  H   UNK N   1      32.337  20.479  -2.049  0.00  0.00     0.167 HD
ENDBRANCH  17  19
ENDBRANCH   7  17
TORSDOF 4
ENDMDL
MODEL 7
REMARK VINA RESULT:      -5.8      4.594      7.556
REMARK  4 active torsions:
REMARK  status: ('A' for Active; 'I' for Inactive)
REMARK    1  A    between atoms: C_7  and  N_8 
REMARK    2  A    between atoms: N_8  and  C_9 
REMARK    3  A    between atoms: C_15  and  C_16 
REMARK    4  A    between atoms: C_16  and  O_18 
ROOT
HETATM    1  C   UNK N   1      26.819  18.498   5.802  0.00  0.00     0.122 A 
HETATM    2  N   UNK N   1      26.584  17.622   4.783  0.00  0.00    -0.351 N 
ATOM      3  HN  UNK N   1      26.772  16.631   4.934  1.00  0.00     0.166 HD
HETATM    4  C   UNK N   1      26.110  18.023   3.576  0.00  0.00     0.090 A 
HETATM    5  C   UNK N   1      25.847  19.369   3.345  0.00  0.00     0.018 A 
HETATM    6  C   UNK N   1      26.075  20.291   4.363  0.00  0.00     0.023 A 
HETATM    7  C   UNK N   1      26.565  19.874   5.610  0.00  0.00     0.081 A 
ENDROOT
BRANCH   1   8
HETATM    8  N   UNK N   1      27.317  18.030   7.054  0.00  0.00    -0.342 N 
HETATM    9  H   UNK N   1      26.652  17.763   7.729  0.00  0.00     0.167 HD
BRANCH   8  10
HETATM   10  C   UNK N   1      28.686  17.916   7.414  0.00  0.00     0.033 A 
HETATM   11  C   UNK N   1      29.135  18.542   8.583  0.00  0.00     0.031 A 
HETATM   12  C   UNK N   1      30.478  18.445   8.960  0.00  0.00     0.026 A 
HETATM   13  C   UNK N   1      31.376  17.721   8.169  0.00  0.00     0.034 A 
HETATM   14 Cl   UNK N   1      33.057  17.594   8.632  0.00  0.00    -0.084 Cl
HETATM   15  C   UNK N   1      30.934  17.096   7.004  0.00  0.00     0.026 A 
HETATM   16  C   UNK N   1      29.596  17.194   6.630  0.00  0.00     0.031 A 
ENDBRANCH   8  10
ENDBRANCH   1   8
BRANCH   7  17
HETATM   17  C   UNK N   1      26.796  20.886   6.673  0.00  0.00     0.179 C 
HETATM   18  O   UNK N   1      27.490  21.864   6.444  0.00  0.00    -0.646 OA
BRANCH  17  19
HETATM   19  O   UNK N   1      26.250  20.746   7.898  0.00  0.00    -0.773 OA
HETATM   20  H   UNK N   1      26.791  20.518   8.628  0.00  0.00     0.167 HD
ENDBRANCH  17  19
ENDBRANCH   7  17
TORSDOF 4
ENDMDL
MODEL 8
REMARK VINA RESULT:      -5.7     10.377     11.585
REMARK  4 active torsions:
REMARK  status: ('A' for Active; 'I' for Inactive)
REMARK    1  A    between atoms: C_7  and  N_8 
REMARK    2  A    between atoms: N_8  and  C_9 
REMARK    3  A    between atoms: C_15  and  C_16 
REMARK    4  A    between atoms: C_16  and  O_18 
ROOT
HETATM    1  C   UNK N   1      22.499  12.786   9.595  0.00  0.00     0.122 A 
HETATM    2  N   UNK N   1      23.842  12.808   9.358  0.00  0.00    -0.351 N 
ATOM      3  HN  UNK N   1      24.175  13.105   8.441  1.00  0.00     0.166 HD
HETATM    4  C   UNK N   1      24.752  12.448  10.299  0.00  0.00     0.090 A 
HETATM    5  C   UNK N   1      24.324  12.039  11.558  0.00  0.00     0.018 A 
HETATM    6  C   UNK N   1      22.960  12.005  11.836  0.00  0.00     0.023 A 
HETATM    7  C   UNK N   1      22.023  12.377  10.860  0.00  0.00     0.081 A 
ENDROOT
BRANCH   1   8
HETATM    8  N   UNK N   1      21.580  13.173   8.575  0.00  0.00    -0.342 N 
HETATM    9  H   UNK N   1      20.906  12.508   8.305  0.00  0.00     0.167 HD
BRANCH   8  10
HETATM   10  C   UNK N   1      21.551  14.430   7.915  0.00  0.00     0.033 A 
HETATM   11  C   UNK N   1      20.738  15.447   8.428  0.00  0.00     0.031 A 
HETATM   12  C   UNK N   1      20.691  16.694   7.798  0.00  0.00     0.026 A 
HETATM   13  C   UNK N   1      21.458  16.927   6.651  0.00  0.00     0.034 A 
HETATM   14 Cl   UNK N   1      21.406  18.482   5.855  0.00  0.00    -0.084 Cl
HETATM   15  C   UNK N   1      22.269  15.917   6.135  0.00  0.00     0.026 A 
HETATM   16  C   UNK N   1      22.315  14.676   6.765  0.00  0.00     0.031 A 
ENDBRANCH   8  10
ENDBRANCH   1   8
BRANCH   7  17
HETATM   17  C   UNK N   1      20.574  12.328  11.192  0.00  0.00     0.179 C 
HETATM   18  O   UNK N   1      19.788  13.045  10.594  0.00  0.00    -0.646 OA
BRANCH  17  19
HETATM   19  O   UNK N   1      20.107  11.500  12.147  0.00  0.00    -0.773 OA
HETATM   20  H   UNK N   1      19.203  11.254  12.153  0.00  0.00     0.167 HD
ENDBRANCH  17  19
ENDBRANCH   7  17
TORSDOF 4
ENDMDL
MODEL 9
REMARK VINA RESULT:      -5.7     16.321     18.108
REMARK  4 active torsions:
REMARK  status: ('A' for Active; 'I' for Inactive)
REMARK    1  A    between atoms: C_7  and  N_8 
REMARK    2  A    between atoms: N_8  and  C_9 
REMARK    3  A    between atoms: C_15  and  C_16 
REMARK    4  A    between atoms: C_16  and  O_18 
ROOT
HETATM    1  C   UNK N   1      25.685  24.753  -6.250  0.00  0.00     0.122 A 
HETATM    2  N   UNK N   1      25.291  24.461  -7.523  0.00  0.00    -0.351 N 
ATOM      3  HN  UNK N   1      24.590  25.052  -7.968  1.00  0.00     0.166 HD
HETATM    4  C   UNK N   1      25.799  23.411  -8.217  0.00  0.00     0.090 A 
HETATM    5  C   UNK N   1      26.757  22.589  -7.633  0.00  0.00     0.018 A 
HETATM    6  C   UNK N   1      27.183  22.858  -6.335  0.00  0.00     0.023 A 
HETATM    7  C   UNK N   1      26.656  23.943  -5.620  0.00  0.00     0.081 A 
ENDROOT
BRANCH   1   8
HETATM    8  N   UNK N   1      25.124  25.867  -5.559  0.00  0.00    -0.342 N 
HETATM    9  H   UNK N   1      24.199  25.771  -5.232  0.00  0.00     0.167 HD
BRANCH   8  10
HETATM   10  C   UNK N   1      25.776  27.100  -5.300  0.00  0.00     0.033 A 
HETATM   11  C   UNK N   1      25.459  27.805  -4.133  0.00  0.00     0.031 A 
HETATM   12  C   UNK N   1      26.087  29.022  -3.855  0.00  0.00     0.026 A 
HETATM   13  C   UNK N   1      27.036  29.539  -4.743  0.00  0.00     0.034 A 
HETATM   14 Cl   UNK N   1      27.828  31.060  -4.404  0.00  0.00    -0.084 Cl
HETATM   15  C   UNK N   1      27.357  28.841  -5.907  0.00  0.00     0.026 A 
HETATM   16  C   UNK N   1      26.729  27.629  -6.183  0.00  0.00     0.031 A 
ENDBRANCH   8  10
ENDBRANCH   1   8
BRANCH   7  17
HETATM   17  C   UNK N   1      27.134  24.200  -4.235  0.00  0.00     0.179 C 
HETATM   18  O   UNK N   1      28.324  24.371  -4.024  0.00  0.00    -0.646 OA
BRANCH  17  19
HETATM   19  O   UNK N   1      26.273  24.248  -3.200  0.00  0.00    -0.773 OA
HETATM   20  H   UNK N   1      25.420  24.618  -3.316  0.00  0.00     0.167 HD
ENDBRANCH  17  19
ENDBRANCH   7  17
TORSDOF 4
ENDMDL
