MODEL 1
REMARK VINA RESULT:      -5.9      0.000      0.000
REMARK  0 active torsions:
REMARK  status: ('A' for Active; 'I' for Inactive)
ROOT
HETATM    1  O   UNK N   1      35.181  18.850   8.435  0.00  0.00    -0.260 OA
HETATM    2  C   UNK N   1      34.231  18.346   7.867  0.00  0.00     0.288 A 
HETATM    3  O   UNK N   1      34.281  18.139   6.554  0.00  0.00    -0.275 OA
HETATM    4  C   UNK N   1      33.273  17.592   5.881  0.00  0.00     0.090 A 
HETATM    5  C   UNK N   1      33.385  17.400   4.502  0.00  0.00     0.038 A 
HETATM    6  C   UNK N   1      32.332  16.826   3.786  0.00  0.00     0.003 A 
HETATM    7  C   UNK N   1      31.161  16.443   4.447  0.00  0.00     0.001 A 
HETATM    8  C   UNK N   1      31.038  16.631   5.828  0.00  0.00     0.015 A 
HETATM    9  C   UNK N   1      32.091  17.206   6.555  0.00  0.00     0.004 A 
HETATM   10  C   UNK N   1      32.012  17.414   7.942  0.00  0.00    -0.043 A 
HETATM   11  C   UNK N   1      30.803  17.037   8.733  0.00  0.00     0.049 C 
HETATM   12  C   UNK N   1      33.096  17.990   8.599  0.00  0.00     0.090 A 
ENDROOT
TORSDOF 0
ENDMDL
MODEL 2
REMARK VINA RESULT:      -5.7     10.450     11.552
REMARK  0 active torsions:
REMARK  status: ('A' for Active; 'I' for Inactive)
ROOT
HETATM    1  O   UNK N   1      30.267  23.131  -1.439  0.00  0.00    -0.260 OA
HETATM    2  C   UNK N   1      30.729  22.510  -2.377  0.00  0.00     0.288 A 
HETATM    3  O   UNK N   1      31.943  21.973  -2.278  0.00  0.00    -0.275 OA
HETATM    4  C   UNK N   1      32.498  21.284  -3.271  0.00  0.00     0.090 A 
HETATM    5  C   UNK N   1      33.777  20.744  -3.108  0.00  0.00     0.038 A 
HETATM    6  C   UNK N   1      34.369  20.019  -4.144  0.00  0.00     0.003 A 
HETATM    7  C   UNK N   1      33.685  19.831  -5.349  0.00  0.00     0.001 A 
HETATM    8  C   UNK N   1      32.404  20.367  -5.523  0.00  0.00     0.015 A 
HETATM    9  C   UNK N   1      31.802  21.097  -4.488  0.00  0.00     0.004 A 
HETATM   10  C   UNK N   1      30.519  21.653  -4.617  0.00  0.00    -0.043 A 
HETATM   11  C   UNK N   1      29.713  21.505  -5.865  0.00  0.00     0.049 C 
HETATM   12  C   UNK N   1      29.982  22.366  -3.548  0.00  0.00     0.090 A 
ENDROOT
TORSDOF 0
ENDMDL
MODEL 3
REMARK VINA RESULT:      -5.4     10.736     12.524
REMARK  0 active torsions:
REMARK  status: ('A' for Active; 'I' for Inactive)
ROOT
HETATM    1  O   UNK N   1      34.545  12.733  13.592  0.00  0.00    -0.260 OA
HETATM    2  C   UNK N   1      34.757  12.280  14.700  0.00  0.00     0.288 A 
HETATM    3  O   UNK N   1      34.789  13.095  15.751  0.00  0.00    -0.275 OA
HETATM    4  C   UNK N   1      35.016  12.656  16.985  0.00  0.00     0.090 A 
HETATM    5  C   UNK N   1      35.038  13.561  18.049  0.00  0.00     0.038 A 
HETATM    6  C   UNK N   1      35.275  13.110  19.349  0.00  0.00     0.003 A 
HETATM    7  C   UNK N   1      35.492  11.750  19.592  0.00  0.00     0.001 A 
HETATM    8  C   UNK N   1      35.473  10.835  18.533  0.00  0.00     0.015 A 
HETATM    9  C   UNK N   1      35.235  11.279  17.224  0.00  0.00     0.004 A 
HETATM   10  C   UNK N   1      35.207  10.397  16.132  0.00  0.00    -0.043 A 
HETATM   11  C   UNK N   1      35.427   8.929  16.292  0.00  0.00     0.049 C 
HETATM   12  C   UNK N   1      34.965  10.908  14.859  0.00  0.00     0.090 A 
ENDROOT
TORSDOF 0
ENDMDL
MODEL 4
REMARK VINA RESULT:      -5.4     10.380     12.356
REMARK  0 active torsions:
REMARK  status: ('A' for Active; 'I' for Inactive)
ROOT
HETATM    1  O   UNK N   1      20.159  13.816   7.171  0.00  0.00    -0.260 OA
HETATM    2  C   UNK N   1      21.089  13.497   7.887  0.00  0.00     0.288 A 
HETATM    3  O   UNK N   1      20.851  13.064   9.123  0.00  0.00    -0.275 OA
HETATM    4  C   UNK N   1      21.828  12.702   9.949  0.00  0.00     0.090 A 
HETATM    5  C   UNK N   1      21.515  12.255  11.235  0.00  0.00     0.038 A 
HETATM    6  C   UNK N   1      22.534  11.873  12.111  0.00  0.00     0.003 A 
HETATM    7  C   UNK N   1      23.870  11.936  11.704  0.00  0.00     0.001 A 
HETATM    8  C   UNK N   1      24.194  12.382  10.418  0.00  0.00     0.015 A 
HETATM    9  C   UNK N   1      23.178  12.768   9.532  0.00  0.00     0.004 A 
HETATM   10  C   UNK N   1      23.455  13.222   8.232  0.00  0.00    -0.043 A 
HETATM   11  C   UNK N   1      24.850  13.324   7.709  0.00  0.00     0.049 C 
HETATM   12  C   UNK N   1      22.396  13.589   7.406  0.00  0.00     0.090 A 
ENDROOT
TORSDOF 0
ENDMDL
MODEL 5
REMARK VINA RESULT:      -5.3     10.927     12.290
REMARK  0 active torsions:
REMARK  status: ('A' for Active; 'I' for Inactive)
ROOT
HETATM    1  O   UNK N   1      35.226  14.971  18.722  0.00  0.00    -0.260 OA
HETATM    2  C   UNK N   1      35.183  13.839  18.280  0.00  0.00     0.288 A 
HETATM    3  O   UNK N   1      34.922  13.644  16.989  0.00  0.00    -0.275 OA
HETATM    4  C   UNK N   1      34.862  12.429  16.452  0.00  0.00     0.090 A 
HETATM    5  C   UNK N   1      34.584  12.289  15.090  0.00  0.00     0.038 A 
HETATM    6  C   UNK N   1      34.519  11.017  14.516  0.00  0.00     0.003 A 
HETATM    7  C   UNK N   1      34.732   9.880  15.301  0.00  0.00     0.001 A 
HETATM    8  C   UNK N   1      35.011  10.010  16.666  0.00  0.00     0.015 A 
HETATM    9  C   UNK N   1      35.079  11.283  17.251  0.00  0.00     0.004 A 
HETATM   10  C   UNK N   1      35.356  11.461  18.617  0.00  0.00    -0.043 A 
HETATM   11  C   UNK N   1      35.598  10.308  19.534  0.00  0.00     0.049 C 
HETATM   12  C   UNK N   1      35.408  12.754  19.130  0.00  0.00     0.090 A 
ENDROOT
TORSDOF 0
ENDMDL
MODEL 6
REMARK VINA RESULT:      -5.2      8.925     10.245
REMARK  0 active torsions:
REMARK  status: ('A' for Active; 'I' for Inactive)
ROOT
HETATM    1  O   UNK N   1      37.918  16.259  15.826  0.00  0.00    -0.260 OA
HETATM    2  C   UNK N   1      37.142  15.322  15.830  0.00  0.00     0.288 A 
HETATM    3  O   UNK N   1      36.809  14.737  14.682  0.00  0.00    -0.275 OA
HETATM    4  C   UNK N   1      35.966  13.710  14.626  0.00  0.00     0.090 A 
HETATM    5  C   UNK N   1      35.654  13.137  13.390  0.00  0.00     0.038 A 
HETATM    6  C   UNK N   1      34.771  12.058  13.321  0.00  0.00     0.003 A 
HETATM    7  C   UNK N   1      34.195  11.546  14.488  0.00  0.00     0.001 A 
HETATM    8  C   UNK N   1      34.501  12.112  15.731  0.00  0.00     0.015 A 
HETATM    9  C   UNK N   1      35.387  13.196  15.810  0.00  0.00     0.004 A 
HETATM   10  C   UNK N   1      35.723  13.796  17.035  0.00  0.00    -0.043 A 
HETATM   11  C   UNK N   1      35.159  13.318  18.332  0.00  0.00     0.049 C 
HETATM   12  C   UNK N   1      36.610  14.869  17.038  0.00  0.00     0.090 A 
ENDROOT
TORSDOF 0
ENDMDL
MODEL 7
REMARK VINA RESULT:      -5.2      9.570     10.844
REMARK  0 active torsions:
REMARK  status: ('A' for Active; 'I' for Inactive)
ROOT
HETATM    1  O   UNK N   1      20.809  21.293   1.625  0.00  0.00    -0.260 OA
HETATM    2  C   UNK N   1      21.599  20.666   2.304  0.00  0.00     0.288 A 
HETATM    3  O   UNK N   1      22.903  20.910   2.194  0.00  0.00    -0.275 OA
HETATM    4  C   UNK N   1      23.811  20.255   2.911  0.00  0.00     0.090 A 
HETATM    5  C   UNK N   1      25.166  20.556   2.752  0.00  0.00     0.038 A 
HETATM    6  C   UNK N   1      26.128  19.874   3.500  0.00  0.00     0.003 A 
HETATM    7  C   UNK N   1      25.740  18.888   4.412  0.00  0.00     0.001 A 
HETATM    8  C   UNK N   1      24.385  18.579   4.579  0.00  0.00     0.015 A 
HETATM    9  C   UNK N   1      23.412  19.259   3.832  0.00  0.00     0.004 A 
HETATM   10  C   UNK N   1      22.041  18.982   3.967  0.00  0.00    -0.043 A 
HETATM   11  C   UNK N   1      21.531  17.947   4.914  0.00  0.00     0.049 C 
HETATM   12  C   UNK N   1      21.131  19.696   3.192  0.00  0.00     0.090 A 
ENDROOT
TORSDOF 0
ENDMDL
MODEL 8
REMARK VINA RESULT:      -5.1     10.098     11.612
REMARK  0 active torsions:
REMARK  status: ('A' for Active; 'I' for Inactive)
ROOT
HETATM    1  O   UNK N   1      19.355  14.179   9.813  0.00  0.00    -0.260 OA
HETATM    2  C   UNK N   1      20.521  13.882   9.639  0.00  0.00     0.288 A 
HETATM    3  O   UNK N   1      21.167  14.340   8.568  0.00  0.00    -0.275 OA
HETATM    4  C   UNK N   1      22.441  14.047   8.328  0.00  0.00     0.090 A 
HETATM    5  C   UNK N   1      23.064  14.557   7.186  0.00  0.00     0.038 A 
HETATM    6  C   UNK N   1      24.403  14.256   6.924  0.00  0.00     0.003 A 
HETATM    7  C   UNK N   1      25.124  13.442   7.803  0.00  0.00     0.001 A 
HETATM    8  C   UNK N   1      24.509  12.925   8.949  0.00  0.00     0.015 A 
HETATM    9  C   UNK N   1      23.166  13.223   9.220  0.00  0.00     0.004 A 
HETATM   10  C   UNK N   1      22.508  12.726  10.357  0.00  0.00    -0.043 A 
HETATM   11  C   UNK N   1      23.195  11.850  11.352  0.00  0.00     0.049 C 
HETATM   12  C   UNK N   1      21.172  13.063  10.563  0.00  0.00     0.090 A 
ENDROOT
TORSDOF 0
ENDMDL
MODEL 9
REMARK VINA RESULT:      -5.1      1.571      3.582
REMARK  0 active torsions:
REMARK  status: ('A' for Active; 'I' for Inactive)
ROOT
HETATM    1  O   UNK N   1      34.452  17.980   7.054  0.00  0.00    -0.260 OA
HETATM    2  C   UNK N   1      33.257  17.752   7.050  0.00  0.00     0.288 A 
HETATM    3  O   UNK N   1      32.504  18.165   8.067  0.00  0.00    -0.275 OA
HETATM    4  C   UNK N   1      31.193  17.944   8.116  0.00  0.00     0.090 A 
HETATM    5  C   UNK N   1      30.455  18.403   9.209  0.00  0.00     0.038 A 
HETATM    6  C   UNK N   1      29.078  18.175   9.270  0.00  0.00     0.003 A 
HETATM    7  C   UNK N   1      28.433  17.488   8.237  0.00  0.00     0.001 A 
HETATM    8  C   UNK N   1      29.164  17.025   7.137  0.00  0.00     0.015 A 
HETATM    9  C   UNK N   1      30.546  17.248   7.068  0.00  0.00     0.004 A 
HETATM   10  C   UNK N   1      31.320  16.802   5.983  0.00  0.00    -0.043 A 
HETATM   11  C   UNK N   1      30.720  16.060   4.834  0.00  0.00     0.049 C 
HETATM   12  C   UNK N   1      32.688  17.059   5.980  0.00  0.00     0.090 A 
ENDROOT
TORSDOF 0
ENDMDL
