MODEL 1
REMARK VINA RESULT:      -4.8      0.000      0.000
REMARK  4 active torsions:
REMARK  status: ('A' for Active; 'I' for Inactive)
REMARK       I    between atoms: N_1  and  C_2 
REMARK    1  A    between atoms: C_5  and  O_11 
REMARK    2  A    between atoms: O_11  and  C_12 
REMARK    3  A    between atoms: C_12  and  C_13 
REMARK    4  A    between atoms: C_13  and  O_14 
ROOT
HETATM    1  N   UNK N   1      22.306  11.560  12.592  0.00  0.00    -0.234 N 
HETATM    2  C   UNK N   1      22.416  12.247  11.366  0.00  0.00     0.678 A 
HETATM    3  N   UNK N   1      21.294  12.667  10.720  0.00  0.00    -0.171 N 
ATOM      4  HN  UNK N   1      20.378  12.482  11.128  1.00  0.00     0.186 HD
HETATM    5  C   UNK N   1      21.382  13.333   9.534  0.00  0.00     0.159 A 
HETATM    6  C   UNK N   1      22.644  13.583   8.981  0.00  0.00     0.081 A 
HETATM    7  C   UNK N   1      23.774  13.146   9.656  0.00  0.00     0.026 A 
HETATM    8  C   UNK N   1      25.121  13.403   9.084  0.00  0.00     0.069 C 
HETATM    9  N   UNK N   1      23.645  12.486  10.836  0.00  0.00    -0.196 N 
ATOM     10  HN  UNK N   1      24.478  12.166  11.329  1.00  0.00     0.184 HD
HETATM   11  H   UNK N   1      21.419  11.384  12.981  0.00  0.00     0.174 HD
HETATM   12  H   UNK N   1      23.117  11.255  13.060  0.00  0.00     0.174 HD
ENDROOT
BRANCH   5  13
HETATM   13  O   UNK N   1      20.252  13.743   8.906  0.00  0.00    -0.333 OA
BRANCH  13  14
HETATM   14  C   UNK N   1      20.261  14.842   8.072  0.00  0.00     0.203 C 
BRANCH  14  15
HETATM   15  C   UNK N   1      19.809  16.096   8.781  0.00  0.00     0.193 C 
BRANCH  15  16
HETATM   16  O   UNK N   1      18.467  15.929   9.129  0.00  0.00    -0.394 OA
HETATM   17  C   UNK N   1      17.952  17.220   9.224  0.00  0.00     0.201 C 
ENDBRANCH  15  16
ENDBRANCH  14  15
ENDBRANCH  13  14
ENDBRANCH   5  13
TORSDOF 4
ENDMDL
MODEL 2
REMARK VINA RESULT:      -4.6     18.149     19.332
REMARK  4 active torsions:
REMARK  status: ('A' for Active; 'I' for Inactive)
REMARK       I    between atoms: N_1  and  C_2 
REMARK    1  A    between atoms: C_5  and  O_11 
REMARK    2  A    between atoms: O_11  and  C_12 
REMARK    3  A    between atoms: C_12  and  C_13 
REMARK    4  A    between atoms: C_13  and  O_14 
ROOT
HETATM    1  N   UNK N   1      25.289  23.174  -6.516  0.00  0.00    -0.234 N 
HETATM    2  C   UNK N   1      25.868  24.187  -5.724  0.00  0.00     0.678 A 
HETATM    3  N   UNK N   1      27.031  23.946  -5.058  0.00  0.00    -0.171 N 
ATOM      4  HN  UNK N   1      27.476  23.033  -5.135  1.00  0.00     0.186 HD
HETATM    5  C   UNK N   1      27.605  24.913  -4.288  0.00  0.00     0.159 A 
HETATM    6  C   UNK N   1      26.985  26.166  -4.187  0.00  0.00     0.081 A 
HETATM    7  C   UNK N   1      25.802  26.390  -4.874  0.00  0.00     0.026 A 
HETATM    8  C   UNK N   1      25.131  27.711  -4.779  0.00  0.00     0.069 C 
HETATM    9  N   UNK N   1      25.261  25.399  -5.631  0.00  0.00    -0.196 N 
ATOM     10  HN  UNK N   1      24.390  25.567  -6.135  1.00  0.00     0.184 HD
HETATM   11  H   UNK N   1      25.725  22.294  -6.586  0.00  0.00     0.174 HD
HETATM   12  H   UNK N   1      24.448  23.347  -6.998  0.00  0.00     0.174 HD
ENDROOT
BRANCH   5  13
HETATM   13  O   UNK N   1      28.763  24.654  -3.632  0.00  0.00    -0.333 OA
BRANCH  13  14
HETATM   14  C   UNK N   1      29.206  23.361  -3.453  0.00  0.00     0.203 C 
BRANCH  14  15
HETATM   15  C   UNK N   1      29.322  22.997  -1.992  0.00  0.00     0.193 C 
BRANCH  15  16
HETATM   16  O   UNK N   1      30.681  22.962  -1.668  0.00  0.00    -0.394 OA
HETATM   17  C   UNK N   1      31.298  22.350  -2.756  0.00  0.00     0.201 C 
ENDBRANCH  15  16
ENDBRANCH  14  15
ENDBRANCH  13  14
ENDBRANCH   5  13
TORSDOF 4
ENDMDL
MODEL 3
REMARK VINA RESULT:      -4.6      1.770      2.059
REMARK  4 active torsions:
REMARK  status: ('A' for Active; 'I' for Inactive)
REMARK       I    between atoms: N_1  and  C_2 
REMARK    1  A    between atoms: C_5  and  O_11 
REMARK    2  A    between atoms: O_11  and  C_12 
REMARK    3  A    between atoms: C_12  and  C_13 
REMARK    4  A    between atoms: C_13  and  O_14 
ROOT
HETATM    1  N   UNK N   1      19.946  11.684  12.049  0.00  0.00    -0.234 N 
HETATM    2  C   UNK N   1      20.943  12.268  11.242  0.00  0.00     0.678 A 
HETATM    3  N   UNK N   1      20.598  13.166  10.279  0.00  0.00    -0.171 N 
ATOM      4  HN  UNK N   1      19.618  13.412  10.147  1.00  0.00     0.186 HD
HETATM    5  C   UNK N   1      21.549  13.740   9.490  0.00  0.00     0.159 A 
HETATM    6  C   UNK N   1      22.894  13.396   9.679  0.00  0.00     0.081 A 
HETATM    7  C   UNK N   1      23.224  12.479  10.665  0.00  0.00     0.026 A 
HETATM    8  C   UNK N   1      24.644  12.103  10.880  0.00  0.00     0.069 C 
HETATM    9  N   UNK N   1      22.246  11.929  11.431  0.00  0.00    -0.196 N 
ATOM     10  HN  UNK N   1      22.492  11.255  12.156  1.00  0.00     0.184 HD
HETATM   11  H   UNK N   1      19.000  11.926  11.916  0.00  0.00     0.174 HD
HETATM   12  H   UNK N   1      20.194  11.034  12.746  0.00  0.00     0.174 HD
ENDROOT
BRANCH   5  13
HETATM   13  O   UNK N   1      21.186  14.633   8.536  0.00  0.00    -0.333 OA
BRANCH  13  14
HETATM   14  C   UNK N   1      20.668  15.865   8.875  0.00  0.00     0.203 C 
BRANCH  14  15
HETATM   15  C   UNK N   1      20.106  16.593   7.677  0.00  0.00     0.193 C 
BRANCH  15  16
HETATM   16  O   UNK N   1      20.672  17.870   7.650  0.00  0.00    -0.394 OA
HETATM   17  C   UNK N   1      21.331  17.950   6.425  0.00  0.00     0.201 C 
ENDBRANCH  15  16
ENDBRANCH  14  15
ENDBRANCH  13  14
ENDBRANCH   5  13
TORSDOF 4
ENDMDL
MODEL 4
REMARK VINA RESULT:      -4.6      9.200     11.334
REMARK  4 active torsions:
REMARK  status: ('A' for Active; 'I' for Inactive)
REMARK       I    between atoms: N_1  and  C_2 
REMARK    1  A    between atoms: C_5  and  O_11 
REMARK    2  A    between atoms: O_11  and  C_12 
REMARK    3  A    between atoms: C_12  and  C_13 
REMARK    4  A    between atoms: C_13  and  O_14 
ROOT
HETATM    1  N   UNK N   1      27.728  18.547   9.025  0.00  0.00    -0.234 N 
HETATM    2  C   UNK N   1      28.317  18.258   7.777  0.00  0.00     0.678 A 
HETATM    3  N   UNK N   1      29.512  17.607   7.725  0.00  0.00    -0.171 N 
ATOM      4  HN  UNK N   1      29.974  17.332   8.591  1.00  0.00     0.186 HD
HETATM    5  C   UNK N   1      30.096  17.319   6.528  0.00  0.00     0.159 A 
HETATM    6  C   UNK N   1      29.453  17.701   5.343  0.00  0.00     0.081 A 
HETATM    7  C   UNK N   1      28.237  18.363   5.419  0.00  0.00     0.026 A 
HETATM    8  C   UNK N   1      27.541  18.775   4.173  0.00  0.00     0.069 C 
HETATM    9  N   UNK N   1      27.687  18.631   6.632  0.00  0.00    -0.196 N 
ATOM     10  HN  UNK N   1      26.793  19.119   6.684  1.00  0.00     0.184 HD
HETATM   11  H   UNK N   1      28.180  18.278   9.857  0.00  0.00     0.174 HD
HETATM   12  H   UNK N   1      26.864  19.018   9.063  0.00  0.00     0.174 HD
ENDROOT
BRANCH   5  13
HETATM   13  O   UNK N   1      31.286  16.670   6.497  0.00  0.00    -0.333 OA
BRANCH  13  14
HETATM   14  C   UNK N   1      32.338  17.149   5.745  0.00  0.00     0.203 C 
BRANCH  14  15
HETATM   15  C   UNK N   1      33.674  16.850   6.383  0.00  0.00     0.193 C 
BRANCH  15  16
HETATM   16  O   UNK N   1      34.310  18.068   6.633  0.00  0.00    -0.394 OA
HETATM   17  C   UNK N   1      34.250  18.233   8.015  0.00  0.00     0.201 C 
ENDBRANCH  15  16
ENDBRANCH  14  15
ENDBRANCH  13  14
ENDBRANCH   5  13
TORSDOF 4
ENDMDL
MODEL 5
REMARK VINA RESULT:      -4.5     13.873     14.629
REMARK  4 active torsions:
REMARK  status: ('A' for Active; 'I' for Inactive)
REMARK       I    between atoms: N_1  and  C_2 
REMARK    1  A    between atoms: C_5  and  O_11 
REMARK    2  A    between atoms: O_11  and  C_12 
REMARK    3  A    between atoms: C_12  and  C_13 
REMARK    4  A    between atoms: C_13  and  O_14 
ROOT
HETATM    1  N   UNK N   1      37.308  14.709  15.532  0.00  0.00    -0.234 N 
HETATM    2  C   UNK N   1      36.559  14.143  14.480  0.00  0.00     0.678 A 
HETATM    3  N   UNK N   1      36.644  14.666  13.227  0.00  0.00    -0.171 N 
ATOM      4  HN  UNK N   1      37.251  15.467  13.055  1.00  0.00     0.186 HD
HETATM    5  C   UNK N   1      35.926  14.132  12.199  0.00  0.00     0.159 A 
HETATM    6  C   UNK N   1      35.094  13.031  12.444  0.00  0.00     0.081 A 
HETATM    7  C   UNK N   1      35.022  12.514  13.729  0.00  0.00     0.026 A 
HETATM    8  C   UNK N   1      34.146  11.348  14.007  0.00  0.00     0.069 C 
HETATM    9  N   UNK N   1      35.754  13.076  14.727  0.00  0.00    -0.196 N 
ATOM     10  HN  UNK N   1      35.698  12.693  15.670  1.00  0.00     0.184 HD
HETATM   11  H   UNK N   1      37.893  15.483  15.359  0.00  0.00     0.174 HD
HETATM   12  H   UNK N   1      37.247  14.332  16.439  0.00  0.00     0.174 HD
ENDROOT
BRANCH   5  13
HETATM   13  O   UNK N   1      36.025  14.667  10.957  0.00  0.00    -0.333 OA
BRANCH  13  14
HETATM   14  C   UNK N   1      35.854  16.020  10.749  0.00  0.00     0.203 C 
BRANCH  14  15
HETATM   15  C   UNK N   1      34.856  16.304   9.652  0.00  0.00     0.193 C 
BRANCH  15  16
HETATM   16  O   UNK N   1      34.721  17.690   9.546  0.00  0.00    -0.394 OA
HETATM   17  C   UNK N   1      34.547  17.937   8.187  0.00  0.00     0.201 C 
ENDBRANCH  15  16
ENDBRANCH  14  15
ENDBRANCH  13  14
ENDBRANCH   5  13
TORSDOF 4
ENDMDL
MODEL 6
REMARK VINA RESULT:      -4.5     12.475     14.108
REMARK  4 active torsions:
REMARK  status: ('A' for Active; 'I' for Inactive)
REMARK       I    between atoms: N_1  and  C_2 
REMARK    1  A    between atoms: C_5  and  O_11 
REMARK    2  A    between atoms: O_11  and  C_12 
REMARK    3  A    between atoms: C_12  and  C_13 
REMARK    4  A    between atoms: C_13  and  O_14 
ROOT
HETATM    1  N   UNK N   1      32.423  13.729   9.247  0.00  0.00    -0.234 N 
HETATM    2  C   UNK N   1      33.345  14.725   9.628  0.00  0.00     0.678 A 
HETATM    3  N   UNK N   1      34.090  14.566  10.756  0.00  0.00    -0.171 N 
ATOM      4  HN  UNK N   1      33.976  13.725  11.320  1.00  0.00     0.186 HD
HETATM    5  C   UNK N   1      34.986  15.518  11.138  0.00  0.00     0.159 A 
HETATM    6  C   UNK N   1      35.136  16.671  10.357  0.00  0.00     0.081 A 
HETATM    7  C   UNK N   1      34.367  16.814   9.211  0.00  0.00     0.026 A 
HETATM    8  C   UNK N   1      34.513  18.029   8.370  0.00  0.00     0.069 C 
HETATM    9  N   UNK N   1      33.485  15.841   8.863  0.00  0.00    -0.196 N 
ATOM     10  HN  UNK N   1      32.921  15.949   8.020  1.00  0.00     0.184 HD
HETATM   11  H   UNK N   1      32.318  12.919   9.797  0.00  0.00     0.174 HD
HETATM   12  H   UNK N   1      31.884  13.844   8.431  0.00  0.00     0.174 HD
ENDROOT
BRANCH   5  13
HETATM   13  O   UNK N   1      35.719  15.341  12.266  0.00  0.00    -0.333 OA
BRANCH  13  14
HETATM   14  C   UNK N   1      36.135  14.085  12.654  0.00  0.00     0.203 C 
BRANCH  14  15
HETATM   15  C   UNK N   1      35.964  13.864  14.138  0.00  0.00     0.193 C 
BRANCH  15  16
HETATM   16  O   UNK N   1      34.758  13.187  14.332  0.00  0.00    -0.394 OA
HETATM   17  C   UNK N   1      34.776  12.784  15.666  0.00  0.00     0.201 C 
ENDBRANCH  15  16
ENDBRANCH  14  15
ENDBRANCH  13  14
ENDBRANCH   5  13
TORSDOF 4
ENDMDL
MODEL 7
REMARK VINA RESULT:      -4.5     11.644     13.609
REMARK  4 active torsions:
REMARK  status: ('A' for Active; 'I' for Inactive)
REMARK       I    between atoms: N_1  and  C_2 
REMARK    1  A    between atoms: C_5  and  O_11 
REMARK    2  A    between atoms: O_11  and  C_12 
REMARK    3  A    between atoms: C_12  and  C_13 
REMARK    4  A    between atoms: C_13  and  O_14 
ROOT
HETATM    1  N   UNK N   1      30.443  17.132   8.899  0.00  0.00    -0.234 N 
HETATM    2  C   UNK N   1      31.746  17.269   8.380  0.00  0.00     0.678 A 
HETATM    3  N   UNK N   1      32.808  17.362   9.226  0.00  0.00    -0.171 N 
ATOM      4  HN  UNK N   1      32.654  17.332  10.233  1.00  0.00     0.186 HD
HETATM    5  C   UNK N   1      34.075  17.494   8.741  0.00  0.00     0.159 A 
HETATM    6  C   UNK N   1      34.277  17.534   7.356  0.00  0.00     0.081 A 
HETATM    7  C   UNK N   1      33.181  17.438   6.511  0.00  0.00     0.026 A 
HETATM    8  C   UNK N   1      33.376  17.478   5.040  0.00  0.00     0.069 C 
HETATM    9  N   UNK N   1      31.934  17.307   7.034  0.00  0.00    -0.196 N 
ATOM     10  HN  UNK N   1      31.130  17.236   6.410  1.00  0.00     0.184 HD
HETATM   11  H   UNK N   1      30.301  17.104   9.874  0.00  0.00     0.174 HD
HETATM   12  H   UNK N   1      29.674  17.064   8.288  0.00  0.00     0.174 HD
ENDROOT
BRANCH   5  13
HETATM   13  O   UNK N   1      35.120  17.586   9.601  0.00  0.00    -0.333 OA
BRANCH  13  14
HETATM   14  C   UNK N   1      35.326  16.631  10.575  0.00  0.00     0.203 C 
BRANCH  14  15
HETATM   15  C   UNK N   1      35.844  15.335   9.998  0.00  0.00     0.193 C 
BRANCH  15  16
HETATM   16  O   UNK N   1      36.237  14.522  11.064  0.00  0.00    -0.394 OA
HETATM   17  C   UNK N   1      35.074  14.291  11.795  0.00  0.00     0.201 C 
ENDBRANCH  15  16
ENDBRANCH  14  15
ENDBRANCH  13  14
ENDBRANCH   5  13
TORSDOF 4
ENDMDL
MODEL 8
REMARK VINA RESULT:      -4.4      8.466      9.423
REMARK  4 active torsions:
REMARK  status: ('A' for Active; 'I' for Inactive)
REMARK       I    between atoms: N_1  and  C_2 
REMARK    1  A    between atoms: C_5  and  O_11 
REMARK    2  A    between atoms: O_11  and  C_12 
REMARK    3  A    between atoms: C_12  and  C_13 
REMARK    4  A    between atoms: C_13  and  O_14 
ROOT
HETATM    1  N   UNK N   1      18.416  16.457  -0.347  0.00  0.00    -0.234 N 
HETATM    2  C   UNK N   1      19.391  16.446   0.671  0.00  0.00     0.678 A 
HETATM    3  N   UNK N   1      19.365  17.393   1.648  0.00  0.00    -0.171 N 
ATOM      4  HN  UNK N   1      18.637  18.107   1.639  1.00  0.00     0.186 HD
HETATM    5  C   UNK N   1      20.299  17.397   2.639  0.00  0.00     0.159 A 
HETATM    6  C   UNK N   1      21.296  16.412   2.645  0.00  0.00     0.081 A 
HETATM    7  C   UNK N   1      21.305  15.457   1.640  0.00  0.00     0.026 A 
HETATM    8  C   UNK N   1      22.354  14.405   1.630  0.00  0.00     0.069 C 
HETATM    9  N   UNK N   1      20.355  15.487   0.669  0.00  0.00    -0.196 N 
ATOM     10  HN  UNK N   1      20.364  14.783  -0.069  1.00  0.00     0.184 HD
HETATM   11  H   UNK N   1      17.716  17.150  -0.350  0.00  0.00     0.174 HD
HETATM   12  H   UNK N   1      18.434  15.773  -1.054  0.00  0.00     0.174 HD
ENDROOT
BRANCH   5  13
HETATM   13  O   UNK N   1      20.256  18.349   3.605  0.00  0.00    -0.333 OA
BRANCH  13  14
HETATM   14  C   UNK N   1      21.191  19.362   3.648  0.00  0.00     0.203 C 
BRANCH  14  15
HETATM   15  C   UNK N   1      20.658  20.651   3.070  0.00  0.00     0.193 C 
BRANCH  15  16
HETATM   16  O   UNK N   1      21.512  21.040   2.035  0.00  0.00    -0.394 OA
HETATM   17  C   UNK N   1      20.878  20.628   0.865  0.00  0.00     0.201 C 
ENDBRANCH  15  16
ENDBRANCH  14  15
ENDBRANCH  13  14
ENDBRANCH   5  13
TORSDOF 4
ENDMDL
MODEL 9
REMARK VINA RESULT:      -4.4      1.669      2.397
REMARK  4 active torsions:
REMARK  status: ('A' for Active; 'I' for Inactive)
REMARK       I    between atoms: N_1  and  C_2 
REMARK    1  A    between atoms: C_5  and  O_11 
REMARK    2  A    between atoms: O_11  and  C_12 
REMARK    3  A    between atoms: C_12  and  C_13 
REMARK    4  A    between atoms: C_13  and  O_14 
ROOT
HETATM    1  N   UNK N   1      23.829  10.771   7.688  0.00  0.00    -0.234 N 
HETATM    2  C   UNK N   1      23.051  11.491   8.618  0.00  0.00     0.678 A 
HETATM    3  N   UNK N   1      22.024  12.272   8.184  0.00  0.00    -0.171 N 
ATOM      4  HN  UNK N   1      21.822  12.331   7.186  1.00  0.00     0.186 HD
HETATM    5  C   UNK N   1      21.262  12.975   9.068  0.00  0.00     0.159 A 
HETATM    6  C   UNK N   1      21.545  12.887  10.437  0.00  0.00     0.081 A 
HETATM    7  C   UNK N   1      22.596  12.086  10.858  0.00  0.00     0.026 A 
HETATM    8  C   UNK N   1      22.911  11.981  12.305  0.00  0.00     0.069 C 
HETATM    9  N   UNK N   1      23.332  11.401   9.944  0.00  0.00    -0.196 N 
ATOM     10  HN  UNK N   1      24.105  10.813  10.258  1.00  0.00     0.184 HD
HETATM   11  H   UNK N   1      23.629  10.833   6.726  0.00  0.00     0.174 HD
HETATM   12  H   UNK N   1      24.572  10.206   8.001  0.00  0.00     0.174 HD
ENDROOT
BRANCH   5  13
HETATM   13  O   UNK N   1      20.242  13.747   8.616  0.00  0.00    -0.333 OA
BRANCH  13  14
HETATM   14  C   UNK N   1      20.484  14.864   7.843  0.00  0.00     0.203 C 
BRANCH  14  15
HETATM   15  C   UNK N   1      20.592  16.118   8.676  0.00  0.00     0.193 C 
BRANCH  15  16
HETATM   16  O   UNK N   1      19.296  16.564   8.945  0.00  0.00    -0.394 OA
HETATM   17  C   UNK N   1      19.404  17.948   9.060  0.00  0.00     0.201 C 
ENDBRANCH  15  16
ENDBRANCH  14  15
ENDBRANCH  13  14
ENDBRANCH   5  13
TORSDOF 4
ENDMDL
