REMARK  3 active torsions:
REMARK  status: ('A' for Active; 'I' for Inactive)
REMARK    1  A    between atoms: C_8  and  C_9 
REMARK    2  A    between atoms: C_12  and  N_18 
REMARK       I    between atoms: C_16  and  N_17 
REMARK    3  A    between atoms: N_20  and  C_22 
ROOT
HETATM    1  C   UNK N   1       1.367  -0.631  -0.000  0.00  0.00     0.090 A 
HETATM    2  N   UNK N   1       2.511  -1.385  -0.000  0.00  0.00    -0.189 N 
ATOM      3  HN  UNK N   1       3.407  -0.897  -0.000  1.00  0.00     0.184 HD
HETATM    4  C   UNK N   1       0.126  -1.358   0.000  0.00  0.00     0.092 A 
HETATM    5  C   UNK N   1       0.182  -2.764   0.000  0.00  0.00     0.139 A 
HETATM    6  N   UNK N   1       1.362  -3.423  -0.000  0.00  0.00    -0.200 N 
ATOM      7  HN  UNK N   1       1.374  -4.443  -0.000  1.00  0.00     0.183 HD
HETATM    8  C   UNK N   1       2.524  -2.739  -0.000  0.00  0.00     0.676 A 
HETATM    9  N   UNK N   1       3.750  -3.431  -0.000  0.00  0.00    -0.234 N 
HETATM   10  H   UNK N   1       3.759  -4.416  -0.000  0.00  0.00     0.174 HD
HETATM   11  H   UNK N   1       4.598  -2.931  -0.000  0.00  0.00     0.174 HD
ENDROOT
BRANCH   4  12
HETATM   12  N   UNK N   1      -1.152  -0.749   0.000  0.00  0.00    -0.297 N 
HETATM   13  N   UNK N   1      -2.198  -1.438   0.000  0.00  0.00    -0.300 N 
ATOM     14  HN  UNK N   1      -2.119  -2.455  -0.000  1.00  0.00     0.187 HD
ATOM     15  HN  UNK N   1      -1.222   0.268   0.001  1.00  0.00     0.187 HD
BRANCH  13  16
HETATM   16  C   UNK N   1      -3.492  -0.849   0.000  0.00  0.00     0.048 A 
HETATM   17  C   UNK N   1      -4.623  -1.673  -0.000  0.00  0.00     0.031 A 
HETATM   18  C   UNK N   1      -5.905  -1.110  -0.000  0.00  0.00     0.002 A 
HETATM   19  C   UNK N   1      -6.063   0.279   0.000  0.00  0.00     0.000 A 
HETATM   20  C   UNK N   1      -4.939   1.106   0.001  0.00  0.00     0.002 A 
HETATM   21  C   UNK N   1      -3.663   0.542   0.001  0.00  0.00     0.031 A 
ENDBRANCH  13  16
ENDBRANCH   4  12
BRANCH   1  22
HETATM   22  C   UNK N   1       1.612   0.885  -0.000  0.00  0.00     0.015 A 
HETATM   23  C   UNK N   1       2.985   1.235   0.001  0.00  0.00     0.017 A 
HETATM   24  C   UNK N   1       3.434   2.553   0.001  0.00  0.00     0.025 A 
HETATM   25  C   UNK N   1       2.518   3.590   0.000  0.00  0.00     0.035 A 
HETATM   26 Cl   UNK N   1       3.058   5.254   0.000  0.00  0.00    -0.084 Cl
HETATM   27  C   UNK N   1       1.164   3.305  -0.001  0.00  0.00     0.048 A 
HETATM   28  C   UNK N   1       0.686   1.991  -0.001  0.00  0.00     0.048 A 
HETATM   29 Cl   UNK N   1      -1.039   1.934  -0.003  0.00  0.00    -0.083 Cl
ENDBRANCH   1  22
TORSDOF 3
