MODEL 1
REMARK VINA RESULT:      -7.0      0.000      0.000
REMARK  3 active torsions:
REMARK  status: ('A' for Active; 'I' for Inactive)
REMARK    1  A    between atoms: C_8  and  C_9 
REMARK    2  A    between atoms: C_12  and  N_18 
REMARK       I    between atoms: C_16  and  N_17 
REMARK    3  A    between atoms: N_20  and  C_22 
ROOT
HETATM    1  C   UNK N   1      22.295  19.443   3.195  0.00  0.00     0.090 A 
HETATM    2  N   UNK N   1      22.046  20.073   2.004  0.00  0.00    -0.189 N 
ATOM      3  HN  UNK N   1      22.843  20.404   1.461  1.00  0.00     0.184 HD
HETATM    4  C   UNK N   1      21.143  18.993   3.930  0.00  0.00     0.092 A 
HETATM    5  C   UNK N   1      19.871  19.230   3.377  0.00  0.00     0.139 A 
HETATM    6  N   UNK N   1      19.723  19.862   2.192  0.00  0.00    -0.200 N 
ATOM      7  HN  UNK N   1      18.789  20.021   1.814  1.00  0.00     0.183 HD
HETATM    8  C   UNK N   1      20.805  20.283   1.505  0.00  0.00     0.676 A 
HETATM    9  N   UNK N   1      20.645  20.941   0.271  0.00  0.00    -0.234 N 
HETATM   10  H   UNK N   1      19.741  21.094  -0.092  0.00  0.00     0.174 HD
HETATM   11  H   UNK N   1      21.434  21.248  -0.230  0.00  0.00     0.174 HD
ENDROOT
BRANCH   4  12
HETATM   12  N   UNK N   1      21.206  18.324   5.176  0.00  0.00    -0.297 N 
HETATM   13  N   UNK N   1      20.755  17.163   5.312  0.00  0.00    -0.300 N 
ATOM     14  HN  UNK N   1      20.337  16.699   4.506  1.00  0.00     0.187 HD
ATOM     15  HN  UNK N   1      21.628  18.795   5.976  1.00  0.00     0.187 HD
BRANCH  13  16
HETATM   16  C   UNK N   1      20.808  16.472   6.553  0.00  0.00     0.048 A 
HETATM   17  C   UNK N   1      21.659  15.370   6.691  0.00  0.00     0.031 A 
HETATM   18  C   UNK N   1      21.724  14.677   7.907  0.00  0.00     0.002 A 
HETATM   19  C   UNK N   1      20.938  15.082   8.989  0.00  0.00     0.000 A 
HETATM   20  C   UNK N   1      20.088  16.181   8.858  0.00  0.00     0.002 A 
HETATM   21  C   UNK N   1      20.026  16.869   7.646  0.00  0.00     0.031 A 
ENDBRANCH  13  16
ENDBRANCH   4  12
BRANCH   1  22
HETATM   22  C   UNK N   1      23.785  19.325   3.546  0.00  0.00     0.015 A 
HETATM   23  C   UNK N   1      24.492  20.547   3.423  0.00  0.00     0.017 A 
HETATM   24  C   UNK N   1      25.853  20.668   3.692  0.00  0.00     0.025 A 
HETATM   25  C   UNK N   1      26.574  19.559   4.099  0.00  0.00     0.035 A 
HETATM   26 Cl   UNK N   1      28.285  19.686   4.441  0.00  0.00    -0.084 Cl
HETATM   27  C   UNK N   1      25.933  18.340   4.234  0.00  0.00     0.048 A 
HETATM   28  C   UNK N   1      24.568  18.190   3.972  0.00  0.00     0.048 A 
HETATM   29 Cl   UNK N   1      24.038  16.567   4.224  0.00  0.00    -0.083 Cl
ENDBRANCH   1  22
TORSDOF 3
ENDMDL
MODEL 2
REMARK VINA RESULT:      -7.0     12.288     14.181
REMARK  3 active torsions:
REMARK  status: ('A' for Active; 'I' for Inactive)
REMARK    1  A    between atoms: C_8  and  C_9 
REMARK    2  A    between atoms: C_12  and  N_18 
REMARK       I    between atoms: C_16  and  N_17 
REMARK    3  A    between atoms: N_20  and  C_22 
ROOT
HETATM    1  C   UNK N   1      27.043  23.558  -6.556  0.00  0.00     0.090 A 
HETATM    2  N   UNK N   1      26.509  22.431  -7.122  0.00  0.00    -0.189 N 
ATOM      3  HN  UNK N   1      26.848  21.525  -6.797  1.00  0.00     0.184 HD
HETATM    4  C   UNK N   1      26.537  24.814  -7.041  0.00  0.00     0.092 A 
HETATM    5  C   UNK N   1      25.550  24.788  -8.043  0.00  0.00     0.139 A 
HETATM    6  N   UNK N   1      25.082  23.622  -8.542  0.00  0.00    -0.200 N 
ATOM      7  HN  UNK N   1      24.366  23.632  -9.269  1.00  0.00     0.183 HD
HETATM    8  C   UNK N   1      25.558  22.446  -8.086  0.00  0.00     0.676 A 
HETATM    9  N   UNK N   1      25.067  21.235  -8.610  0.00  0.00    -0.234 N 
HETATM   10  H   UNK N   1      24.376  21.247  -9.311  0.00  0.00     0.174 HD
HETATM   11  H   UNK N   1      25.415  20.377  -8.276  0.00  0.00     0.174 HD
ENDROOT
BRANCH   4  12
HETATM   12  N   UNK N   1      26.970  26.079  -6.575  0.00  0.00    -0.297 N 
HETATM   13  N   UNK N   1      26.202  26.829  -5.930  0.00  0.00    -0.300 N 
ATOM     14  HN  UNK N   1      25.249  26.516  -5.742  1.00  0.00     0.187 HD
ATOM     15  HN  UNK N   1      27.924  26.384  -6.766  1.00  0.00     0.187 HD
BRANCH  13  16
HETATM   16  C   UNK N   1      26.613  28.103  -5.452  0.00  0.00     0.048 A 
HETATM   17  C   UNK N   1      27.605  28.810  -6.142  0.00  0.00     0.031 A 
HETATM   18  C   UNK N   1      28.023  30.066  -5.685  0.00  0.00     0.002 A 
HETATM   19  C   UNK N   1      27.452  30.622  -4.536  0.00  0.00     0.000 A 
HETATM   20  C   UNK N   1      26.462  29.922  -3.844  0.00  0.00     0.002 A 
HETATM   21  C   UNK N   1      26.048  28.671  -4.302  0.00  0.00     0.031 A 
ENDBRANCH  13  16
ENDBRANCH   4  12
BRANCH   1  22
HETATM   22  C   UNK N   1      28.107  23.282  -5.483  0.00  0.00     0.015 A 
HETATM   23  C   UNK N   1      29.149  22.432  -5.928  0.00  0.00     0.017 A 
HETATM   24  C   UNK N   1      30.217  22.051  -5.120  0.00  0.00     0.025 A 
HETATM   25  C   UNK N   1      30.288  22.508  -3.816  0.00  0.00     0.035 A 
HETATM   26 Cl   UNK N   1      31.620  22.042  -2.782  0.00  0.00    -0.084 Cl
HETATM   27  C   UNK N   1      29.296  23.341  -3.329  0.00  0.00     0.048 A 
HETATM   28  C   UNK N   1      28.213  23.739  -4.119  0.00  0.00     0.048 A 
HETATM   29 Cl   UNK N   1      27.134  24.774  -3.257  0.00  0.00    -0.083 Cl
ENDBRANCH   1  22
TORSDOF 3
ENDMDL
MODEL 3
REMARK VINA RESULT:      -6.9      3.102      6.117
REMARK  3 active torsions:
REMARK  status: ('A' for Active; 'I' for Inactive)
REMARK    1  A    between atoms: C_8  and  C_9 
REMARK    2  A    between atoms: C_12  and  N_18 
REMARK       I    between atoms: C_16  and  N_17 
REMARK    3  A    between atoms: N_20  and  C_22 
ROOT
HETATM    1  C   UNK N   1      23.138  18.493   4.774  0.00  0.00     0.090 A 
HETATM    2  N   UNK N   1      22.218  19.093   3.955  0.00  0.00    -0.189 N 
ATOM      3  HN  UNK N   1      21.241  18.813   4.046  1.00  0.00     0.184 HD
HETATM    4  C   UNK N   1      24.504  18.915   4.614  0.00  0.00     0.092 A 
HETATM    5  C   UNK N   1      24.784  19.895   3.644  0.00  0.00     0.139 A 
HETATM    6  N   UNK N   1      23.807  20.431   2.880  0.00  0.00    -0.200 N 
ATOM      7  HN  UNK N   1      24.038  21.141   2.184  1.00  0.00     0.183 HD
HETATM    8  C   UNK N   1      22.527  20.034   3.033  0.00  0.00     0.676 A 
HETATM    9  N   UNK N   1      21.514  20.596   2.234  0.00  0.00    -0.234 N 
HETATM   10  H   UNK N   1      21.739  21.281   1.562  0.00  0.00     0.174 HD
HETATM   11  H   UNK N   1      20.580  20.305   2.346  0.00  0.00     0.174 HD
ENDROOT
BRANCH   4  12
HETATM   12  N   UNK N   1      25.587  18.407   5.370  0.00  0.00    -0.297 N 
HETATM   13  N   UNK N   1      26.586  19.117   5.629  0.00  0.00    -0.300 N 
ATOM     14  HN  UNK N   1      26.611  20.077   5.285  1.00  0.00     0.187 HD
ATOM     15  HN  UNK N   1      25.553  17.447   5.711  1.00  0.00     0.187 HD
BRANCH  13  16
HETATM   16  C   UNK N   1      27.685  18.629   6.387  0.00  0.00     0.048 A 
HETATM   17  C   UNK N   1      27.939  19.164   7.654  0.00  0.00     0.031 A 
HETATM   18  C   UNK N   1      29.018  18.695   8.414  0.00  0.00     0.002 A 
HETATM   19  C   UNK N   1      29.848  17.689   7.911  0.00  0.00     0.000 A 
HETATM   20  C   UNK N   1      29.599  17.150   6.648  0.00  0.00     0.002 A 
HETATM   21  C   UNK N   1      28.523  17.620   5.893  0.00  0.00     0.031 A 
ENDBRANCH  13  16
ENDBRANCH   4  12
BRANCH   1  22
HETATM   22  C   UNK N   1      22.542  17.456   5.738  0.00  0.00     0.015 A 
HETATM   23  C   UNK N   1      21.398  17.922   6.432  0.00  0.00     0.017 A 
HETATM   24  C   UNK N   1      20.700  17.148   7.354  0.00  0.00     0.025 A 
HETATM   25  C   UNK N   1      21.121  15.858   7.625  0.00  0.00     0.035 A 
HETATM   26 Cl   UNK N   1      20.259  14.865   8.780  0.00  0.00    -0.084 Cl
HETATM   27  C   UNK N   1      22.232  15.351   6.976  0.00  0.00     0.048 A 
HETATM   28  C   UNK N   1      22.952  16.108   6.045  0.00  0.00     0.048 A 
HETATM   29 Cl   UNK N   1      24.286  15.227   5.394  0.00  0.00    -0.083 Cl
ENDBRANCH   1  22
TORSDOF 3
ENDMDL
MODEL 4
REMARK VINA RESULT:      -6.8     12.427     14.393
REMARK  3 active torsions:
REMARK  status: ('A' for Active; 'I' for Inactive)
REMARK    1  A    between atoms: C_8  and  C_9 
REMARK    2  A    between atoms: C_12  and  N_18 
REMARK       I    between atoms: C_16  and  N_17 
REMARK    3  A    between atoms: N_20  and  C_22 
ROOT
HETATM    1  C   UNK N   1      26.169  25.813  -7.605  0.00  0.00     0.090 A 
HETATM    2  N   UNK N   1      25.579  26.169  -8.789  0.00  0.00    -0.189 N 
ATOM      3  HN  UNK N   1      25.336  27.150  -8.928  1.00  0.00     0.184 HD
HETATM    4  C   UNK N   1      26.495  24.421  -7.450  0.00  0.00     0.092 A 
HETATM    5  C   UNK N   1      26.188  23.546  -8.509  0.00  0.00     0.139 A 
HETATM    6  N   UNK N   1      25.603  23.991  -9.644  0.00  0.00    -0.200 N 
ATOM      7  HN  UNK N   1      25.391  23.335 -10.396  1.00  0.00     0.183 HD
HETATM    8  C   UNK N   1      25.299  25.297  -9.786  0.00  0.00     0.676 A 
HETATM    9  N   UNK N   1      24.690  25.754 -10.971  0.00  0.00    -0.234 N 
HETATM   10  H   UNK N   1      24.486  25.119 -11.696  0.00  0.00     0.174 HD
HETATM   11  H   UNK N   1      24.468  26.707 -11.074  0.00  0.00     0.174 HD
ENDROOT
BRANCH   4  12
HETATM   12  N   UNK N   1      27.107  23.871  -6.298  0.00  0.00    -0.297 N 
HETATM   13  N   UNK N   1      28.353  23.789  -6.203  0.00  0.00    -0.300 N 
ATOM     14  HN  UNK N   1      28.930  24.125  -6.974  1.00  0.00     0.187 HD
ATOM     15  HN  UNK N   1      26.523  23.538  -5.532  1.00  0.00     0.187 HD
BRANCH  13  16
HETATM   16  C   UNK N   1      28.990  23.241  -5.056  0.00  0.00     0.048 A 
HETATM   17  C   UNK N   1      28.768  23.822  -3.802  0.00  0.00     0.031 A 
HETATM   18  C   UNK N   1      29.388  23.295  -2.662  0.00  0.00     0.002 A 
HETATM   19  C   UNK N   1      30.231  22.186  -2.769  0.00  0.00     0.000 A 
HETATM   20  C   UNK N   1      30.455  21.601  -4.016  0.00  0.00     0.002 A 
HETATM   21  C   UNK N   1      29.837  22.128  -5.150  0.00  0.00     0.031 A 
ENDBRANCH  13  16
ENDBRANCH   4  12
BRANCH   1  22
HETATM   22  C   UNK N   1      26.384  26.982  -6.632  0.00  0.00     0.015 A 
HETATM   23  C   UNK N   1      25.502  26.963  -5.523  0.00  0.00     0.017 A 
HETATM   24  C   UNK N   1      25.522  27.927  -4.519  0.00  0.00     0.025 A 
HETATM   25  C   UNK N   1      26.436  28.964  -4.581  0.00  0.00     0.035 A 
HETATM   26 Cl   UNK N   1      26.480  30.187  -3.332  0.00  0.00    -0.084 Cl
HETATM   27  C   UNK N   1      27.321  29.031  -5.643  0.00  0.00     0.048 A 
HETATM   28  C   UNK N   1      27.323  28.076  -6.665  0.00  0.00     0.048 A 
HETATM   29 Cl   UNK N   1      28.529  28.409  -7.853  0.00  0.00    -0.083 Cl
ENDBRANCH   1  22
TORSDOF 3
ENDMDL
MODEL 5
REMARK VINA RESULT:      -6.8     16.327     18.123
REMARK  3 active torsions:
REMARK  status: ('A' for Active; 'I' for Inactive)
REMARK    1  A    between atoms: C_8  and  C_9 
REMARK    2  A    between atoms: C_12  and  N_18 
REMARK       I    between atoms: C_16  and  N_17 
REMARK    3  A    between atoms: N_20  and  C_22 
ROOT
HETATM    1  C   UNK N   1      36.128  12.502  12.580  0.00  0.00     0.090 A 
HETATM    2  N   UNK N   1      36.128  13.148  11.372  0.00  0.00    -0.189 N 
ATOM      3  HN  UNK N   1      36.032  12.586  10.527  1.00  0.00     0.184 HD
HETATM    4  C   UNK N   1      36.266  13.332  13.747  0.00  0.00     0.092 A 
HETATM    5  C   UNK N   1      36.389  14.721  13.560  0.00  0.00     0.139 A 
HETATM    6  N   UNK N   1      36.379  15.271  12.325  0.00  0.00    -0.200 N 
ATOM      7  HN  UNK N   1      36.470  16.281  12.218  1.00  0.00     0.183 HD
HETATM    8  C   UNK N   1      36.249  14.490  11.233  0.00  0.00     0.676 A 
HETATM    9  N   UNK N   1      36.239  15.068   9.950  0.00  0.00    -0.234 N 
HETATM   10  H   UNK N   1      36.327  16.044   9.849  0.00  0.00     0.174 HD
HETATM   11  H   UNK N   1      36.145  14.498   9.153  0.00  0.00     0.174 HD
ENDROOT
BRANCH   4  12
HETATM   12  N   UNK N   1      36.287  12.840  15.074  0.00  0.00    -0.297 N 
HETATM   13  N   UNK N   1      35.333  13.052  15.858  0.00  0.00    -0.300 N 
ATOM     14  HN  UNK N   1      34.532  13.589  15.527  1.00  0.00     0.187 HD
ATOM     15  HN  UNK N   1      37.091  12.304  15.397  1.00  0.00     0.187 HD
BRANCH  13  16
HETATM   16  C   UNK N   1      35.331  12.569  17.195  0.00  0.00     0.048 A 
HETATM   17  C   UNK N   1      35.130  13.466  18.251  0.00  0.00     0.031 A 
HETATM   18  C   UNK N   1      35.125  13.007  19.574  0.00  0.00     0.002 A 
HETATM   19  C   UNK N   1      35.321  11.651  19.848  0.00  0.00     0.000 A 
HETATM   20  C   UNK N   1      35.521  10.751  18.800  0.00  0.00     0.002 A 
HETATM   21  C   UNK N   1      35.525  11.211  17.483  0.00  0.00     0.031 A 
ENDBRANCH  13  16
ENDBRANCH   4  12
BRANCH   1  22
HETATM   22  C   UNK N   1      35.977  10.977  12.478  0.00  0.00     0.015 A 
HETATM   23  C   UNK N   1      36.967  10.365  11.670  0.00  0.00     0.017 A 
HETATM   24  C   UNK N   1      37.020   8.992  11.441  0.00  0.00     0.025 A 
HETATM   25  C   UNK N   1      36.074   8.163  12.016  0.00  0.00     0.035 A 
HETATM   26 Cl   UNK N   1      36.119   6.436  11.742  0.00  0.00    -0.084 Cl
HETATM   27  C   UNK N   1      35.083   8.708  12.814  0.00  0.00     0.048 A 
HETATM   28  C   UNK N   1      35.007  10.083  13.061  0.00  0.00     0.048 A 
HETATM   29 Cl   UNK N   1      33.677  10.479  14.087  0.00  0.00    -0.083 Cl
ENDBRANCH   1  22
TORSDOF 3
ENDMDL
MODEL 6
REMARK VINA RESULT:      -6.7      8.633     11.192
REMARK  3 active torsions:
REMARK  status: ('A' for Active; 'I' for Inactive)
REMARK    1  A    between atoms: C_8  and  C_9 
REMARK    2  A    between atoms: C_12  and  N_18 
REMARK       I    between atoms: C_16  and  N_17 
REMARK    3  A    between atoms: N_20  and  C_22 
ROOT
HETATM    1  C   UNK N   1      30.330  17.099   7.278  0.00  0.00     0.090 A 
HETATM    2  N   UNK N   1      29.213  17.852   7.025  0.00  0.00    -0.189 N 
ATOM      3  HN  UNK N   1      28.813  17.817   6.087  1.00  0.00     0.184 HD
HETATM    4  C   UNK N   1      30.861  17.176   8.612  0.00  0.00     0.092 A 
HETATM    5  C   UNK N   1      30.203  18.005   9.540  0.00  0.00     0.139 A 
HETATM    6  N   UNK N   1      29.104  18.713   9.198  0.00  0.00    -0.200 N 
ATOM      7  HN  UNK N   1      28.646  19.306   9.890  1.00  0.00     0.183 HD
HETATM    8  C   UNK N   1      28.608  18.639   7.946  0.00  0.00     0.676 A 
HETATM    9  N   UNK N   1      27.462  19.378   7.596  0.00  0.00    -0.234 N 
HETATM   10  H   UNK N   1      27.022  19.950   8.267  0.00  0.00     0.174 HD
HETATM   11  H   UNK N   1      27.101  19.323   6.682  0.00  0.00     0.174 HD
ENDROOT
BRANCH   4  12
HETATM   12  N   UNK N   1      32.006  16.471   9.054  0.00  0.00    -0.297 N 
HETATM   13  N   UNK N   1      33.150  16.973   8.968  0.00  0.00    -0.300 N 
ATOM     14  HN  UNK N   1      33.250  17.908   8.572  1.00  0.00     0.187 HD
ATOM     15  HN  UNK N   1      31.897  15.537   9.450  1.00  0.00     0.187 HD
BRANCH  13  16
HETATM   16  C   UNK N   1      34.314  16.284   9.406  0.00  0.00     0.048 A 
HETATM   17  C   UNK N   1      34.793  15.201   8.660  0.00  0.00     0.031 A 
HETATM   18  C   UNK N   1      35.938  14.511   9.075  0.00  0.00     0.002 A 
HETATM   19  C   UNK N   1      36.610  14.899  10.238  0.00  0.00     0.000 A 
HETATM   20  C   UNK N   1      36.137  15.978  10.986  0.00  0.00     0.002 A 
HETATM   21  C   UNK N   1      34.996  16.664  10.569  0.00  0.00     0.031 A 
ENDBRANCH  13  16
ENDBRANCH   4  12
BRANCH   1  22
HETATM   22  C   UNK N   1      30.829  16.290   6.072  0.00  0.00     0.015 A 
HETATM   23  C   UNK N   1      29.940  15.261   5.675  0.00  0.00     0.017 A 
HETATM   24  C   UNK N   1      30.194  14.407   4.605  0.00  0.00     0.025 A 
HETATM   25  C   UNK N   1      31.362  14.546   3.878  0.00  0.00     0.035 A 
HETATM   26 Cl   UNK N   1      31.704  13.485   2.530  0.00  0.00    -0.084 Cl
HETATM   27  C   UNK N   1      32.267  15.535   4.223  0.00  0.00     0.048 A 
HETATM   28  C   UNK N   1      32.037  16.406   5.292  0.00  0.00     0.048 A 
HETATM   29 Cl   UNK N   1      33.328  17.534   5.492  0.00  0.00    -0.083 Cl
ENDBRANCH   1  22
TORSDOF 3
ENDMDL
MODEL 7
REMARK VINA RESULT:      -6.6     11.629     13.582
REMARK  3 active torsions:
REMARK  status: ('A' for Active; 'I' for Inactive)
REMARK    1  A    between atoms: C_8  and  C_9 
REMARK    2  A    between atoms: C_12  and  N_18 
REMARK       I    between atoms: C_16  and  N_17 
REMARK    3  A    between atoms: N_20  and  C_22 
ROOT
HETATM    1  C   UNK N   1      26.867  26.214  -4.403  0.00  0.00     0.090 A 
HETATM    2  N   UNK N   1      26.906  27.435  -3.783  0.00  0.00    -0.189 N 
ATOM      3  HN  UNK N   1      27.690  27.632  -3.161  1.00  0.00     0.184 HD
HETATM    4  C   UNK N   1      25.746  25.978  -5.273  0.00  0.00     0.092 A 
HETATM    5  C   UNK N   1      24.792  27.002  -5.417  0.00  0.00     0.139 A 
HETATM    6  N   UNK N   1      24.915  28.178  -4.762  0.00  0.00    -0.200 N 
ATOM      7  HN  UNK N   1      24.209  28.904  -4.885  1.00  0.00     0.183 HD
HETATM    8  C   UNK N   1      25.967  28.397  -3.948  0.00  0.00     0.676 A 
HETATM    9  N   UNK N   1      26.090  29.624  -3.269  0.00  0.00    -0.234 N 
HETATM   10  H   UNK N   1      25.407  30.324  -3.389  0.00  0.00     0.174 HD
HETATM   11  H   UNK N   1      26.859  29.783  -2.674  0.00  0.00     0.174 HD
ENDROOT
BRANCH   4  12
HETATM   12  N   UNK N   1      25.539  24.778  -5.995  0.00  0.00    -0.297 N 
HETATM   13  N   UNK N   1      26.182  24.532  -7.041  0.00  0.00    -0.300 N 
ATOM     14  HN  UNK N   1      26.865  25.214  -7.372  1.00  0.00     0.187 HD
ATOM     15  HN  UNK N   1      24.855  24.101  -5.657  1.00  0.00     0.187 HD
BRANCH  13  16
HETATM   16  C   UNK N   1      25.992  23.334  -7.783  0.00  0.00     0.048 A 
HETATM   17  C   UNK N   1      26.346  23.300  -9.136  0.00  0.00     0.031 A 
HETATM   18  C   UNK N   1      26.165  22.128  -9.882  0.00  0.00     0.002 A 
HETATM   19  C   UNK N   1      25.630  20.986  -9.279  0.00  0.00     0.000 A 
HETATM   20  C   UNK N   1      25.276  21.015  -7.930  0.00  0.00     0.002 A 
HETATM   21  C   UNK N   1      25.457  22.183  -7.189  0.00  0.00     0.031 A 
ENDBRANCH  13  16
ENDBRANCH   4  12
BRANCH   1  22
HETATM   22  C   UNK N   1      28.046  25.294  -4.057  0.00  0.00     0.015 A 
HETATM   23  C   UNK N   1      27.700  24.240  -3.175  0.00  0.00     0.017 A 
HETATM   24  C   UNK N   1      28.615  23.289  -2.730  0.00  0.00     0.025 A 
HETATM   25  C   UNK N   1      29.931  23.352  -3.153  0.00  0.00     0.035 A 
HETATM   26 Cl   UNK N   1      31.098  22.168  -2.608  0.00  0.00    -0.084 Cl
HETATM   27  C   UNK N   1      30.323  24.361  -4.015  0.00  0.00     0.048 A 
HETATM   28  C   UNK N   1      29.426  25.328  -4.477  0.00  0.00     0.048 A 
HETATM   29 Cl   UNK N   1      30.187  26.459  -5.536  0.00  0.00    -0.083 Cl
ENDBRANCH   1  22
TORSDOF 3
ENDMDL
MODEL 8
REMARK VINA RESULT:      -6.6     10.273     12.843
REMARK  3 active torsions:
REMARK  status: ('A' for Active; 'I' for Inactive)
REMARK    1  A    between atoms: C_8  and  C_9 
REMARK    2  A    between atoms: C_12  and  N_18 
REMARK       I    between atoms: C_16  and  N_17 
REMARK    3  A    between atoms: N_20  and  C_22 
ROOT
HETATM    1  C   UNK N   1      34.927  15.397   8.418  0.00  0.00     0.090 A 
HETATM    2  N   UNK N   1      36.066  14.799   8.889  0.00  0.00    -0.189 N 
ATOM      3  HN  UNK N   1      36.553  14.145   8.276  1.00  0.00     0.184 HD
HETATM    4  C   UNK N   1      34.271  16.312   9.314  0.00  0.00     0.092 A 
HETATM    5  C   UNK N   1      34.841  16.518  10.584  0.00  0.00     0.139 A 
HETATM    6  N   UNK N   1      35.971  15.880  10.962  0.00  0.00    -0.200 N 
ATOM      7  HN  UNK N   1      36.363  16.048  11.889  1.00  0.00     0.183 HD
HETATM    8  C   UNK N   1      36.584  15.024  10.120  0.00  0.00     0.676 A 
HETATM    9  N   UNK N   1      37.761  14.363  10.519  0.00  0.00    -0.234 N 
HETATM   10  H   UNK N   1      38.137  14.526  11.415  0.00  0.00     0.174 HD
HETATM   11  H   UNK N   1      38.208  13.737   9.904  0.00  0.00     0.174 HD
ENDROOT
BRANCH   4  12
HETATM   12  N   UNK N   1      33.086  17.020   9.000  0.00  0.00    -0.297 N 
HETATM   13  N   UNK N   1      31.973  16.446   8.984  0.00  0.00    -0.300 N 
ATOM     14  HN  UNK N   1      31.928  15.450   9.202  1.00  0.00     0.187 HD
ATOM     15  HN  UNK N   1      33.140  18.015   8.784  1.00  0.00     0.187 HD
BRANCH  13  16
HETATM   16  C   UNK N   1      30.770  17.136   8.671  0.00  0.00     0.048 A 
HETATM   17  C   UNK N   1      30.349  17.217   7.339  0.00  0.00     0.031 A 
HETATM   18  C   UNK N   1      29.167  17.893   7.014  0.00  0.00     0.002 A 
HETATM   19  C   UNK N   1      28.400  18.491   8.018  0.00  0.00     0.000 A 
HETATM   20  C   UNK N   1      28.814  18.413   9.348  0.00  0.00     0.002 A 
HETATM   21  C   UNK N   1      29.992  17.739   9.669  0.00  0.00     0.031 A 
ENDBRANCH  13  16
ENDBRANCH   4  12
BRANCH   1  22
HETATM   22  C   UNK N   1      34.541  14.981   6.991  0.00  0.00     0.015 A 
HETATM   23  C   UNK N   1      34.680  13.591   6.751  0.00  0.00     0.017 A 
HETATM   24  C   UNK N   1      34.385  12.998   5.527  0.00  0.00     0.025 A 
HETATM   25  C   UNK N   1      33.934  13.777   4.477  0.00  0.00     0.035 A 
HETATM   26 Cl   UNK N   1      33.557  13.054   2.929  0.00  0.00    -0.084 Cl
HETATM   27  C   UNK N   1      33.780  15.141   4.656  0.00  0.00     0.048 A 
HETATM   28  C   UNK N   1      34.069  15.763   5.874  0.00  0.00     0.048 A 
HETATM   29 Cl   UNK N   1      33.786  17.464   5.811  0.00  0.00    -0.083 Cl
ENDBRANCH   1  22
TORSDOF 3
ENDMDL
MODEL 9
REMARK VINA RESULT:      -6.4     12.597     14.390
REMARK  3 active torsions:
REMARK  status: ('A' for Active; 'I' for Inactive)
REMARK    1  A    between atoms: C_8  and  C_9 
REMARK    2  A    between atoms: C_12  and  N_18 
REMARK       I    between atoms: C_16  and  N_17 
REMARK    3  A    between atoms: N_20  and  C_22 
ROOT
HETATM    1  C   UNK N   1      27.432  27.636  -4.744  0.00  0.00     0.090 A 
HETATM    2  N   UNK N   1      26.630  28.725  -4.524  0.00  0.00    -0.189 N 
ATOM      3  HN  UNK N   1      25.734  28.767  -5.009  1.00  0.00     0.184 HD
HETATM    4  C   UNK N   1      28.686  27.616  -4.040  0.00  0.00     0.092 A 
HETATM    5  C   UNK N   1      28.988  28.699  -3.194  0.00  0.00     0.139 A 
HETATM    6  N   UNK N   1      28.131  29.733  -3.039  0.00  0.00    -0.200 N 
ATOM      7  HN  UNK N   1      28.375  30.506  -2.419  1.00  0.00     0.183 HD
HETATM    8  C   UNK N   1      26.956  29.749  -3.700  0.00  0.00     0.676 A 
HETATM    9  N   UNK N   1      26.068  30.829  -3.534  0.00  0.00    -0.234 N 
HETATM   10  H   UNK N   1      26.306  31.574  -2.935  0.00  0.00     0.174 HD
HETATM   11  H   UNK N   1      25.210  30.840  -4.017  0.00  0.00     0.174 HD
ENDROOT
BRANCH   4  12
HETATM   12  N   UNK N   1      29.640  26.575  -4.144  0.00  0.00    -0.297 N 
HETATM   13  N   UNK N   1      29.510  25.511  -3.496  0.00  0.00    -0.300 N 
ATOM     14  HN  UNK N   1      28.701  25.401  -2.884  1.00  0.00     0.187 HD
ATOM     15  HN  UNK N   1      30.445  26.693  -4.758  1.00  0.00     0.187 HD
BRANCH  13  16
HETATM   16  C   UNK N   1      30.455  24.452  -3.584  0.00  0.00     0.048 A 
HETATM   17  C   UNK N   1      31.495  24.534  -4.516  0.00  0.00     0.031 A 
HETATM   18  C   UNK N   1      32.434  23.500  -4.616  0.00  0.00     0.002 A 
HETATM   19  C   UNK N   1      32.338  22.380  -3.786  0.00  0.00     0.000 A 
HETATM   20  C   UNK N   1      31.303  22.293  -2.854  0.00  0.00     0.002 A 
HETATM   21  C   UNK N   1      30.369  23.325  -2.756  0.00  0.00     0.031 A 
ENDBRANCH  13  16
ENDBRANCH   4  12
BRANCH   1  22
HETATM   22  C   UNK N   1      26.843  26.608  -5.721  0.00  0.00     0.015 A 
HETATM   23  C   UNK N   1      26.775  27.073  -7.057  0.00  0.00     0.017 A 
HETATM   24  C   UNK N   1      26.275  26.305  -8.106  0.00  0.00     0.025 A 
HETATM   25  C   UNK N   1      25.816  25.023  -7.859  0.00  0.00     0.035 A 
HETATM   26 Cl   UNK N   1      25.183  24.039  -9.160  0.00  0.00    -0.084 Cl
HETATM   27  C   UNK N   1      25.859  24.518  -6.571  0.00  0.00     0.048 A 
HETATM   28  C   UNK N   1      26.356  25.268  -5.501  0.00  0.00     0.048 A 
HETATM   29 Cl   UNK N   1      26.289  24.391  -4.016  0.00  0.00    -0.083 Cl
ENDBRANCH   1  22
TORSDOF 3
ENDMDL
