MODEL 1
REMARK VINA RESULT:      -7.2      0.000      0.000
REMARK  6 active torsions:
REMARK  status: ('A' for Active; 'I' for Inactive)
REMARK    1  A    between atoms: C_4  and  N_5 
REMARK    2  A    between atoms: C_10  and  C_11 
REMARK       I    between atoms: C_11  and  N_12 
REMARK    3  A    between atoms: C_14  and  N_15 
REMARK    4  A    between atoms: C_17  and  C_18 
REMARK    5  A    between atoms: C_23  and  O_24 
REMARK    6  A    between atoms: O_24  and  C_25 
ROOT
HETATM    1  N   UNK N   1      35.889  15.189   5.777  0.00  0.00    -0.191 NA
HETATM    2  C   UNK N   1      34.798  15.563   5.881  0.00  0.00     0.104 C 
HETATM    3  C   UNK N   1      33.434  16.034   5.988  0.00  0.00     0.100 A 
HETATM    4  C   UNK N   1      32.738  16.291   4.781  0.00  0.00     0.121 A 
HETATM    5  N   UNK N   1      31.477  16.781   4.800  0.00  0.00    -0.335 N 
ATOM      6  HN  UNK N   1      30.992  16.976   3.924  1.00  0.00     0.168 HD
HETATM    7  C   UNK N   1      30.862  17.010   5.976  0.00  0.00     0.090 A 
HETATM    8  S   UNK N   1      29.326  17.575   6.175  0.00  0.00    -0.064 SA
HETATM    9  C   UNK N   1      29.258  17.541   7.829  0.00  0.00     0.101 A 
HETATM   10  C   UNK N   1      30.497  17.057   8.290  0.00  0.00     0.062 A 
HETATM   11  C   UNK N   1      31.448  16.774   7.225  0.00  0.00     0.038 A 
HETATM   12  C   UNK N   1      32.802  16.286   7.261  0.00  0.00     0.014 A 
ENDROOT
BRANCH   4  13
HETATM   13  N   UNK N   1      33.360  16.061   3.533  0.00  0.00    -0.384 N 
HETATM   14  H   UNK N   1      32.869  15.600   2.814  0.00  0.00     0.157 HD
HETATM   15  H   UNK N   1      34.285  16.361   3.382  0.00  0.00     0.157 HD
ENDBRANCH   4  13
BRANCH  12  16
HETATM   16  C   UNK N   1      33.564  16.069   8.552  0.00  0.00    -0.023 A 
HETATM   17  C   UNK N   1      33.480  14.850   9.233  0.00  0.00     0.015 A 
HETATM   18  C   UNK N   1      34.192  14.615  10.409  0.00  0.00     0.037 A 
HETATM   19  C   UNK N   1      35.004  15.609  10.948  0.00  0.00     0.068 A 
HETATM   20  C   UNK N   1      35.064  16.860  10.311  0.00  0.00     0.037 A 
HETATM   21  C   UNK N   1      34.345  17.087   9.131  0.00  0.00     0.015 A 
BRANCH  19  22
HETATM   22  O   UNK N   1      35.722  15.332  12.064  0.00  0.00    -0.352 OA
BRANCH  22  23
HETATM   23  C   UNK N   1      35.745  14.096  12.672  0.00  0.00     0.171 C 
HETATM   24  C   UNK N   1      36.363  14.201  14.052  0.00  0.00     0.034 C 
ENDBRANCH  22  23
ENDBRANCH  19  22
ENDBRANCH  12  16
BRANCH  10  25
HETATM   25  N   UNK N   1      30.712  16.837   9.663  0.00  0.00    -0.397 N 
HETATM   26  H   UNK N   1      30.787  15.920  10.013  0.00  0.00     0.156 HD
HETATM   27  H   UNK N   1      30.787  17.604  10.275  0.00  0.00     0.156 HD
ENDBRANCH  10  25
BRANCH   9  28
HETATM   28  C   UNK N   1      28.092  17.935   8.650  0.00  0.00     0.258 C 
HETATM   29  N   UNK N   1      27.473  19.110   8.424  0.00  0.00    -0.365 N 
HETATM   30  H   UNK N   1      26.727  19.393   9.001  0.00  0.00     0.159 HD
HETATM   31  H   UNK N   1      27.768  19.686   7.683  0.00  0.00     0.159 HD
HETATM   32  O   UNK N   1      27.694  17.209   9.547  0.00  0.00    -0.267 OA
ENDBRANCH   9  28
TORSDOF 6
ENDMDL
MODEL 2
REMARK VINA RESULT:      -6.6     13.990     17.158
REMARK  6 active torsions:
REMARK  status: ('A' for Active; 'I' for Inactive)
REMARK    1  A    between atoms: C_4  and  N_5 
REMARK    2  A    between atoms: C_10  and  C_11 
REMARK       I    between atoms: C_11  and  N_12 
REMARK    3  A    between atoms: C_14  and  N_15 
REMARK    4  A    between atoms: C_17  and  C_18 
REMARK    5  A    between atoms: C_23  and  O_24 
REMARK    6  A    between atoms: O_24  and  C_25 
ROOT
HETATM    1  N   UNK N   1      30.551  23.115  -1.775  0.00  0.00    -0.191 NA
HETATM    2  C   UNK N   1      30.242  22.763  -2.835  0.00  0.00     0.104 C 
HETATM    3  C   UNK N   1      29.872  22.308  -4.158  0.00  0.00     0.100 A 
HETATM    4  C   UNK N   1      30.504  21.136  -4.643  0.00  0.00     0.121 A 
HETATM    5  N   UNK N   1      30.248  20.677  -5.889  0.00  0.00    -0.335 N 
ATOM      6  HN  UNK N   1      30.721  19.840  -6.232  1.00  0.00     0.168 HD
HETATM    7  C   UNK N   1      29.369  21.323  -6.676  0.00  0.00     0.090 A 
HETATM    8  S   UNK N   1      28.924  20.883  -8.202  0.00  0.00    -0.064 SA
HETATM    9  C   UNK N   1      27.810  22.074  -8.493  0.00  0.00     0.101 A 
HETATM   10  C   UNK N   1      27.753  22.884  -7.343  0.00  0.00     0.062 A 
HETATM   11  C   UNK N   1      28.675  22.477  -6.293  0.00  0.00     0.038 A 
HETATM   12  C   UNK N   1      28.937  23.028  -4.989  0.00  0.00     0.014 A 
ENDROOT
BRANCH   4  13
HETATM   13  N   UNK N   1      31.432  20.438  -3.837  0.00  0.00    -0.384 N 
HETATM   14  H   UNK N   1      31.191  20.179  -2.918  0.00  0.00     0.157 HD
HETATM   15  H   UNK N   1      32.321  20.211  -4.194  0.00  0.00     0.157 HD
ENDBRANCH   4  13
BRANCH  12  16
HETATM   16  C   UNK N   1      28.306  24.313  -4.496  0.00  0.00    -0.023 A 
HETATM   17  C   UNK N   1      27.079  24.294  -3.823  0.00  0.00     0.015 A 
HETATM   18  C   UNK N   1      26.489  25.459  -3.336  0.00  0.00     0.037 A 
HETATM   19  C   UNK N   1      27.110  26.691  -3.526  0.00  0.00     0.068 A 
HETATM   20  C   UNK N   1      28.316  26.744  -4.244  0.00  0.00     0.037 A 
HETATM   21  C   UNK N   1      28.900  25.567  -4.730  0.00  0.00     0.015 A 
BRANCH  19  22
HETATM   22  O   UNK N   1      26.536  27.799  -2.997  0.00  0.00    -0.352 OA
BRANCH  22  23
HETATM   23  C   UNK N   1      25.931  28.781  -3.750  0.00  0.00     0.171 C 
HETATM   24  C   UNK N   1      26.648  30.104  -3.564  0.00  0.00     0.034 C 
ENDBRANCH  22  23
ENDBRANCH  19  22
ENDBRANCH  12  16
BRANCH  10  25
HETATM   25  N   UNK N   1      26.827  23.940  -7.259  0.00  0.00    -0.397 N 
HETATM   26  H   UNK N   1      26.646  24.375  -6.395  0.00  0.00     0.156 HD
HETATM   27  H   UNK N   1      26.358  24.245  -8.070  0.00  0.00     0.156 HD
ENDBRANCH  10  25
BRANCH   9  28
HETATM   28  C   UNK N   1      27.022  22.229  -9.735  0.00  0.00     0.258 C 
HETATM   29  N   UNK N   1      27.644  22.280 -10.928  0.00  0.00    -0.365 N 
HETATM   30  H   UNK N   1      27.122  22.429 -11.750  0.00  0.00     0.159 HD
HETATM   31  H   UNK N   1      28.620  22.167 -10.979  0.00  0.00     0.159 HD
HETATM   32  O   UNK N   1      25.806  22.329  -9.686  0.00  0.00    -0.267 OA
ENDBRANCH   9  28
TORSDOF 6
ENDMDL
MODEL 3
REMARK VINA RESULT:      -6.6      2.648      4.881
REMARK  6 active torsions:
REMARK  status: ('A' for Active; 'I' for Inactive)
REMARK    1  A    between atoms: C_4  and  N_5 
REMARK    2  A    between atoms: C_10  and  C_11 
REMARK       I    between atoms: C_11  and  N_12 
REMARK    3  A    between atoms: C_14  and  N_15 
REMARK    4  A    between atoms: C_17  and  C_18 
REMARK    5  A    between atoms: C_23  and  O_24 
REMARK    6  A    between atoms: O_24  and  C_25 
ROOT
HETATM    1  N   UNK N   1      29.724  18.723   9.782  0.00  0.00    -0.191 NA
HETATM    2  C   UNK N   1      29.808  18.180   8.762  0.00  0.00     0.104 C 
HETATM    3  C   UNK N   1      29.889  17.503   7.486  0.00  0.00     0.100 A 
HETATM    4  C   UNK N   1      28.705  17.431   6.711  0.00  0.00     0.121 A 
HETATM    5  N   UNK N   1      28.690  16.771   5.531  0.00  0.00    -0.335 N 
ATOM      6  HN  UNK N   1      27.827  16.714   4.989  1.00  0.00     0.168 HD
HETATM    7  C   UNK N   1      29.814  16.190   5.070  0.00  0.00     0.090 A 
HETATM    8  S   UNK N   1      29.974  15.376   3.645  0.00  0.00    -0.064 SA
HETATM    9  C   UNK N   1      31.588  15.018   3.739  0.00  0.00     0.101 A 
HETATM   10  C   UNK N   1      32.067  15.559   4.947  0.00  0.00     0.062 A 
HETATM   11  C   UNK N   1      31.041  16.215   5.743  0.00  0.00     0.038 A 
HETATM   12  C   UNK N   1      31.103  16.874   7.022  0.00  0.00     0.014 A 
ENDROOT
BRANCH   4  13
HETATM   13  N   UNK N   1      27.512  18.031   7.171  0.00  0.00    -0.384 N 
HETATM   14  H   UNK N   1      26.811  18.291   6.530  0.00  0.00     0.157 HD
HETATM   15  H   UNK N   1      27.379  18.189   8.134  0.00  0.00     0.157 HD
ENDBRANCH   4  13
BRANCH  12  16
HETATM   16  C   UNK N   1      32.353  16.898   7.876  0.00  0.00    -0.023 A 
HETATM   17  C   UNK N   1      32.604  15.881   8.804  0.00  0.00     0.015 A 
HETATM   18  C   UNK N   1      33.760  15.865   9.583  0.00  0.00     0.037 A 
HETATM   19  C   UNK N   1      34.699  16.885   9.464  0.00  0.00     0.068 A 
HETATM   20  C   UNK N   1      34.447  17.945   8.577  0.00  0.00     0.037 A 
HETATM   21  C   UNK N   1      33.282  17.952   7.799  0.00  0.00     0.015 A 
BRANCH  19  22
HETATM   22  O   UNK N   1      35.836  16.815  10.199  0.00  0.00    -0.352 OA
BRANCH  22  23
HETATM   23  C   UNK N   1      36.161  15.747  11.006  0.00  0.00     0.171 C 
HETATM   24  C   UNK N   1      37.061  14.780  10.264  0.00  0.00     0.034 C 
ENDBRANCH  22  23
ENDBRANCH  19  22
ENDBRANCH  12  16
BRANCH  10  25
HETATM   25  N   UNK N   1      33.435  15.486   5.269  0.00  0.00    -0.397 N 
HETATM   26  H   UNK N   1      33.897  16.265   5.654  0.00  0.00     0.156 HD
HETATM   27  H   UNK N   1      33.932  14.651   5.107  0.00  0.00     0.156 HD
ENDBRANCH  10  25
BRANCH   9  28
HETATM   28  C   UNK N   1      32.365  14.279   2.721  0.00  0.00     0.258 C 
HETATM   29  N   UNK N   1      31.925  13.090   2.266  0.00  0.00    -0.365 N 
HETATM   30  H   UNK N   1      32.466  12.577   1.622  0.00  0.00     0.159 HD
HETATM   31  H   UNK N   1      31.061  12.734   2.577  0.00  0.00     0.159 HD
HETATM   32  O   UNK N   1      33.417  14.731   2.298  0.00  0.00    -0.267 OA
ENDBRANCH   9  28
TORSDOF 6
ENDMDL
MODEL 4
REMARK VINA RESULT:      -6.5     13.552     16.926
REMARK  6 active torsions:
REMARK  status: ('A' for Active; 'I' for Inactive)
REMARK    1  A    between atoms: C_4  and  N_5 
REMARK    2  A    between atoms: C_10  and  C_11 
REMARK       I    between atoms: C_11  and  N_12 
REMARK    3  A    between atoms: C_14  and  N_15 
REMARK    4  A    between atoms: C_17  and  C_18 
REMARK    5  A    between atoms: C_23  and  O_24 
REMARK    6  A    between atoms: O_24  and  C_25 
ROOT
HETATM    1  N   UNK N   1      25.410  24.042  -7.867  0.00  0.00    -0.191 NA
HETATM    2  C   UNK N   1      26.358  23.506  -7.471  0.00  0.00     0.104 C 
HETATM    3  C   UNK N   1      27.537  22.818  -6.990  0.00  0.00     0.100 A 
HETATM    4  C   UNK N   1      27.944  21.657  -7.693  0.00  0.00     0.121 A 
HETATM    5  N   UNK N   1      29.006  20.932  -7.274  0.00  0.00    -0.335 N 
ATOM      6  HN  UNK N   1      29.281  20.089  -7.780  1.00  0.00     0.168 HD
HETATM    7  C   UNK N   1      29.703  21.323  -6.191  0.00  0.00     0.090 A 
HETATM    8  S   UNK N   1      31.032  20.574  -5.567  0.00  0.00    -0.064 SA
HETATM    9  C   UNK N   1      31.355  21.623  -4.328  0.00  0.00     0.101 A 
HETATM   10  C   UNK N   1      30.384  22.640  -4.376  0.00  0.00     0.062 A 
HETATM   11  C   UNK N   1      29.400  22.461  -5.435  0.00  0.00     0.038 A 
HETATM   12  C   UNK N   1      28.257  23.248  -5.816  0.00  0.00     0.014 A 
ENDROOT
BRANCH   4  13
HETATM   13  N   UNK N   1      27.230  21.223  -8.833  0.00  0.00    -0.384 N 
HETATM   14  H   UNK N   1      27.697  21.108  -9.693  0.00  0.00     0.157 HD
HETATM   15  H   UNK N   1      26.266  21.036  -8.769  0.00  0.00     0.157 HD
ENDBRANCH   4  13
BRANCH  12  16
HETATM   16  C   UNK N   1      27.788  24.454  -5.029  0.00  0.00    -0.023 A 
HETATM   17  C   UNK N   1      28.231  25.739  -5.360  0.00  0.00     0.015 A 
HETATM   18  C   UNK N   1      27.794  26.869  -4.669  0.00  0.00     0.037 A 
HETATM   19  C   UNK N   1      26.906  26.739  -3.605  0.00  0.00     0.068 A 
HETATM   20  C   UNK N   1      26.486  25.455  -3.219  0.00  0.00     0.037 A 
HETATM   21  C   UNK N   1      26.931  24.327  -3.919  0.00  0.00     0.015 A 
BRANCH  19  22
HETATM   22  O   UNK N   1      26.461  27.860  -2.986  0.00  0.00    -0.352 OA
BRANCH  22  23
HETATM   23  C   UNK N   1      27.180  29.033  -2.918  0.00  0.00     0.171 C 
HETATM   24  C   UNK N   1      26.433  30.149  -3.622  0.00  0.00     0.034 C 
ENDBRANCH  22  23
ENDBRANCH  19  22
ENDBRANCH  12  16
BRANCH  10  25
HETATM   25  N   UNK N   1      30.447  23.731  -3.490  0.00  0.00    -0.397 N 
HETATM   26  H   UNK N   1      30.485  24.652  -3.837  0.00  0.00     0.156 HD
HETATM   27  H   UNK N   1      30.454  23.573  -2.519  0.00  0.00     0.156 HD
ENDBRANCH  10  25
BRANCH   9  28
HETATM   28  C   UNK N   1      32.474  21.502  -3.368  0.00  0.00     0.258 C 
HETATM   29  N   UNK N   1      33.710  21.193  -3.806  0.00  0.00    -0.365 N 
HETATM   30  H   UNK N   1      34.444  21.067  -3.162  0.00  0.00     0.159 HD
HETATM   31  H   UNK N   1      33.879  21.094  -4.771  0.00  0.00     0.159 HD
HETATM   32  O   UNK N   1      32.284  21.663  -2.173  0.00  0.00    -0.267 OA
ENDBRANCH   9  28
TORSDOF 6
ENDMDL
MODEL 5
REMARK VINA RESULT:      -6.2      3.181      6.989
REMARK  6 active torsions:
REMARK  status: ('A' for Active; 'I' for Inactive)
REMARK    1  A    between atoms: C_4  and  N_5 
REMARK    2  A    between atoms: C_10  and  C_11 
REMARK       I    between atoms: C_11  and  N_12 
REMARK    3  A    between atoms: C_14  and  N_15 
REMARK    4  A    between atoms: C_17  and  C_18 
REMARK    5  A    between atoms: C_23  and  O_24 
REMARK    6  A    between atoms: O_24  and  C_25 
ROOT
HETATM    1  N   UNK N   1      28.556  13.862   3.998  0.00  0.00    -0.191 NA
HETATM    2  C   UNK N   1      29.484  14.057   4.664  0.00  0.00     0.104 C 
HETATM    3  C   UNK N   1      30.648  14.280   5.495  0.00  0.00     0.100 A 
HETATM    4  C   UNK N   1      31.554  13.202   5.646  0.00  0.00     0.121 A 
HETATM    5  N   UNK N   1      32.639  13.317   6.447  0.00  0.00    -0.335 N 
ATOM      6  HN  UNK N   1      33.276  12.528   6.559  1.00  0.00     0.168 HD
HETATM    7  C   UNK N   1      32.877  14.472   7.094  0.00  0.00     0.090 A 
HETATM    8  S   UNK N   1      34.161  14.787   8.080  0.00  0.00    -0.064 SA
HETATM    9  C   UNK N   1      33.818  16.366   8.444  0.00  0.00     0.101 A 
HETATM   10  C   UNK N   1      32.633  16.704   7.765  0.00  0.00     0.062 A 
HETATM   11  C   UNK N   1      32.060  15.605   7.002  0.00  0.00     0.038 A 
HETATM   12  C   UNK N   1      30.873  15.524   6.191  0.00  0.00     0.014 A 
ENDROOT
BRANCH   4  13
HETATM   13  N   UNK N   1      31.327  11.977   4.979  0.00  0.00    -0.384 N 
HETATM   14  H   UNK N   1      30.781  11.276   5.406  0.00  0.00     0.157 HD
HETATM   15  H   UNK N   1      31.714  11.823   4.087  0.00  0.00     0.157 HD
ENDBRANCH   4  13
BRANCH  12  16
HETATM   16  C   UNK N   1      29.875  16.657   6.079  0.00  0.00    -0.023 A 
HETATM   17  C   UNK N   1      29.880  17.506   4.966  0.00  0.00     0.015 A 
HETATM   18  C   UNK N   1      28.955  18.540   4.825  0.00  0.00     0.037 A 
HETATM   19  C   UNK N   1      28.000  18.764   5.812  0.00  0.00     0.068 A 
HETATM   20  C   UNK N   1      28.006  17.959   6.964  0.00  0.00     0.037 A 
HETATM   21  C   UNK N   1      28.939  16.924   7.096  0.00  0.00     0.015 A 
BRANCH  19  22
HETATM   22  O   UNK N   1      27.083  19.745   5.622  0.00  0.00    -0.352 OA
BRANCH  22  23
HETATM   23  C   UNK N   1      27.307  21.070   5.924  0.00  0.00     0.171 C 
HETATM   24  C   UNK N   1      26.389  21.518   7.044  0.00  0.00     0.034 C 
ENDBRANCH  22  23
ENDBRANCH  19  22
ENDBRANCH  12  16
BRANCH  10  25
HETATM   25  N   UNK N   1      32.131  18.018   7.815  0.00  0.00    -0.397 N 
HETATM   26  H   UNK N   1      31.161  18.182   7.784  0.00  0.00     0.156 HD
HETATM   27  H   UNK N   1      32.754  18.777   7.881  0.00  0.00     0.156 HD
ENDBRANCH  10  25
BRANCH   9  28
HETATM   28  C   UNK N   1      34.631  17.243   9.313  0.00  0.00     0.258 C 
HETATM   29  N   UNK N   1      34.858  16.903  10.596  0.00  0.00    -0.365 N 
HETATM   30  H   UNK N   1      35.360  17.510  11.187  0.00  0.00     0.159 HD
HETATM   31  H   UNK N   1      34.520  16.046  10.944  0.00  0.00     0.159 HD
HETATM   32  O   UNK N   1      35.088  18.290   8.880  0.00  0.00    -0.267 OA
ENDBRANCH   9  28
TORSDOF 6
ENDMDL
MODEL 6
REMARK VINA RESULT:      -6.1      4.300      6.464
REMARK  6 active torsions:
REMARK  status: ('A' for Active; 'I' for Inactive)
REMARK    1  A    between atoms: C_4  and  N_5 
REMARK    2  A    between atoms: C_10  and  C_11 
REMARK       I    between atoms: C_11  and  N_12 
REMARK    3  A    between atoms: C_14  and  N_15 
REMARK    4  A    between atoms: C_17  and  C_18 
REMARK    5  A    between atoms: C_23  and  O_24 
REMARK    6  A    between atoms: O_24  and  C_25 
ROOT
HETATM    1  N   UNK N   1      31.992  16.008   8.909  0.00  0.00    -0.191 NA
HETATM    2  C   UNK N   1      31.150  16.691   8.500  0.00  0.00     0.104 C 
HETATM    3  C   UNK N   1      30.092  17.548   8.009  0.00  0.00     0.100 A 
HETATM    4  C   UNK N   1      29.399  18.335   8.962  0.00  0.00     0.121 A 
HETATM    5  N   UNK N   1      28.365  19.123   8.588  0.00  0.00    -0.335 N 
ATOM      6  HN  UNK N   1      27.865  19.674   9.286  1.00  0.00     0.168 HD
HETATM    7  C   UNK N   1      27.998  19.181   7.294  0.00  0.00     0.090 A 
HETATM    8  S   UNK N   1      26.786  20.107   6.669  0.00  0.00    -0.064 SA
HETATM    9  C   UNK N   1      26.964  19.710   5.071  0.00  0.00     0.101 A 
HETATM   10  C   UNK N   1      28.034  18.801   4.982  0.00  0.00     0.062 A 
HETATM   11  C   UNK N   1      28.624  18.462   6.269  0.00  0.00     0.038 A 
HETATM   12  C   UNK N   1      29.707  17.580   6.619  0.00  0.00     0.014 A 
ENDROOT
BRANCH   4  13
HETATM   13  N   UNK N   1      29.764  18.293  10.327  0.00  0.00    -0.384 N 
HETATM   14  H   UNK N   1      30.492  17.699  10.625  0.00  0.00     0.157 HD
HETATM   15  H   UNK N   1      29.290  18.856  10.981  0.00  0.00     0.157 HD
ENDBRANCH   4  13
BRANCH  12  16
HETATM   16  C   UNK N   1      30.406  16.695   5.609  0.00  0.00    -0.023 A 
HETATM   17  C   UNK N   1      29.945  15.399   5.355  0.00  0.00     0.015 A 
HETATM   18  C   UNK N   1      30.555  14.573   4.410  0.00  0.00     0.037 A 
HETATM   19  C   UNK N   1      31.664  15.022   3.699  0.00  0.00     0.068 A 
HETATM   20  C   UNK N   1      32.178  16.301   3.973  0.00  0.00     0.037 A 
HETATM   21  C   UNK N   1      31.559  17.122   4.923  0.00  0.00     0.015 A 
BRANCH  19  22
HETATM   22  O   UNK N   1      32.203  14.215   2.753  0.00  0.00    -0.352 OA
BRANCH  22  23
HETATM   23  C   UNK N   1      33.558  14.090   2.536  0.00  0.00     0.171 C 
HETATM   24  C   UNK N   1      33.830  12.986   1.533  0.00  0.00     0.034 C 
ENDBRANCH  22  23
ENDBRANCH  19  22
ENDBRANCH  12  16
BRANCH  10  25
HETATM   25  N   UNK N   1      28.480  18.343   3.729  0.00  0.00    -0.397 N 
HETATM   26  H   UNK N   1      28.214  17.454   3.400  0.00  0.00     0.156 HD
HETATM   27  H   UNK N   1      29.061  18.915   3.177  0.00  0.00     0.156 HD
ENDBRANCH  10  25
BRANCH   9  28
HETATM   28  C   UNK N   1      26.147  20.240   3.958  0.00  0.00     0.258 C 
HETATM   29  N   UNK N   1      24.804  20.150   4.002  0.00  0.00    -0.365 N 
HETATM   30  H   UNK N   1      24.263  20.460   3.240  0.00  0.00     0.159 HD
HETATM   31  H   UNK N   1      24.362  19.774   4.798  0.00  0.00     0.159 HD
HETATM   32  O   UNK N   1      26.683  20.744   2.984  0.00  0.00    -0.267 OA
ENDBRANCH   9  28
TORSDOF 6
ENDMDL
MODEL 7
REMARK VINA RESULT:      -6.1      6.112      9.599
REMARK  6 active torsions:
REMARK  status: ('A' for Active; 'I' for Inactive)
REMARK    1  A    between atoms: C_4  and  N_5 
REMARK    2  A    between atoms: C_10  and  C_11 
REMARK       I    between atoms: C_11  and  N_12 
REMARK    3  A    between atoms: C_14  and  N_15 
REMARK    4  A    between atoms: C_17  and  C_18 
REMARK    5  A    between atoms: C_23  and  O_24 
REMARK    6  A    between atoms: O_24  and  C_25 
ROOT
HETATM    1  N   UNK N   1      24.796  20.959   2.053  0.00  0.00    -0.191 NA
HETATM    2  C   UNK N   1      24.165  20.252   2.718  0.00  0.00     0.104 C 
HETATM    3  C   UNK N   1      23.358  19.380   3.545  0.00  0.00     0.100 A 
HETATM    4  C   UNK N   1      21.956  19.584   3.530  0.00  0.00     0.121 A 
HETATM    5  N   UNK N   1      21.141  18.842   4.314  0.00  0.00    -0.335 N 
ATOM      6  HN  UNK N   1      20.134  19.009   4.305  1.00  0.00     0.168 HD
HETATM    7  C   UNK N   1      21.658  17.884   5.105  0.00  0.00     0.090 A 
HETATM    8  S   UNK N   1      20.806  16.877   6.096  0.00  0.00    -0.064 SA
HETATM    9  C   UNK N   1      22.065  15.971   6.677  0.00  0.00     0.101 A 
HETATM   10  C   UNK N   1      23.242  16.456   6.076  0.00  0.00     0.062 A 
HETATM   11  C   UNK N   1      23.023  17.586   5.185  0.00  0.00     0.038 A 
HETATM   12  C   UNK N   1      23.938  18.370   4.397  0.00  0.00     0.014 A 
ENDROOT
BRANCH   4  13
HETATM   13  N   UNK N   1      21.387  20.583   2.709  0.00  0.00    -0.384 N 
HETATM   14  H   UNK N   1      21.923  20.999   1.994  0.00  0.00     0.157 HD
HETATM   15  H   UNK N   1      20.455  20.866   2.851  0.00  0.00     0.157 HD
ENDBRANCH   4  13
BRANCH  12  16
HETATM   16  C   UNK N   1      25.440  18.190   4.460  0.00  0.00    -0.023 A 
HETATM   17  C   UNK N   1      26.217  18.971   5.323  0.00  0.00     0.015 A 
HETATM   18  C   UNK N   1      27.599  18.807   5.420  0.00  0.00     0.037 A 
HETATM   19  C   UNK N   1      28.249  17.859   4.636  0.00  0.00     0.068 A 
HETATM   20  C   UNK N   1      27.499  17.098   3.723  0.00  0.00     0.037 A 
HETATM   21  C   UNK N   1      26.112  17.270   3.633  0.00  0.00     0.015 A 
BRANCH  19  22
HETATM   22  O   UNK N   1      29.585  17.689   4.789  0.00  0.00    -0.352 OA
BRANCH  22  23
HETATM   23  C   UNK N   1      30.150  16.611   5.434  0.00  0.00     0.171 C 
HETATM   24  C   UNK N   1      30.538  16.989   6.851  0.00  0.00     0.034 C 
ENDBRANCH  22  23
ENDBRANCH  19  22
ENDBRANCH  12  16
BRANCH  10  25
HETATM   25  N   UNK N   1      24.477  15.825   6.313  0.00  0.00    -0.397 N 
HETATM   26  H   UNK N   1      24.578  14.857   6.161  0.00  0.00     0.156 HD
HETATM   27  H   UNK N   1      25.243  16.353   6.634  0.00  0.00     0.156 HD
ENDBRANCH  10  25
BRANCH   9  28
HETATM   28  C   UNK N   1      21.947  14.853   7.637  0.00  0.00     0.258 C 
HETATM   29  N   UNK N   1      21.131  14.961   8.703  0.00  0.00    -0.365 N 
HETATM   30  H   UNK N   1      21.089  14.235   9.368  0.00  0.00     0.159 HD
HETATM   31  H   UNK N   1      20.577  15.766   8.819  0.00  0.00     0.159 HD
HETATM   32  O   UNK N   1      22.601  13.834   7.482  0.00  0.00    -0.267 OA
ENDBRANCH   9  28
TORSDOF 6
ENDMDL
MODEL 8
REMARK VINA RESULT:      -6.1      1.765      2.300
REMARK  6 active torsions:
REMARK  status: ('A' for Active; 'I' for Inactive)
REMARK    1  A    between atoms: C_4  and  N_5 
REMARK    2  A    between atoms: C_10  and  C_11 
REMARK       I    between atoms: C_11  and  N_12 
REMARK    3  A    between atoms: C_14  and  N_15 
REMARK    4  A    between atoms: C_17  and  C_18 
REMARK    5  A    between atoms: C_23  and  O_24 
REMARK    6  A    between atoms: O_24  and  C_25 
ROOT
HETATM    1  N   UNK N   1      35.031  14.222   4.758  0.00  0.00    -0.191 NA
HETATM    2  C   UNK N   1      33.989  14.726   4.710  0.00  0.00     0.104 C 
HETATM    3  C   UNK N   1      32.687  15.352   4.628  0.00  0.00     0.100 A 
HETATM    4  C   UNK N   1      31.982  15.228   3.405  0.00  0.00     0.121 A 
HETATM    5  N   UNK N   1      30.781  15.828   3.235  0.00  0.00    -0.335 N 
ATOM      6  HN  UNK N   1      30.291  15.744   2.344  1.00  0.00     0.168 HD
HETATM    7  C   UNK N   1      30.234  16.535   4.241  0.00  0.00     0.090 A 
HETATM    8  S   UNK N   1      28.774  17.301   4.209  0.00  0.00    -0.064 SA
HETATM    9  C   UNK N   1      28.758  17.879   5.760  0.00  0.00     0.101 A 
HETATM   10  C   UNK N   1      29.954  17.462   6.375  0.00  0.00     0.062 A 
HETATM   11  C   UNK N   1      30.833  16.707   5.494  0.00  0.00     0.038 A 
HETATM   12  C   UNK N   1      32.128  16.119   5.716  0.00  0.00     0.014 A 
ENDROOT
BRANCH   4  13
HETATM   13  N   UNK N   1      32.534  14.492   2.332  0.00  0.00    -0.384 N 
HETATM   14  H   UNK N   1      33.186  14.916   1.727  0.00  0.00     0.157 HD
HETATM   15  H   UNK N   1      32.268  13.556   2.189  0.00  0.00     0.157 HD
ENDBRANCH   4  13
BRANCH  12  16
HETATM   16  C   UNK N   1      32.906  16.303   7.002  0.00  0.00    -0.023 A 
HETATM   17  C   UNK N   1      33.768  17.393   7.166  0.00  0.00     0.015 A 
HETATM   18  C   UNK N   1      34.475  17.600   8.350  0.00  0.00     0.037 A 
HETATM   19  C   UNK N   1      34.349  16.704   9.407  0.00  0.00     0.068 A 
HETATM   20  C   UNK N   1      33.530  15.573   9.249  0.00  0.00     0.037 A 
HETATM   21  C   UNK N   1      32.825  15.374   8.056  0.00  0.00     0.015 A 
BRANCH  19  22
HETATM   22  O   UNK N   1      35.010  16.960  10.562  0.00  0.00    -0.352 OA
BRANCH  22  23
HETATM   23  C   UNK N   1      36.098  16.234  10.998  0.00  0.00     0.171 C 
HETATM   24  C   UNK N   1      35.683  15.272  12.094  0.00  0.00     0.034 C 
ENDBRANCH  22  23
ENDBRANCH  19  22
ENDBRANCH  12  16
BRANCH  10  25
HETATM   25  N   UNK N   1      30.190  17.734   7.735  0.00  0.00    -0.397 N 
HETATM   26  H   UNK N   1      29.619  18.371   8.221  0.00  0.00     0.156 HD
HETATM   27  H   UNK N   1      30.931  17.285   8.202  0.00  0.00     0.156 HD
ENDBRANCH  10  25
BRANCH   9  28
HETATM   28  C   UNK N   1      27.669  18.671   6.371  0.00  0.00     0.258 C 
HETATM   29  N   UNK N   1      26.433  18.644   5.838  0.00  0.00    -0.365 N 
HETATM   30  H   UNK N   1      25.720  19.208   6.218  0.00  0.00     0.159 HD
HETATM   31  H   UNK N   1      26.241  18.060   5.069  0.00  0.00     0.159 HD
HETATM   32  O   UNK N   1      27.887  19.369   7.349  0.00  0.00    -0.267 OA
ENDBRANCH   9  28
TORSDOF 6
ENDMDL
MODEL 9
REMARK VINA RESULT:      -6.1      7.319     11.339
REMARK  6 active torsions:
REMARK  status: ('A' for Active; 'I' for Inactive)
REMARK    1  A    between atoms: C_4  and  N_5 
REMARK    2  A    between atoms: C_10  and  C_11 
REMARK       I    between atoms: C_11  and  N_12 
REMARK    3  A    between atoms: C_14  and  N_15 
REMARK    4  A    between atoms: C_17  and  C_18 
REMARK    5  A    between atoms: C_23  and  O_24 
REMARK    6  A    between atoms: O_24  and  C_25 
ROOT
HETATM    1  N   UNK N   1      19.277  18.312   3.143  0.00  0.00    -0.191 NA
HETATM    2  C   UNK N   1      20.382  18.642   3.249  0.00  0.00     0.104 C 
HETATM    3  C   UNK N   1      21.760  19.069   3.365  0.00  0.00     0.100 A 
HETATM    4  C   UNK N   1      22.132  20.257   2.687  0.00  0.00     0.121 A 
HETATM    5  N   UNK N   1      23.413  20.693   2.707  0.00  0.00    -0.335 N 
ATOM      6  HN  UNK N   1      23.671  21.541   2.203  1.00  0.00     0.168 HD
HETATM    7  C   UNK N   1      24.346  20.008   3.394  0.00  0.00     0.090 A 
HETATM    8  S   UNK N   1      25.936  20.415   3.544  0.00  0.00    -0.064 SA
HETATM    9  C   UNK N   1      26.420  19.183   4.540  0.00  0.00     0.101 A 
HETATM   10  C   UNK N   1      25.289  18.385   4.797  0.00  0.00     0.062 A 
HETATM   11  C   UNK N   1      24.086  18.836   4.113  0.00  0.00     0.038 A 
HETATM   12  C   UNK N   1      22.746  18.308   4.095  0.00  0.00     0.014 A 
ENDROOT
BRANCH   4  13
HETATM   13  N   UNK N   1      21.173  20.995   1.958  0.00  0.00    -0.384 N 
HETATM   14  H   UNK N   1      21.411  21.870   1.574  0.00  0.00     0.157 HD
HETATM   15  H   UNK N   1      20.265  20.634   1.833  0.00  0.00     0.157 HD
ENDBRANCH   4  13
BRANCH  12  16
HETATM   16  C   UNK N   1      22.364  17.008   4.770  0.00  0.00    -0.023 A 
HETATM   17  C   UNK N   1      22.496  15.788   4.098  0.00  0.00     0.015 A 
HETATM   18  C   UNK N   1      22.178  14.574   4.706  0.00  0.00     0.037 A 
HETATM   19  C   UNK N   1      21.697  14.551   6.012  0.00  0.00     0.068 A 
HETATM   20  C   UNK N   1      21.505  15.765   6.692  0.00  0.00     0.037 A 
HETATM   21  C   UNK N   1      21.828  16.979   6.072  0.00  0.00     0.015 A 
BRANCH  19  22
HETATM   22  O   UNK N   1      21.443  13.352   6.593  0.00  0.00    -0.352 OA
BRANCH  22  23
HETATM   23  C   UNK N   1      22.251  12.780   7.551  0.00  0.00     0.171 C 
HETATM   24  C   UNK N   1      21.526  12.716   8.881  0.00  0.00     0.034 C 
ENDBRANCH  22  23
ENDBRANCH  19  22
ENDBRANCH  12  16
BRANCH  10  25
HETATM   25  N   UNK N   1      25.370  17.299   5.687  0.00  0.00    -0.397 N 
HETATM   26  H   UNK N   1      24.720  17.208   6.421  0.00  0.00     0.156 HD
HETATM   27  H   UNK N   1      26.080  16.626   5.576  0.00  0.00     0.156 HD
ENDBRANCH  10  25
BRANCH   9  28
HETATM   28  C   UNK N   1      27.788  18.988   5.063  0.00  0.00     0.258 C 
HETATM   29  N   UNK N   1      28.797  18.686   4.223  0.00  0.00    -0.365 N 
HETATM   30  H   UNK N   1      29.699  18.511   4.578  0.00  0.00     0.159 HD
HETATM   31  H   UNK N   1      28.632  18.641   3.254  0.00  0.00     0.159 HD
HETATM   32  O   UNK N   1      28.012  19.081   6.260  0.00  0.00    -0.267 OA
ENDBRANCH   9  28
TORSDOF 6
ENDMDL
