REMARK  6 active torsions:
REMARK  status: ('A' for Active; 'I' for Inactive)
REMARK    1  A    between atoms: C_4  and  N_5 
REMARK    2  A    between atoms: C_10  and  C_11 
REMARK       I    between atoms: C_11  and  N_12 
REMARK    3  A    between atoms: C_14  and  N_15 
REMARK    4  A    between atoms: C_17  and  C_18 
REMARK    5  A    between atoms: C_23  and  O_24 
REMARK    6  A    between atoms: O_24  and  C_25 
ROOT
HETATM    1  N   UNK N   1       3.937  -0.922  -0.003  0.00  0.00    -0.191 NA
HETATM    2  C   UNK N   1       2.896  -1.430   0.002  0.00  0.00     0.104 C 
HETATM    3  C   UNK N   1       1.605  -2.084   0.004  0.00  0.00     0.100 A 
HETATM    4  C   UNK N   1       1.594  -3.501  -0.016  0.00  0.00     0.121 A 
HETATM    5  N   UNK N   1       0.427  -4.183  -0.066  0.00  0.00    -0.335 N 
ATOM      6  HN  UNK N   1       0.433  -5.203  -0.095  1.00  0.00     0.168 HD
HETATM    7  C   UNK N   1      -0.742  -3.516  -0.076  0.00  0.00     0.090 A 
HETATM    8  S   UNK N   1      -2.246  -4.191  -0.106  0.00  0.00    -0.064 SA
HETATM    9  C   UNK N   1      -3.147  -2.803  -0.045  0.00  0.00     0.101 A 
HETATM   10  C   UNK N   1      -2.247  -1.722   0.008  0.00  0.00     0.062 A 
HETATM   11  C   UNK N   1      -0.848  -2.121  -0.040  0.00  0.00     0.038 A 
HETATM   12  C   UNK N   1       0.365  -1.346  -0.023  0.00  0.00     0.014 A 
ENDROOT
BRANCH   4  13
HETATM   13  N   UNK N   1       2.807  -4.226  -0.007  0.00  0.00    -0.384 N 
HETATM   14  H   UNK N   1       2.793  -5.211  -0.001  0.00  0.00     0.157 HD
HETATM   15  H   UNK N   1       3.667  -3.747  -0.007  0.00  0.00     0.157 HD
ENDBRANCH   4  13
BRANCH  12  16
HETATM   16  C   UNK N   1       0.375   0.168  -0.062  0.00  0.00    -0.023 A 
HETATM   17  C   UNK N   1      -0.638   0.872  -0.722  0.00  0.00     0.015 A 
HETATM   18  C   UNK N   1      -0.667   2.266  -0.750  0.00  0.00     0.037 A 
HETATM   19  C   UNK N   1       0.337   3.000  -0.125  0.00  0.00     0.068 A 
HETATM   20  C   UNK N   1       1.394   2.317   0.500  0.00  0.00     0.037 A 
HETATM   21  C   UNK N   1       1.414   0.917   0.522  0.00  0.00     0.015 A 
BRANCH  19  22
HETATM   22  O   UNK N   1       0.254   4.353  -0.127  0.00  0.00    -0.352 OA
BRANCH  22  23
HETATM   23  C   UNK N   1       1.123   5.174   0.558  0.00  0.00     0.171 C 
HETATM   24  C   UNK N   1       2.381   5.405  -0.256  0.00  0.00     0.034 C 
ENDBRANCH  22  23
ENDBRANCH  19  22
ENDBRANCH  12  16
BRANCH  10  25
HETATM   25  N   UNK N   1      -2.721  -0.405   0.151  0.00  0.00    -0.397 N 
HETATM   26  H   UNK N   1      -2.089   0.343   0.251  0.00  0.00     0.156 HD
HETATM   27  H   UNK N   1      -3.690  -0.231   0.151  0.00  0.00     0.156 HD
ENDBRANCH  10  25
BRANCH   9  28
HETATM   28  C   UNK N   1      -4.624  -2.737  -0.033  0.00  0.00     0.258 C 
HETATM   29  N   UNK N   1      -5.352  -3.869  -0.086  0.00  0.00    -0.365 N 
HETATM   30  H   UNK N   1      -6.335  -3.822  -0.125  0.00  0.00     0.159 HD
HETATM   31  H   UNK N   1      -4.901  -4.744  -0.086  0.00  0.00     0.159 HD
HETATM   32  O   UNK N   1      -5.194  -1.658   0.007  0.00  0.00    -0.267 OA
ENDBRANCH   9  28
TORSDOF 6
