MODEL 1
REMARK VINA RESULT:      -7.2      0.000      0.000
REMARK  3 active torsions:
REMARK  status: ('A' for Active; 'I' for Inactive)
REMARK    1  A    between atoms: C_8  and  C_9 
REMARK       I    between atoms: C_12  and  N_13 
REMARK    2  A    between atoms: C_20  and  C_21 
REMARK       I    between atoms: C_21  and  N_23 
REMARK    3  A    between atoms: N_23  and  C_24 
ROOT
HETATM    1  C   UNK N   1      29.710  16.458   6.232  0.00  0.00     0.074 A 
HETATM    2  N   UNK N   1      29.155  15.524   5.392  0.00  0.00    -0.190 N 
ATOM      3  HN  UNK N   1      28.277  15.756   4.927  1.00  0.00     0.184 HD
HETATM    4  C   UNK N   1      29.713  14.300   5.143  0.00  0.00     0.677 A 
HETATM    5  N   UNK N   1      29.074  13.403   4.268  0.00  0.00    -0.234 N 
HETATM    6  N   UNK N   1      30.885  13.948   5.739  0.00  0.00    -0.185 N 
ATOM      7  HN  UNK N   1      31.306  13.035   5.566  1.00  0.00     0.185 HD
HETATM    8  C   UNK N   1      31.475  14.838   6.561  0.00  0.00     0.103 A 
HETATM    9  S   UNK N   1      32.898  14.672   7.392  0.00  0.00    -0.066 SA
HETATM   10  C   UNK N   1      30.940  16.095   6.834  0.00  0.00     0.028 A 
HETATM   11  C   UNK N   1      31.762  16.846   7.697  0.00  0.00     0.041 A 
HETATM   12  C   UNK N   1      32.911  16.170   8.116  0.00  0.00     0.075 A 
HETATM   13  H   UNK N   1      29.471  12.519   4.093  0.00  0.00     0.174 HD
HETATM   14  H   UNK N   1      28.230  13.659   3.831  0.00  0.00     0.174 HD
ENDROOT
BRANCH   1  15
HETATM   15  C   UNK N   1      28.947  17.772   6.388  0.00  0.00     0.014 A 
HETATM   16  C   UNK N   1      28.430  18.413   7.578  0.00  0.00     0.048 A 
HETATM   17 Cl   UNK N   1      28.465  17.832   9.228  0.00  0.00    -0.083 Cl
HETATM   18  C   UNK N   1      27.753  19.632   7.467  0.00  0.00     0.048 A 
HETATM   19  C   UNK N   1      27.553  20.248   6.242  0.00  0.00     0.035 A 
HETATM   20 Cl   UNK N   1      26.695  21.771   6.165  0.00  0.00    -0.084 Cl
HETATM   21  C   UNK N   1      28.019  19.645   5.086  0.00  0.00     0.025 A 
HETATM   22  C   UNK N   1      28.701  18.433   5.163  0.00  0.00     0.017 A 
ENDBRANCH   1  15
BRANCH  12  23
HETATM   23  C   UNK N   1      33.895  16.735   9.051  0.00  0.00     0.258 C 
HETATM   24  O   UNK N   1      34.270  17.890   8.894  0.00  0.00    -0.267 OA
HETATM   25  N   UNK N   1      34.374  15.999  10.081  0.00  0.00    -0.357 N 
HETATM   26  H   UNK N   1      34.068  15.072  10.200  0.00  0.00     0.162 HD
BRANCH  25  27
HETATM   27  C   UNK N   1      35.329  16.558  11.007  0.00  0.00     0.118 C 
HETATM   28  C   UNK N   1      35.862  15.473  11.916  0.00  0.00     0.026 C 
ENDBRANCH  25  27
ENDBRANCH  12  23
TORSDOF 3
ENDMDL
MODEL 2
REMARK VINA RESULT:      -7.0      5.345      9.772
REMARK  3 active torsions:
REMARK  status: ('A' for Active; 'I' for Inactive)
REMARK    1  A    between atoms: C_8  and  C_9 
REMARK       I    between atoms: C_12  and  N_13 
REMARK    2  A    between atoms: C_20  and  C_21 
REMARK       I    between atoms: C_21  and  N_23 
REMARK    3  A    between atoms: N_23  and  C_24 
ROOT
HETATM    1  C   UNK N   1      36.460  12.609  12.610  0.00  0.00     0.074 A 
HETATM    2  N   UNK N   1      37.106  11.422  12.370  0.00  0.00    -0.190 N 
ATOM      3  HN  UNK N   1      37.272  10.796  13.159  1.00  0.00     0.184 HD
HETATM    4  C   UNK N   1      37.538  11.030  11.133  0.00  0.00     0.677 A 
HETATM    5  N   UNK N   1      38.194   9.794  10.978  0.00  0.00    -0.234 N 
HETATM    6  N   UNK N   1      37.336  11.831  10.052  0.00  0.00    -0.185 N 
ATOM      7  HN  UNK N   1      37.661  11.552   9.126  1.00  0.00     0.185 HD
HETATM    8  C   UNK N   1      36.694  13.001  10.236  0.00  0.00     0.103 A 
HETATM    9  S   UNK N   1      36.307  14.143   9.100  0.00  0.00    -0.066 SA
HETATM   10  C   UNK N   1      36.234  13.430  11.479  0.00  0.00     0.028 A 
HETATM   11  C   UNK N   1      35.568  14.670  11.400  0.00  0.00     0.041 A 
HETATM   12  C   UNK N   1      35.537  15.215  10.113  0.00  0.00     0.075 A 
HETATM   13  H   UNK N   1      38.512   9.514  10.089  0.00  0.00     0.174 HD
HETATM   14  H   UNK N   1      38.335   9.211  11.758  0.00  0.00     0.174 HD
ENDROOT
BRANCH   1  15
HETATM   15  C   UNK N   1      36.048  12.879  14.057  0.00  0.00     0.014 A 
HETATM   16  C   UNK N   1      34.998  12.281  14.853  0.00  0.00     0.048 A 
HETATM   17 Cl   UNK N   1      33.812  11.089  14.368  0.00  0.00    -0.083 Cl
HETATM   18  C   UNK N   1      34.809  12.700  16.174  0.00  0.00     0.048 A 
HETATM   19  C   UNK N   1      35.598  13.684  16.748  0.00  0.00     0.035 A 
HETATM   20 Cl   UNK N   1      35.312  14.169  18.405  0.00  0.00    -0.084 Cl
HETATM   21  C   UNK N   1      36.596  14.286  16.002  0.00  0.00     0.025 A 
HETATM   22  C   UNK N   1      36.812  13.889  14.685  0.00  0.00     0.017 A 
ENDBRANCH   1  15
BRANCH  12  23
HETATM   23  C   UNK N   1      34.936  16.518   9.793  0.00  0.00     0.258 C 
HETATM   24  O   UNK N   1      35.400  17.528  10.306  0.00  0.00    -0.267 OA
HETATM   25  N   UNK N   1      33.894  16.610   8.935  0.00  0.00    -0.357 N 
HETATM   26  H   UNK N   1      33.526  15.792   8.528  0.00  0.00     0.162 HD
BRANCH  25  27
HETATM   27  C   UNK N   1      33.314  17.890   8.610  0.00  0.00     0.118 C 
HETATM   28  C   UNK N   1      31.840  17.728   8.313  0.00  0.00     0.026 C 
ENDBRANCH  25  27
ENDBRANCH  12  23
TORSDOF 3
ENDMDL
MODEL 3
REMARK VINA RESULT:      -6.8      7.408      9.532
REMARK  3 active torsions:
REMARK  status: ('A' for Active; 'I' for Inactive)
REMARK    1  A    between atoms: C_8  and  C_9 
REMARK       I    between atoms: C_12  and  N_13 
REMARK    2  A    between atoms: C_20  and  C_21 
REMARK       I    between atoms: C_21  and  N_23 
REMARK    3  A    between atoms: N_23  and  C_24 
ROOT
HETATM    1  C   UNK N   1      21.354  17.589   4.816  0.00  0.00     0.074 A 
HETATM    2  N   UNK N   1      20.188  17.680   4.097  0.00  0.00    -0.190 N 
ATOM      3  HN  UNK N   1      19.404  17.089   4.374  1.00  0.00     0.184 HD
HETATM    4  C   UNK N   1      20.019  18.519   3.030  0.00  0.00     0.677 A 
HETATM    5  N   UNK N   1      18.788  18.546   2.348  0.00  0.00    -0.234 N 
HETATM    6  N   UNK N   1      21.036  19.328   2.626  0.00  0.00    -0.185 N 
ATOM      7  HN  UNK N   1      20.922  19.952   1.827  1.00  0.00     0.185 HD
HETATM    8  C   UNK N   1      22.195  19.284   3.311  0.00  0.00     0.103 A 
HETATM    9  S   UNK N   1      23.572  20.166   3.044  0.00  0.00    -0.066 SA
HETATM   10  C   UNK N   1      22.403  18.448   4.405  0.00  0.00     0.028 A 
HETATM   11  C   UNK N   1      23.686  18.614   4.965  0.00  0.00     0.041 A 
HETATM   12  C   UNK N   1      24.480  19.548   4.294  0.00  0.00     0.075 A 
HETATM   13  H   UNK N   1      18.666  19.145   1.575  0.00  0.00     0.174 HD
HETATM   14  H   UNK N   1      18.050  17.966   2.643  0.00  0.00     0.174 HD
ENDROOT
BRANCH   1  15
HETATM   15  C   UNK N   1      21.361  16.597   5.978  0.00  0.00     0.014 A 
HETATM   16  C   UNK N   1      21.937  15.273   6.068  0.00  0.00     0.048 A 
HETATM   17 Cl   UNK N   1      22.759  14.358   4.824  0.00  0.00    -0.083 Cl
HETATM   18  C   UNK N   1      21.810  14.544   7.256  0.00  0.00     0.048 A 
HETATM   19  C   UNK N   1      21.139  15.052   8.357  0.00  0.00     0.035 A 
HETATM   20 Cl   UNK N   1      21.010  14.093   9.814  0.00  0.00    -0.084 Cl
HETATM   21  C   UNK N   1      20.562  16.309   8.290  0.00  0.00     0.025 A 
HETATM   22  C   UNK N   1      20.673  17.061   7.123  0.00  0.00     0.017 A 
ENDBRANCH   1  15
BRANCH  12  23
HETATM   23  C   UNK N   1      25.868  19.858   4.668  0.00  0.00     0.258 C 
HETATM   24  O   UNK N   1      26.677  20.115   3.787  0.00  0.00    -0.267 OA
HETATM   25  N   UNK N   1      26.249  19.873   5.967  0.00  0.00    -0.357 N 
HETATM   26  H   UNK N   1      25.591  19.664   6.669  0.00  0.00     0.162 HD
BRANCH  25  27
HETATM   27  C   UNK N   1      27.607  20.191   6.335  0.00  0.00     0.118 C 
HETATM   28  C   UNK N   1      28.101  19.213   7.377  0.00  0.00     0.026 C 
ENDBRANCH  25  27
ENDBRANCH  12  23
TORSDOF 3
ENDMDL
MODEL 4
REMARK VINA RESULT:      -6.5      3.780      7.067
REMARK  3 active torsions:
REMARK  status: ('A' for Active; 'I' for Inactive)
REMARK    1  A    between atoms: C_8  and  C_9 
REMARK       I    between atoms: C_12  and  N_13 
REMARK    2  A    between atoms: C_20  and  C_21 
REMARK       I    between atoms: C_21  and  N_23 
REMARK    3  A    between atoms: N_23  and  C_24 
ROOT
HETATM    1  C   UNK N   1      31.286  15.793   6.874  0.00  0.00     0.074 A 
HETATM    2  N   UNK N   1      32.020  15.308   7.928  0.00  0.00    -0.190 N 
ATOM      3  HN  UNK N   1      32.735  14.607   7.735  1.00  0.00     0.184 HD
HETATM    4  C   UNK N   1      31.846  15.713   9.223  0.00  0.00     0.677 A 
HETATM    5  N   UNK N   1      32.642  15.161  10.243  0.00  0.00    -0.234 N 
HETATM    6  N   UNK N   1      30.906  16.649   9.528  0.00  0.00    -0.185 N 
ATOM      7  HN  UNK N   1      30.763  16.952  10.491  1.00  0.00     0.185 HD
HETATM    8  C   UNK N   1      30.170  17.164   8.523  0.00  0.00     0.103 A 
HETATM    9  S   UNK N   1      28.984  18.316   8.614  0.00  0.00    -0.066 SA
HETATM   10  C   UNK N   1      30.323  16.781   7.192  0.00  0.00     0.028 A 
HETATM   11  C   UNK N   1      29.460  17.490   6.333  0.00  0.00     0.041 A 
HETATM   12  C   UNK N   1      28.622  18.394   6.992  0.00  0.00     0.075 A 
HETATM   13  H   UNK N   1      32.514  15.446  11.178  0.00  0.00     0.174 HD
HETATM   14  H   UNK N   1      33.327  14.489  10.023  0.00  0.00     0.174 HD
ENDROOT
BRANCH   1  15
HETATM   15  C   UNK N   1      31.620  15.226   5.495  0.00  0.00     0.014 A 
HETATM   16  C   UNK N   1      32.187  15.877   4.332  0.00  0.00     0.048 A 
HETATM   17 Cl   UNK N   1      32.606  17.562   4.127  0.00  0.00    -0.083 Cl
HETATM   18  C   UNK N   1      32.403  15.137   3.164  0.00  0.00     0.048 A 
HETATM   19  C   UNK N   1      32.083  13.792   3.081  0.00  0.00     0.035 A 
HETATM   20 Cl   UNK N   1      32.373  12.920   1.592  0.00  0.00    -0.084 Cl
HETATM   21  C   UNK N   1      31.521  13.151   4.172  0.00  0.00     0.025 A 
HETATM   22  C   UNK N   1      31.297  13.857   5.352  0.00  0.00     0.017 A 
ENDBRANCH   1  15
BRANCH  12  23
HETATM   23  C   UNK N   1      27.608  19.213   6.310  0.00  0.00     0.258 C 
HETATM   24  O   UNK N   1      27.727  20.431   6.316  0.00  0.00    -0.267 OA
HETATM   25  N   UNK N   1      26.563  18.634   5.673  0.00  0.00    -0.357 N 
HETATM   26  H   UNK N   1      26.476  17.653   5.675  0.00  0.00     0.162 HD
BRANCH  25  27
HETATM   27  C   UNK N   1      25.577  19.436   4.992  0.00  0.00     0.118 C 
HETATM   28  C   UNK N   1      25.714  19.263   3.496  0.00  0.00     0.026 C 
ENDBRANCH  25  27
ENDBRANCH  12  23
TORSDOF 3
ENDMDL
MODEL 5
REMARK VINA RESULT:      -6.4     13.268     15.430
REMARK  3 active torsions:
REMARK  status: ('A' for Active; 'I' for Inactive)
REMARK    1  A    between atoms: C_8  and  C_9 
REMARK       I    between atoms: C_12  and  N_13 
REMARK    2  A    between atoms: C_20  and  C_21 
REMARK       I    between atoms: C_21  and  N_23 
REMARK    3  A    between atoms: N_23  and  C_24 
ROOT
HETATM    1  C   UNK N   1      27.963  24.004  -4.997  0.00  0.00     0.074 A 
HETATM    2  N   UNK N   1      27.112  23.231  -5.747  0.00  0.00    -0.190 N 
ATOM      3  HN  UNK N   1      27.364  22.256  -5.910  1.00  0.00     0.184 HD
HETATM    4  C   UNK N   1      25.945  23.695  -6.289  0.00  0.00     0.677 A 
HETATM    5  N   UNK N   1      25.132  22.832  -7.047  0.00  0.00    -0.234 N 
HETATM    6  N   UNK N   1      25.566  24.988  -6.095  0.00  0.00    -0.185 N 
ATOM      7  HN  UNK N   1      24.701  25.346  -6.500  1.00  0.00     0.185 HD
HETATM    8  C   UNK N   1      26.363  25.781  -5.353  0.00  0.00     0.103 A 
HETATM    9  S   UNK N   1      26.133  27.372  -4.954  0.00  0.00    -0.066 SA
HETATM   10  C   UNK N   1      27.556  25.343  -4.782  0.00  0.00     0.028 A 
HETATM   11  C   UNK N   1      28.186  26.353  -4.028  0.00  0.00     0.041 A 
HETATM   12  C   UNK N   1      27.507  27.574  -4.038  0.00  0.00     0.075 A 
HETATM   13  H   UNK N   1      24.294  23.166  -7.443  0.00  0.00     0.174 HD
HETATM   14  H   UNK N   1      25.401  21.895  -7.182  0.00  0.00     0.174 HD
ENDROOT
BRANCH   1  15
HETATM   15  C   UNK N   1      29.222  23.315  -4.472  0.00  0.00     0.014 A 
HETATM   16  C   UNK N   1      29.550  22.869  -3.135  0.00  0.00     0.048 A 
HETATM   17 Cl   UNK N   1      28.612  23.047  -1.669  0.00  0.00    -0.083 Cl
HETATM   18  C   UNK N   1      30.785  22.256  -2.895  0.00  0.00     0.048 A 
HETATM   19  C   UNK N   1      31.716  22.068  -3.904  0.00  0.00     0.035 A 
HETATM   20 Cl   UNK N   1      33.245  21.299  -3.543  0.00  0.00    -0.084 Cl
HETATM   21  C   UNK N   1      31.435  22.504  -5.188  0.00  0.00     0.025 A 
HETATM   22  C   UNK N   1      30.212  23.115  -5.460  0.00  0.00     0.017 A 
ENDBRANCH   1  15
BRANCH  12  23
HETATM   23  C   UNK N   1      27.995  28.785  -3.360  0.00  0.00     0.258 C 
HETATM   24  O   UNK N   1      28.857  29.464  -3.903  0.00  0.00    -0.267 OA
HETATM   25  N   UNK N   1      27.494  29.156  -2.159  0.00  0.00    -0.357 N 
HETATM   26  H   UNK N   1      26.801  28.604  -1.730  0.00  0.00     0.162 HD
BRANCH  25  27
HETATM   27  C   UNK N   1      27.961  30.351  -1.500  0.00  0.00     0.118 C 
HETATM   28  C   UNK N   1      28.611  29.994  -0.183  0.00  0.00     0.026 C 
ENDBRANCH  25  27
ENDBRANCH  12  23
TORSDOF 3
ENDMDL
MODEL 6
REMARK VINA RESULT:      -6.4      3.417      4.873
REMARK  3 active torsions:
REMARK  status: ('A' for Active; 'I' for Inactive)
REMARK    1  A    between atoms: C_8  and  C_9 
REMARK       I    between atoms: C_12  and  N_13 
REMARK    2  A    between atoms: C_20  and  C_21 
REMARK       I    between atoms: C_21  and  N_23 
REMARK    3  A    between atoms: N_23  and  C_24 
ROOT
HETATM    1  C   UNK N   1      29.146  17.981   6.431  0.00  0.00     0.074 A 
HETATM    2  N   UNK N   1      28.990  18.231   7.772  0.00  0.00    -0.190 N 
ATOM      3  HN  UNK N   1      28.128  18.680   8.082  1.00  0.00     0.184 HD
HETATM    4  C   UNK N   1      29.927  17.912   8.717  0.00  0.00     0.677 A 
HETATM    5  N   UNK N   1      29.685  18.206  10.072  0.00  0.00    -0.234 N 
HETATM    6  N   UNK N   1      31.091  17.309   8.351  0.00  0.00    -0.185 N 
ATOM      7  HN  UNK N   1      31.799  17.073   9.046  1.00  0.00     0.185 HD
HETATM    8  C   UNK N   1      31.282  17.031   7.046  0.00  0.00     0.103 A 
HETATM    9  S   UNK N   1      32.588  16.296   6.340  0.00  0.00    -0.066 SA
HETATM   10  C   UNK N   1      30.350  17.336   6.057  0.00  0.00     0.028 A 
HETATM   11  C   UNK N   1      30.773  16.915   4.781  0.00  0.00     0.041 A 
HETATM   12  C   UNK N   1      32.035  16.316   4.771  0.00  0.00     0.075 A 
HETATM   13  H   UNK N   1      30.361  17.982  10.752  0.00  0.00     0.174 HD
HETATM   14  H   UNK N   1      28.841  18.635  10.338  0.00  0.00     0.174 HD
ENDROOT
BRANCH   1  15
HETATM   15  C   UNK N   1      27.993  18.406   5.522  0.00  0.00     0.014 A 
HETATM   16  C   UNK N   1      26.730  17.754   5.254  0.00  0.00     0.048 A 
HETATM   17 Cl   UNK N   1      26.154  16.213   5.851  0.00  0.00    -0.083 Cl
HETATM   18  C   UNK N   1      25.821  18.345   4.369  0.00  0.00     0.048 A 
HETATM   19  C   UNK N   1      26.099  19.542   3.729  0.00  0.00     0.035 A 
HETATM   20 Cl   UNK N   1      24.925  20.232   2.630  0.00  0.00    -0.084 Cl
HETATM   21  C   UNK N   1      27.309  20.176   3.953  0.00  0.00     0.025 A 
HETATM   22  C   UNK N   1      28.233  19.616   4.831  0.00  0.00     0.017 A 
ENDBRANCH   1  15
BRANCH  12  23
HETATM   23  C   UNK N   1      32.702  15.837   3.551  0.00  0.00     0.258 C 
HETATM   24  O   UNK N   1      32.661  16.528   2.541  0.00  0.00    -0.267 OA
HETATM   25  N   UNK N   1      33.366  14.658   3.541  0.00  0.00    -0.357 N 
HETATM   26  H   UNK N   1      33.393  14.109   4.358  0.00  0.00     0.162 HD
BRANCH  25  27
HETATM   27  C   UNK N   1      34.033  14.195   2.348  0.00  0.00     0.118 C 
HETATM   28  C   UNK N   1      33.297  13.005   1.775  0.00  0.00     0.026 C 
ENDBRANCH  25  27
ENDBRANCH  12  23
TORSDOF 3
ENDMDL
MODEL 7
REMARK VINA RESULT:      -6.3      8.197     10.040
REMARK  3 active torsions:
REMARK  status: ('A' for Active; 'I' for Inactive)
REMARK    1  A    between atoms: C_8  and  C_9 
REMARK       I    between atoms: C_12  and  N_13 
REMARK    2  A    between atoms: C_20  and  C_21 
REMARK       I    between atoms: C_21  and  N_23 
REMARK    3  A    between atoms: N_23  and  C_24 
ROOT
HETATM    1  C   UNK N   1      21.956  17.256   3.964  0.00  0.00     0.074 A 
HETATM    2  N   UNK N   1      21.194  17.881   3.008  0.00  0.00    -0.190 N 
ATOM      3  HN  UNK N   1      21.659  18.522   2.365  1.00  0.00     0.184 HD
HETATM    4  C   UNK N   1      19.846  17.693   2.870  0.00  0.00     0.677 A 
HETATM    5  N   UNK N   1      19.143  18.377   1.861  0.00  0.00    -0.234 N 
HETATM    6  N   UNK N   1      19.184  16.845   3.704  0.00  0.00    -0.185 N 
ATOM      7  HN  UNK N   1      18.178  16.703   3.614  1.00  0.00     0.185 HD
HETATM    8  C   UNK N   1      19.893  16.198   4.650  0.00  0.00     0.103 A 
HETATM    9  S   UNK N   1      19.343  15.111   5.772  0.00  0.00    -0.066 SA
HETATM   10  C   UNK N   1      21.266  16.360   4.817  0.00  0.00     0.028 A 
HETATM   11  C   UNK N   1      21.774  15.550   5.852  0.00  0.00     0.041 A 
HETATM   12  C   UNK N   1      20.802  14.787   6.504  0.00  0.00     0.075 A 
HETATM   13  H   UNK N   1      18.171  18.247   1.764  0.00  0.00     0.174 HD
HETATM   14  H   UNK N   1      19.622  18.984   1.253  0.00  0.00     0.174 HD
ENDROOT
BRANCH   1  15
HETATM   15  C   UNK N   1      23.448  17.587   3.968  0.00  0.00     0.014 A 
HETATM   16  C   UNK N   1      24.593  16.727   3.760  0.00  0.00     0.048 A 
HETATM   17 Cl   UNK N   1      24.619  14.997   3.502  0.00  0.00    -0.083 Cl
HETATM   18  C   UNK N   1      25.882  17.268   3.814  0.00  0.00     0.048 A 
HETATM   19  C   UNK N   1      26.100  18.613   4.069  0.00  0.00     0.035 A 
HETATM   20 Cl   UNK N   1      27.735  19.232   4.128  0.00  0.00    -0.084 Cl
HETATM   21  C   UNK N   1      25.022  19.453   4.292  0.00  0.00     0.025 A 
HETATM   22  C   UNK N   1      23.726  18.946   4.242  0.00  0.00     0.017 A 
ENDBRANCH   1  15
BRANCH  12  23
HETATM   23  C   UNK N   1      21.087  13.900   7.641  0.00  0.00     0.258 C 
HETATM   24  O   UNK N   1      20.773  12.719   7.568  0.00  0.00    -0.267 OA
HETATM   25  N   UNK N   1      21.700  14.373   8.752  0.00  0.00    -0.357 N 
HETATM   26  H   UNK N   1      21.949  15.324   8.802  0.00  0.00     0.162 HD
BRANCH  25  27
HETATM   27  C   UNK N   1      21.993  13.500   9.862  0.00  0.00     0.118 C 
HETATM   28  C   UNK N   1      23.450  13.098   9.832  0.00  0.00     0.026 C 
ENDBRANCH  25  27
ENDBRANCH  12  23
TORSDOF 3
ENDMDL
MODEL 8
REMARK VINA RESULT:      -6.2      3.321      4.865
REMARK  3 active torsions:
REMARK  status: ('A' for Active; 'I' for Inactive)
REMARK    1  A    between atoms: C_8  and  C_9 
REMARK       I    between atoms: C_12  and  N_13 
REMARK    2  A    between atoms: C_20  and  C_21 
REMARK       I    between atoms: C_21  and  N_23 
REMARK    3  A    between atoms: N_23  and  C_24 
ROOT
HETATM    1  C   UNK N   1      30.019  17.192   6.723  0.00  0.00     0.074 A 
HETATM    2  N   UNK N   1      29.539  17.816   7.848  0.00  0.00    -0.190 N 
ATOM      3  HN  UNK N   1      28.559  18.099   7.861  1.00  0.00     0.184 HD
HETATM    4  C   UNK N   1      30.302  18.081   8.952  0.00  0.00     0.677 A 
HETATM    5  N   UNK N   1      29.727  18.728  10.063  0.00  0.00    -0.234 N 
HETATM    6  N   UNK N   1      31.613  17.720   8.982  0.00  0.00    -0.185 N 
ATOM      7  HN  UNK N   1      32.193  17.919   9.797  1.00  0.00     0.185 HD
HETATM    8  C   UNK N   1      32.126  17.091   7.905  0.00  0.00     0.103 A 
HETATM    9  S   UNK N   1      33.671  16.535   7.688  0.00  0.00    -0.066 SA
HETATM   10  C   UNK N   1      31.379  16.800   6.766  0.00  0.00     0.028 A 
HETATM   11  C   UNK N   1      32.136  16.111   5.797  0.00  0.00     0.041 A 
HETATM   12  C   UNK N   1      33.466  15.894   6.166  0.00  0.00     0.075 A 
HETATM   13  H   UNK N   1      30.277  18.925  10.856  0.00  0.00     0.174 HD
HETATM   14  H   UNK N   1      28.777  18.984  10.045  0.00  0.00     0.174 HD
ENDROOT
BRANCH   1  15
HETATM   15  C   UNK N   1      29.021  16.978   5.586  0.00  0.00     0.014 A 
HETATM   16  C   UNK N   1      28.334  17.944   4.756  0.00  0.00     0.048 A 
HETATM   17 Cl   UNK N   1      28.388  19.690   4.849  0.00  0.00    -0.083 Cl
HETATM   18  C   UNK N   1      27.452  17.499   3.765  0.00  0.00     0.048 A 
HETATM   19  C   UNK N   1      27.208  16.152   3.555  0.00  0.00     0.035 A 
HETATM   20 Cl   UNK N   1      26.091  15.656   2.303  0.00  0.00    -0.084 Cl
HETATM   21  C   UNK N   1      27.836  15.208   4.349  0.00  0.00     0.025 A 
HETATM   22  C   UNK N   1      28.723  15.618   5.343  0.00  0.00     0.017 A 
ENDBRANCH   1  15
BRANCH  12  23
HETATM   23  C   UNK N   1      34.456  15.236   5.301  0.00  0.00     0.258 C 
HETATM   24  O   UNK N   1      35.648  15.406   5.525  0.00  0.00    -0.267 OA
HETATM   25  N   UNK N   1      34.063  14.441   4.278  0.00  0.00    -0.357 N 
HETATM   26  H   UNK N   1      33.103  14.311   4.105  0.00  0.00     0.162 HD
BRANCH  25  27
HETATM   27  C   UNK N   1      35.034  13.783   3.438  0.00  0.00     0.118 C 
HETATM   28  C   UNK N   1      34.749  14.087   1.985  0.00  0.00     0.026 C 
ENDBRANCH  25  27
ENDBRANCH  12  23
TORSDOF 3
ENDMDL
MODEL 9
REMARK VINA RESULT:      -6.1      3.259      4.972
REMARK  3 active torsions:
REMARK  status: ('A' for Active; 'I' for Inactive)
REMARK    1  A    between atoms: C_8  and  C_9 
REMARK       I    between atoms: C_12  and  N_13 
REMARK    2  A    between atoms: C_20  and  C_21 
REMARK       I    between atoms: C_21  and  N_23 
REMARK    3  A    between atoms: N_23  and  C_24 
ROOT
HETATM    1  C   UNK N   1      30.193  16.064   5.667  0.00  0.00     0.074 A 
HETATM    2  N   UNK N   1      28.846  16.292   5.531  0.00  0.00    -0.190 N 
ATOM      3  HN  UNK N   1      28.360  15.854   4.748  1.00  0.00     0.184 HD
HETATM    4  C   UNK N   1      28.119  17.075   6.386  0.00  0.00     0.677 A 
HETATM    5  N   UNK N   1      26.740  17.256   6.169  0.00  0.00    -0.234 N 
HETATM    6  N   UNK N   1      28.724  17.676   7.446  0.00  0.00    -0.185 N 
ATOM      7  HN  UNK N   1      28.193  18.268   8.085  1.00  0.00     0.185 HD
HETATM    8  C   UNK N   1      30.043  17.470   7.628  0.00  0.00     0.103 A 
HETATM    9  S   UNK N   1      31.011  18.064   8.834  0.00  0.00    -0.066 SA
HETATM   10  C   UNK N   1      30.815  16.677   6.783  0.00  0.00     0.028 A 
HETATM   11  C   UNK N   1      32.155  16.595   7.208  0.00  0.00     0.041 A 
HETATM   12  C   UNK N   1      32.432  17.342   8.357  0.00  0.00     0.075 A 
HETATM   13  H   UNK N   1      26.216  17.824   6.780  0.00  0.00     0.174 HD
HETATM   14  H   UNK N   1      26.300  16.815   5.407  0.00  0.00     0.174 HD
ENDROOT
BRANCH   1  15
HETATM   15  C   UNK N   1      30.840  15.162   4.618  0.00  0.00     0.014 A 
HETATM   16  C   UNK N   1      31.917  15.435   3.691  0.00  0.00     0.048 A 
HETATM   17 Cl   UNK N   1      32.779  16.936   3.440  0.00  0.00    -0.083 Cl
HETATM   18  C   UNK N   1      32.341  14.434   2.810  0.00  0.00     0.048 A 
HETATM   19  C   UNK N   1      31.753  13.180   2.792  0.00  0.00     0.035 A 
HETATM   20 Cl   UNK N   1      32.324  11.968   1.666  0.00  0.00    -0.084 Cl
HETATM   21  C   UNK N   1      30.707  12.899   3.655  0.00  0.00     0.025 A 
HETATM   22  C   UNK N   1      30.263  13.873   4.546  0.00  0.00     0.017 A 
ENDBRANCH   1  15
BRANCH  12  23
HETATM   23  C   UNK N   1      33.769  17.445   8.961  0.00  0.00     0.258 C 
HETATM   24  O   UNK N   1      34.553  18.280   8.530  0.00  0.00    -0.267 OA
HETATM   25  N   UNK N   1      34.129  16.641   9.988  0.00  0.00    -0.357 N 
HETATM   26  H   UNK N   1      33.492  15.972  10.328  0.00  0.00     0.162 HD
BRANCH  25  27
HETATM   27  C   UNK N   1      35.435  16.752  10.591  0.00  0.00     0.118 C 
HETATM   28  C   UNK N   1      35.828  15.432  11.216  0.00  0.00     0.026 C 
ENDBRANCH  25  27
ENDBRANCH  12  23
TORSDOF 3
ENDMDL
