MODEL 1
REMARK VINA RESULT:      -5.7      0.000      0.000
REMARK  3 active torsions:
REMARK  status: ('A' for Active; 'I' for Inactive)
REMARK    1  A    between atoms: O_1  and  C_2 
REMARK    2  A    between atoms: C_2  and  C_4 
REMARK    3  A    between atoms: N_8  and  C_10 
ROOT
HETATM    1  C   UNK N   1      34.396  17.082   9.007  0.00  0.00     0.072 A 
HETATM    2  C   UNK N   1      33.257  16.295   8.992  0.00  0.00     0.127 A 
HETATM    3  N   UNK N   1      33.394  15.359   9.955  0.00  0.00    -0.304 N 
ATOM      4  HN  UNK N   1      32.712  14.633  10.183  1.00  0.00     0.186 HD
HETATM    5  N   UNK N   1      34.562  15.541  10.552  0.00  0.00    -0.267 N 
HETATM    6  C   UNK N   1      35.204  16.585  10.001  0.00  0.00     0.136 A 
ENDROOT
BRANCH   5   7
HETATM    7  C   UNK N   1      35.068  14.741  11.630  0.00  0.00     0.056 A 
HETATM    8  C   UNK N   1      35.902  15.303  12.609  0.00  0.00     0.031 A 
HETATM    9  C   UNK N   1      36.388  14.510  13.655  0.00  0.00     0.002 A 
HETATM   10  C   UNK N   1      36.044  13.156  13.728  0.00  0.00     0.000 A 
HETATM   11  C   UNK N   1      35.215  12.592  12.757  0.00  0.00     0.002 A 
HETATM   12  C   UNK N   1      34.730  13.382  11.713  0.00  0.00     0.031 A 
ENDBRANCH   5   7
BRANCH   1  13
HETATM   13  C   UNK N   1      34.707  18.229   8.144  0.00  0.00     0.179 C 
HETATM   14  O   UNK N   1      35.278  19.204   8.607  0.00  0.00    -0.646 OA
BRANCH  13  15
HETATM   15  O   UNK N   1      34.368  18.211   6.842  0.00  0.00    -0.773 OA
HETATM   16  H   UNK N   1      34.350  19.010   6.351  0.00  0.00     0.167 HD
ENDBRANCH  13  15
ENDBRANCH   1  13
TORSDOF 3
ENDMDL
MODEL 2
REMARK VINA RESULT:      -5.7      2.845      3.954
REMARK  3 active torsions:
REMARK  status: ('A' for Active; 'I' for Inactive)
REMARK    1  A    between atoms: O_1  and  C_2 
REMARK    2  A    between atoms: C_2  and  C_4 
REMARK    3  A    between atoms: N_8  and  C_10 
ROOT
HETATM    1  C   UNK N   1      35.485  14.667  11.828  0.00  0.00     0.072 A 
HETATM    2  C   UNK N   1      34.755  13.657  11.224  0.00  0.00     0.127 A 
HETATM    3  N   UNK N   1      34.525  12.705  12.153  0.00  0.00    -0.304 N 
ATOM      4  HN  UNK N   1      34.011  11.837  12.004  1.00  0.00     0.186 HD
HETATM    5  N   UNK N   1      35.082  13.091  13.293  0.00  0.00    -0.267 N 
HETATM    6  C   UNK N   1      35.678  14.285  13.134  0.00  0.00     0.136 A 
ENDROOT
BRANCH   5   7
HETATM    7  C   UNK N   1      35.053  12.343  14.517  0.00  0.00     0.056 A 
HETATM    8  C   UNK N   1      35.514  12.911  15.714  0.00  0.00     0.031 A 
HETATM    9  C   UNK N   1      35.479  12.169  16.901  0.00  0.00     0.002 A 
HETATM   10  C   UNK N   1      34.986  10.860  16.896  0.00  0.00     0.000 A 
HETATM   11  C   UNK N   1      34.526  10.291  15.707  0.00  0.00     0.002 A 
HETATM   12  C   UNK N   1      34.560  11.029  14.524  0.00  0.00     0.031 A 
ENDBRANCH   5   7
BRANCH   1  13
HETATM   13  C   UNK N   1      35.971  15.912  11.219  0.00  0.00     0.179 C 
HETATM   14  O   UNK N   1      35.232  16.881  11.140  0.00  0.00    -0.646 OA
BRANCH  13  15
HETATM   15  O   UNK N   1      37.228  15.992  10.748  0.00  0.00    -0.773 OA
HETATM   16  H   UNK N   1      37.395  16.412   9.926  0.00  0.00     0.167 HD
ENDBRANCH  13  15
ENDBRANCH   1  13
TORSDOF 3
ENDMDL
MODEL 3
REMARK VINA RESULT:      -5.5      4.119      5.646
REMARK  3 active torsions:
REMARK  status: ('A' for Active; 'I' for Inactive)
REMARK    1  A    between atoms: O_1  and  C_2 
REMARK    2  A    between atoms: C_2  and  C_4 
REMARK    3  A    between atoms: N_8  and  C_10 
ROOT
HETATM    1  C   UNK N   1      35.374  13.868  13.006  0.00  0.00     0.072 A 
HETATM    2  C   UNK N   1      36.461  14.591  13.466  0.00  0.00     0.127 A 
HETATM    3  N   UNK N   1      36.662  14.250  14.757  0.00  0.00    -0.304 N 
ATOM      4  HN  UNK N   1      37.394  14.619  15.364  1.00  0.00     0.186 HD
HETATM    5  N   UNK N   1      35.748  13.353  15.099  0.00  0.00    -0.267 N 
HETATM    6  C   UNK N   1      34.942  13.094  14.056  0.00  0.00     0.136 A 
ENDROOT
BRANCH   5   7
HETATM    7  C   UNK N   1      35.635  12.748  16.395  0.00  0.00     0.056 A 
HETATM    8  C   UNK N   1      35.902  11.383  16.574  0.00  0.00     0.031 A 
HETATM    9  C   UNK N   1      35.788  10.806  17.845  0.00  0.00     0.002 A 
HETATM   10  C   UNK N   1      35.408  11.589  18.939  0.00  0.00     0.000 A 
HETATM   11  C   UNK N   1      35.142  12.949  18.767  0.00  0.00     0.002 A 
HETATM   12  C   UNK N   1      35.255  13.525  17.501  0.00  0.00     0.031 A 
ENDBRANCH   5   7
BRANCH   1  13
HETATM   13  C   UNK N   1      34.776  13.900  11.664  0.00  0.00     0.179 C 
HETATM   14  O   UNK N   1      35.185  13.144  10.796  0.00  0.00    -0.646 OA
BRANCH  13  15
HETATM   15  O   UNK N   1      33.779  14.758  11.384  0.00  0.00    -0.773 OA
HETATM   16  H   UNK N   1      33.019  14.461  10.923  0.00  0.00     0.167 HD
ENDBRANCH  13  15
ENDBRANCH   1  13
TORSDOF 3
ENDMDL
MODEL 4
REMARK VINA RESULT:      -5.5     12.908     15.098
REMARK  3 active torsions:
REMARK  status: ('A' for Active; 'I' for Inactive)
REMARK    1  A    between atoms: O_1  and  C_2 
REMARK    2  A    between atoms: C_2  and  C_4 
REMARK    3  A    between atoms: N_8  and  C_10 
ROOT
HETATM    1  C   UNK N   1      20.671  19.070   2.993  0.00  0.00     0.072 A 
HETATM    2  C   UNK N   1      20.786  20.366   2.519  0.00  0.00     0.127 A 
HETATM    3  N   UNK N   1      22.072  20.747   2.675  0.00  0.00    -0.304 N 
ATOM      4  HN  UNK N   1      22.462  21.654   2.416  1.00  0.00     0.186 HD
HETATM    5  N   UNK N   1      22.741  19.742   3.222  0.00  0.00    -0.267 N 
HETATM    6  C   UNK N   1      21.920  18.699   3.431  0.00  0.00     0.136 A 
ENDROOT
BRANCH   5   7
HETATM    7  C   UNK N   1      24.139  19.763   3.543  0.00  0.00     0.056 A 
HETATM    8  C   UNK N   1      25.035  20.537   2.790  0.00  0.00     0.031 A 
HETATM    9  C   UNK N   1      26.397  20.548   3.115  0.00  0.00     0.002 A 
HETATM   10  C   UNK N   1      26.868  19.789   4.191  0.00  0.00     0.000 A 
HETATM   11  C   UNK N   1      25.981  19.017   4.944  0.00  0.00     0.002 A 
HETATM   12  C   UNK N   1      24.623  19.005   4.621  0.00  0.00     0.031 A 
ENDBRANCH   5   7
BRANCH   1  13
HETATM   13  C   UNK N   1      19.466  18.232   3.033  0.00  0.00     0.179 C 
HETATM   14  O   UNK N   1      19.472  17.184   3.661  0.00  0.00    -0.646 OA
BRANCH  13  15
HETATM   15  O   UNK N   1      18.352  18.612   2.382  0.00  0.00    -0.773 OA
HETATM   16  H   UNK N   1      17.514  18.520   2.792  0.00  0.00     0.167 HD
ENDBRANCH  13  15
ENDBRANCH   1  13
TORSDOF 3
ENDMDL
MODEL 5
REMARK VINA RESULT:      -5.4      3.122      5.918
REMARK  3 active torsions:
REMARK  status: ('A' for Active; 'I' for Inactive)
REMARK    1  A    between atoms: O_1  and  C_2 
REMARK    2  A    between atoms: C_2  and  C_4 
REMARK    3  A    between atoms: N_8  and  C_10 
ROOT
HETATM    1  C   UNK N   1      34.986  15.266  11.193  0.00  0.00     0.072 A 
HETATM    2  C   UNK N   1      35.425  16.579  11.218  0.00  0.00     0.127 A 
HETATM    3  N   UNK N   1      34.900  17.206  10.145  0.00  0.00    -0.304 N 
ATOM      4  HN  UNK N   1      35.045  18.186   9.896  1.00  0.00     0.186 HD
HETATM    5  N   UNK N   1      34.164  16.335   9.470  0.00  0.00    -0.267 N 
HETATM    6  C   UNK N   1      34.192  15.138  10.079  0.00  0.00     0.136 A 
ENDROOT
BRANCH   5   7
HETATM    7  C   UNK N   1      33.442  16.627   8.265  0.00  0.00     0.056 A 
HETATM    8  C   UNK N   1      32.066  16.372   8.174  0.00  0.00     0.031 A 
HETATM    9  C   UNK N   1      31.375  16.662   6.991  0.00  0.00     0.002 A 
HETATM   10  C   UNK N   1      32.054  17.208   5.898  0.00  0.00     0.000 A 
HETATM   11  C   UNK N   1      33.424  17.465   5.983  0.00  0.00     0.002 A 
HETATM   12  C   UNK N   1      34.114  17.175   7.161  0.00  0.00     0.031 A 
ENDBRANCH   5   7
BRANCH   1  13
HETATM   13  C   UNK N   1      35.293  14.197  12.153  0.00  0.00     0.179 C 
HETATM   14  O   UNK N   1      36.404  14.129  12.656  0.00  0.00    -0.646 OA
BRANCH  13  15
HETATM   15  O   UNK N   1      34.356  13.290  12.482  0.00  0.00    -0.773 OA
HETATM   16  H   UNK N   1      34.160  12.583  11.897  0.00  0.00     0.167 HD
ENDBRANCH  13  15
ENDBRANCH   1  13
TORSDOF 3
ENDMDL
MODEL 6
REMARK VINA RESULT:      -5.4     13.231     14.532
REMARK  3 active torsions:
REMARK  status: ('A' for Active; 'I' for Inactive)
REMARK    1  A    between atoms: O_1  and  C_2 
REMARK    2  A    between atoms: C_2  and  C_4 
REMARK    3  A    between atoms: N_8  and  C_10 
ROOT
HETATM    1  C   UNK N   1      19.379  16.401   8.660  0.00  0.00     0.072 A 
HETATM    2  C   UNK N   1      20.394  16.647   7.752  0.00  0.00     0.127 A 
HETATM    3  N   UNK N   1      21.347  15.710   7.940  0.00  0.00    -0.304 N 
ATOM      4  HN  UNK N   1      22.220  15.633   7.416  1.00  0.00     0.186 HD
HETATM    5  N   UNK N   1      20.957  14.907   8.919  0.00  0.00    -0.267 N 
HETATM    6  C   UNK N   1      19.759  15.297   9.385  0.00  0.00     0.136 A 
ENDROOT
BRANCH   5   7
HETATM    7  C   UNK N   1      21.705  13.786   9.410  0.00  0.00     0.056 A 
HETATM    8  C   UNK N   1      22.948  13.453   8.852  0.00  0.00     0.031 A 
HETATM    9  C   UNK N   1      23.666  12.356   9.341  0.00  0.00     0.002 A 
HETATM   10  C   UNK N   1      23.148  11.588  10.388  0.00  0.00     0.000 A 
HETATM   11  C   UNK N   1      21.911  11.915  10.948  0.00  0.00     0.002 A 
HETATM   12  C   UNK N   1      21.194  13.008  10.461  0.00  0.00     0.031 A 
ENDBRANCH   5   7
BRANCH   1  13
HETATM   13  C   UNK N   1      18.130  17.153   8.838  0.00  0.00     0.179 C 
HETATM   14  O   UNK N   1      17.106  16.775   8.289  0.00  0.00    -0.646 OA
BRANCH  13  15
HETATM   15  O   UNK N   1      18.105  18.259   9.604  0.00  0.00    -0.773 OA
HETATM   16  H   UNK N   1      17.963  19.098   9.212  0.00  0.00     0.167 HD
ENDBRANCH  13  15
ENDBRANCH   1  13
TORSDOF 3
ENDMDL
MODEL 7
REMARK VINA RESULT:      -5.3     16.127     19.291
REMARK  3 active torsions:
REMARK  status: ('A' for Active; 'I' for Inactive)
REMARK    1  A    between atoms: O_1  and  C_2 
REMARK    2  A    between atoms: C_2  and  C_4 
REMARK    3  A    between atoms: N_8  and  C_10 
ROOT
HETATM    1  C   UNK N   1      29.517  23.188  -3.514  0.00  0.00     0.072 A 
HETATM    2  C   UNK N   1      29.453  22.807  -4.843  0.00  0.00     0.127 A 
HETATM    3  N   UNK N   1      28.524  23.579  -5.446  0.00  0.00    -0.304 N 
ATOM      4  HN  UNK N   1      28.255  23.530  -6.430  1.00  0.00     0.186 HD
HETATM    5  N   UNK N   1      28.023  24.410  -4.544  0.00  0.00    -0.267 N 
HETATM    6  C   UNK N   1      28.604  24.202  -3.351  0.00  0.00     0.136 A 
ENDROOT
BRANCH   5   7
HETATM    7  C   UNK N   1      27.007  25.390  -4.804  0.00  0.00     0.056 A 
HETATM    8  C   UNK N   1      26.650  26.328  -3.824  0.00  0.00     0.031 A 
HETATM    9  C   UNK N   1      25.657  27.279  -4.092  0.00  0.00     0.002 A 
HETATM   10  C   UNK N   1      25.019  27.295  -5.335  0.00  0.00     0.000 A 
HETATM   11  C   UNK N   1      25.371  26.363  -6.314  0.00  0.00     0.002 A 
HETATM   12  C   UNK N   1      26.360  25.416  -6.049  0.00  0.00     0.031 A 
ENDBRANCH   5   7
BRANCH   1  13
HETATM   13  C   UNK N   1      30.380  22.635  -2.461  0.00  0.00     0.179 C 
HETATM   14  O   UNK N   1      30.338  23.099  -1.332  0.00  0.00    -0.646 OA
BRANCH  13  15
HETATM   15  O   UNK N   1      31.220  21.620  -2.734  0.00  0.00    -0.773 OA
HETATM   16  H   UNK N   1      31.325  21.323  -3.617  0.00  0.00     0.167 HD
ENDBRANCH  13  15
ENDBRANCH   1  13
TORSDOF 3
ENDMDL
MODEL 8
REMARK VINA RESULT:      -5.3      6.149      7.544
REMARK  3 active torsions:
REMARK  status: ('A' for Active; 'I' for Inactive)
REMARK    1  A    between atoms: O_1  and  C_2 
REMARK    2  A    between atoms: C_2  and  C_4 
REMARK    3  A    between atoms: N_8  and  C_10 
ROOT
HETATM    1  C   UNK N   1      29.558  17.774   8.297  0.00  0.00     0.072 A 
HETATM    2  C   UNK N   1      30.782  17.936   8.923  0.00  0.00     0.127 A 
HETATM    3  N   UNK N   1      31.745  17.659   8.018  0.00  0.00    -0.304 N 
ATOM      4  HN  UNK N   1      32.751  17.692   8.187  1.00  0.00     0.186 HD
HETATM    5  N   UNK N   1      31.161  17.336   6.872  0.00  0.00    -0.267 N 
HETATM    6  C   UNK N   1      29.825  17.395   7.003  0.00  0.00     0.136 A 
ENDROOT
BRANCH   5   7
HETATM    7  C   UNK N   1      31.854  16.977   5.669  0.00  0.00     0.056 A 
HETATM    8  C   UNK N   1      32.920  16.066   5.701  0.00  0.00     0.031 A 
HETATM    9  C   UNK N   1      33.588  15.725   4.518  0.00  0.00     0.002 A 
HETATM   10  C   UNK N   1      33.193  16.292   3.302  0.00  0.00     0.000 A 
HETATM   11  C   UNK N   1      32.133  17.199   3.264  0.00  0.00     0.002 A 
HETATM   12  C   UNK N   1      31.467  17.540   4.442  0.00  0.00     0.031 A 
ENDBRANCH   5   7
BRANCH   1  13
HETATM   13  C   UNK N   1      28.221  17.962   8.875  0.00  0.00     0.179 C 
HETATM   14  O   UNK N   1      27.739  17.098   9.591  0.00  0.00    -0.646 OA
BRANCH  13  15
HETATM   15  O   UNK N   1      27.522  19.083   8.620  0.00  0.00    -0.773 OA
HETATM   16  H   UNK N   1      27.155  19.223   7.768  0.00  0.00     0.167 HD
ENDBRANCH  13  15
ENDBRANCH   1  13
TORSDOF 3
ENDMDL
MODEL 9
REMARK VINA RESULT:      -5.2     12.240     14.223
REMARK  3 active torsions:
REMARK  status: ('A' for Active; 'I' for Inactive)
REMARK    1  A    between atoms: O_1  and  C_2 
REMARK    2  A    between atoms: C_2  and  C_4 
REMARK    3  A    between atoms: N_8  and  C_10 
ROOT
HETATM    1  C   UNK N   1      43.209  22.039   3.537  0.00  0.00     0.072 A 
HETATM    2  C   UNK N   1      42.536  20.853   3.299  0.00  0.00     0.127 A 
HETATM    3  N   UNK N   1      41.647  21.078   2.309  0.00  0.00    -0.304 N 
ATOM      4  HN  UNK N   1      41.006  20.388   1.915  1.00  0.00     0.186 HD
HETATM    5  N   UNK N   1      41.750  22.345   1.935  0.00  0.00    -0.267 N 
HETATM    6  C   UNK N   1      42.694  22.965   2.663  0.00  0.00     0.136 A 
ENDROOT
BRANCH   5   7
HETATM    7  C   UNK N   1      40.968  22.964   0.904  0.00  0.00     0.056 A 
HETATM    8  C   UNK N   1      40.209  22.187   0.016  0.00  0.00     0.031 A 
HETATM    9  C   UNK N   1      39.451  22.806  -0.985  0.00  0.00     0.002 A 
HETATM   10  C   UNK N   1      39.447  24.199  -1.103  0.00  0.00     0.000 A 
HETATM   11  C   UNK N   1      40.201  24.977  -0.222  0.00  0.00     0.002 A 
HETATM   12  C   UNK N   1      40.957  24.362   0.776  0.00  0.00     0.031 A 
ENDBRANCH   5   7
BRANCH   1  13
HETATM   13  C   UNK N   1      44.269  22.289   4.523  0.00  0.00     0.179 C 
HETATM   14  O   UNK N   1      43.979  22.668   5.648  0.00  0.00    -0.646 OA
BRANCH  13  15
HETATM   15  O   UNK N   1      45.560  22.103   4.195  0.00  0.00    -0.773 OA
HETATM   16  H   UNK N   1      45.788  21.818   3.331  0.00  0.00     0.167 HD
ENDBRANCH  13  15
ENDBRANCH   1  13
TORSDOF 3
ENDMDL
