REMARK  3 active torsions:
REMARK  status: ('A' for Active; 'I' for Inactive)
REMARK    1  A    between atoms: O_1  and  C_2 
REMARK    2  A    between atoms: C_2  and  C_4 
REMARK    3  A    between atoms: N_8  and  C_10 
ROOT
HETATM    1  C   UNK N   1       3.576  10.595  -0.000  0.00  0.00     0.072 A 
HETATM    2  C   UNK N   1       4.675   9.753  -0.000  0.00  0.00     0.127 A 
HETATM    3  N   UNK N   1       4.218   8.483  -0.000  0.00  0.00    -0.304 N 
ATOM      4  HN  UNK N   1       4.795   7.641  -0.000  1.00  0.00     0.186 HD
HETATM    5  N   UNK N   1       2.893   8.516  -0.000  0.00  0.00    -0.267 N 
HETATM    6  C   UNK N   1       2.463   9.789  -0.000  0.00  0.00     0.136 A 
ENDROOT
BRANCH   5   7
HETATM    7  C   UNK N   1       2.042   7.361  -0.000  0.00  0.00     0.056 A 
HETATM    8  C   UNK N   1       2.588   6.069   0.000  0.00  0.00     0.031 A 
HETATM    9  C   UNK N   1       1.745   4.951   0.000  0.00  0.00     0.002 A 
HETATM   10  C   UNK N   1       0.357   5.119   0.000  0.00  0.00     0.000 A 
HETATM   11  C   UNK N   1      -0.192   6.403  -0.000  0.00  0.00     0.002 A 
HETATM   12  C   UNK N   1       0.647   7.518  -0.000  0.00  0.00     0.031 A 
ENDBRANCH   5   7
BRANCH   1  13
HETATM   13  C   UNK N   1       3.569  12.064   0.000  0.00  0.00     0.179 C 
HETATM   14  O   UNK N   1       2.508  12.669  -0.000  0.00  0.00    -0.646 OA
BRANCH  13  15
HETATM   15  O   UNK N   1       4.727  12.749   0.000  0.00  0.00    -0.773 OA
HETATM   16  H   UNK N   1       5.544  12.289   0.000  0.00  0.00     0.167 HD
ENDBRANCH  13  15
ENDBRANCH   1  13
TORSDOF 3
