MODEL 1
REMARK VINA RESULT:      -7.4      0.000      0.000
REMARK  4 active torsions:
REMARK  status: ('A' for Active; 'I' for Inactive)
REMARK       I    between atoms: C_2  and  N_3 
REMARK    1  A    between atoms: C_2  and  C_4 
REMARK    2  A    between atoms: N_13  and  S_14 
REMARK    3  A    between atoms: S_14  and  C_17 
REMARK    4  A    between atoms: C_18  and  N_19 
ROOT
HETATM    1  C   UNK N   1      19.680  16.096   8.729  0.00  0.00     0.049 A 
HETATM    2  C   UNK N   1      20.502  16.482   7.660  0.00  0.00     0.051 A 
HETATM    3  C   UNK N   1      21.611  15.696   7.369  0.00  0.00     0.077 A 
HETATM    4  C   UNK N   1      20.021  14.935   9.472  0.00  0.00     0.105 A 
HETATM    5  N   UNK N   1      21.129  14.196   9.142  0.00  0.00    -0.363 N 
ATOM      6  HN  UNK N   1      21.372  13.362   9.677  1.00  0.00     0.165 HD
HETATM    7  C   UNK N   1      21.895  14.590   8.094  0.00  0.00     0.061 A 
HETATM    8  C   UNK N   1      23.043  14.019   7.582  0.00  0.00     0.050 A 
HETATM    9  C   UNK N   1      23.420  14.855   6.517  0.00  0.00     0.112 A 
HETATM   10  N   UNK N   1      22.531  15.872   6.401  0.00  0.00    -0.245 N 
ENDROOT
BRANCH  10  11
HETATM   11  S   UNK N   1      22.640  17.239   5.254  0.00  0.00     0.271 S 
HETATM   12  O   UNK N   1      24.129  16.866   5.265  0.00  0.00    -0.200 OA
HETATM   13  O   UNK N   1      22.229  16.370   4.060  0.00  0.00    -0.200 OA
BRANCH  11  14
HETATM   14  C   UNK N   1      23.330  18.564   4.199  0.00  0.00     0.113 A 
HETATM   15  C   UNK N   1      22.597  19.569   3.434  0.00  0.00     0.126 A 
HETATM   16  C   UNK N   1      23.348  20.553   2.761  0.00  0.00     0.038 A 
HETATM   17  C   UNK N   1      24.736  20.584   2.806  0.00  0.00     0.003 A 
HETATM   18  C   UNK N   1      25.426  19.622   3.529  0.00  0.00     0.002 A 
HETATM   19  C   UNK N   1      24.730  18.633   4.218  0.00  0.00     0.028 A 
BRANCH  15  20
HETATM   20  N   UNK N   1      21.160  19.660   3.298  0.00  0.00    -0.114 N 
HETATM   21  O   UNK N   1      20.476  18.921   2.459  0.00  0.00    -0.532 OA
HETATM   22  O   UNK N   1      20.567  20.486   3.927  0.00  0.00    -0.532 OA
ENDBRANCH  15  20
ENDBRANCH  11  14
ENDBRANCH  10  11
BRANCH   1  23
HETATM   23  C   UNK N   1      18.476  16.891   9.056  0.00  0.00     0.250 C 
HETATM   24  O   UNK N   1      17.370  16.380   9.007  0.00  0.00    -0.268 OA
HETATM   25  N   UNK N   1      18.592  18.192   9.398  0.00  0.00    -0.366 N 
HETATM   26  H   UNK N   1      19.481  18.610   9.456  0.00  0.00     0.159 HD
HETATM   27  H   UNK N   1      17.785  18.722   9.591  0.00  0.00     0.159 HD
ENDBRANCH   1  23
TORSDOF 4
ENDMDL
MODEL 2
REMARK VINA RESULT:      -7.2     13.458     15.573
REMARK  4 active torsions:
REMARK  status: ('A' for Active; 'I' for Inactive)
REMARK       I    between atoms: C_2  and  N_3 
REMARK    1  A    between atoms: C_2  and  C_4 
REMARK    2  A    between atoms: N_13  and  S_14 
REMARK    3  A    between atoms: S_14  and  C_17 
REMARK    4  A    between atoms: C_18  and  N_19 
ROOT
HETATM    1  C   UNK N   1      27.645  28.825  -3.134  0.00  0.00     0.049 A 
HETATM    2  C   UNK N   1      27.996  27.579  -3.674  0.00  0.00     0.051 A 
HETATM    3  C   UNK N   1      27.071  26.933  -4.486  0.00  0.00     0.077 A 
HETATM    4  C   UNK N   1      26.364  29.363  -3.426  0.00  0.00     0.105 A 
HETATM    5  N   UNK N   1      25.489  28.682  -4.232  0.00  0.00    -0.363 N 
ATOM      6  HN  UNK N   1      24.569  29.070  -4.441  1.00  0.00     0.165 HD
HETATM    7  C   UNK N   1      25.865  27.485  -4.749  0.00  0.00     0.061 A 
HETATM    8  C   UNK N   1      25.165  26.625  -5.572  0.00  0.00     0.050 A 
HETATM    9  C   UNK N   1      26.027  25.535  -5.774  0.00  0.00     0.112 A 
HETATM   10  N   UNK N   1      27.188  25.742  -5.105  0.00  0.00    -0.245 N 
ENDROOT
BRANCH  10  11
HETATM   11  S   UNK N   1      28.553  24.594  -4.983  0.00  0.00     0.271 S 
HETATM   12  O   UNK N   1      27.425  23.557  -5.083  0.00  0.00    -0.200 OA
HETATM   13  O   UNK N   1      28.866  24.689  -6.480  0.00  0.00    -0.200 OA
BRANCH  11  14
HETATM   14  C   UNK N   1      29.497  23.044  -4.765  0.00  0.00     0.113 A 
HETATM   15  C   UNK N   1      29.821  22.363  -3.515  0.00  0.00     0.126 A 
HETATM   16  C   UNK N   1      30.487  21.125  -3.598  0.00  0.00     0.038 A 
HETATM   17  C   UNK N   1      30.835  20.553  -4.815  0.00  0.00     0.003 A 
HETATM   18  C   UNK N   1      30.530  21.207  -6.000  0.00  0.00     0.002 A 
HETATM   19  C   UNK N   1      29.866  22.430  -5.971  0.00  0.00     0.028 A 
BRANCH  15  20
HETATM   20  N   UNK N   1      29.523  22.838  -2.181  0.00  0.00    -0.114 N 
HETATM   21  O   UNK N   1      28.300  23.005  -1.741  0.00  0.00    -0.532 OA
HETATM   22  O   UNK N   1      30.424  23.152  -1.460  0.00  0.00    -0.532 OA
ENDBRANCH  15  20
ENDBRANCH  11  14
ENDBRANCH  10  11
BRANCH   1  23
HETATM   23  C   UNK N   1      28.611  29.557  -2.285  0.00  0.00     0.250 C 
HETATM   24  O   UNK N   1      29.786  29.228  -2.267  0.00  0.00    -0.268 OA
HETATM   25  N   UNK N   1      28.198  30.586  -1.515  0.00  0.00    -0.366 N 
HETATM   26  H   UNK N   1      27.256  30.870  -1.534  0.00  0.00     0.159 HD
HETATM   27  H   UNK N   1      28.842  31.053  -0.934  0.00  0.00     0.159 HD
ENDBRANCH   1  23
TORSDOF 4
ENDMDL
MODEL 3
REMARK VINA RESULT:      -7.0      7.956     10.552
REMARK  4 active torsions:
REMARK  status: ('A' for Active; 'I' for Inactive)
REMARK       I    between atoms: C_2  and  N_3 
REMARK    1  A    between atoms: C_2  and  C_4 
REMARK    2  A    between atoms: N_13  and  S_14 
REMARK    3  A    between atoms: S_14  and  C_17 
REMARK    4  A    between atoms: C_18  and  N_19 
ROOT
HETATM    1  C   UNK N   1      34.124  16.828   7.518  0.00  0.00     0.049 A 
HETATM    2  C   UNK N   1      32.780  16.874   7.119  0.00  0.00     0.051 A 
HETATM    3  C   UNK N   1      32.354  15.979   6.144  0.00  0.00     0.077 A 
HETATM    4  C   UNK N   1      34.989  15.886   6.903  0.00  0.00     0.105 A 
HETATM    5  N   UNK N   1      34.518  15.026   5.944  0.00  0.00    -0.363 N 
ATOM      6  HN  UNK N   1      35.141  14.350   5.503  1.00  0.00     0.165 HD
HETATM    7  C   UNK N   1      33.208  15.088   5.591  0.00  0.00     0.061 A 
HETATM    8  C   UNK N   1      32.513  14.340   4.662  0.00  0.00     0.050 A 
HETATM    9  C   UNK N   1      31.203  14.845   4.697  0.00  0.00     0.112 A 
HETATM   10  N   UNK N   1      31.124  15.844   5.611  0.00  0.00    -0.245 N 
ENDROOT
BRANCH  10  11
HETATM   11  S   UNK N   1      29.688  16.853   5.947  0.00  0.00     0.271 S 
HETATM   12  O   UNK N   1      30.409  17.833   5.009  0.00  0.00    -0.200 OA
HETATM   13  O   UNK N   1      28.845  16.145   4.880  0.00  0.00    -0.200 OA
BRANCH  11  14
HETATM   14  C   UNK N   1      28.569  18.297   6.037  0.00  0.00     0.113 A 
HETATM   15  C   UNK N   1      28.103  18.991   7.234  0.00  0.00     0.126 A 
HETATM   16  C   UNK N   1      27.311  20.142   7.054  0.00  0.00     0.038 A 
HETATM   17  C   UNK N   1      26.971  20.617   5.794  0.00  0.00     0.003 A 
HETATM   18  C   UNK N   1      27.411  19.948   4.661  0.00  0.00     0.002 A 
HETATM   19  C   UNK N   1      28.202  18.810   4.786  0.00  0.00     0.028 A 
BRANCH  15  20
HETATM   20  N   UNK N   1      28.376  18.614   8.604  0.00  0.00    -0.114 N 
HETATM   21  O   UNK N   1      27.569  17.862   9.310  0.00  0.00    -0.532 OA
HETATM   22  O   UNK N   1      29.349  19.052   9.145  0.00  0.00    -0.532 OA
ENDBRANCH  15  20
ENDBRANCH  11  14
ENDBRANCH  10  11
BRANCH   1  23
HETATM   23  C   UNK N   1      34.610  17.747   8.570  0.00  0.00     0.250 C 
HETATM   24  O   UNK N   1      34.956  18.881   8.284  0.00  0.00    -0.268 OA
HETATM   25  N   UNK N   1      34.687  17.333   9.853  0.00  0.00    -0.366 N 
HETATM   26  H   UNK N   1      34.395  16.425  10.097  0.00  0.00     0.159 HD
HETATM   27  H   UNK N   1      35.034  17.942  10.545  0.00  0.00     0.159 HD
ENDBRANCH   1  23
TORSDOF 4
ENDMDL
MODEL 4
REMARK VINA RESULT:      -6.9      9.951     12.288
REMARK  4 active torsions:
REMARK  status: ('A' for Active; 'I' for Inactive)
REMARK       I    between atoms: C_2  and  N_3 
REMARK    1  A    between atoms: C_2  and  C_4 
REMARK    2  A    between atoms: N_13  and  S_14 
REMARK    3  A    between atoms: S_14  and  C_17 
REMARK    4  A    between atoms: C_18  and  N_19 
ROOT
HETATM    1  C   UNK N   1      29.433  17.909   7.642  0.00  0.00     0.049 A 
HETATM    2  C   UNK N   1      30.750  17.435   7.550  0.00  0.00     0.051 A 
HETATM    3  C   UNK N   1      31.272  17.193   6.285  0.00  0.00     0.077 A 
HETATM    4  C   UNK N   1      28.690  18.106   6.448  0.00  0.00     0.105 A 
HETATM    5  N   UNK N   1      29.254  17.849   5.225  0.00  0.00    -0.363 N 
ATOM      6  HN  UNK N   1      28.720  17.991   4.368  1.00  0.00     0.165 HD
HETATM    7  C   UNK N   1      30.536  17.404   5.171  0.00  0.00     0.061 A 
HETATM    8  C   UNK N   1      31.307  17.079   4.073  0.00  0.00     0.050 A 
HETATM    9  C   UNK N   1      32.537  16.659   4.605  0.00  0.00     0.112 A 
HETATM   10  N   UNK N   1      32.498  16.739   5.959  0.00  0.00    -0.245 N 
ENDROOT
BRANCH  10  11
HETATM   11  S   UNK N   1      33.791  16.226   7.081  0.00  0.00     0.271 S 
HETATM   12  O   UNK N   1      34.240  15.402   5.865  0.00  0.00    -0.200 OA
HETATM   13  O   UNK N   1      34.638  17.472   6.798  0.00  0.00    -0.200 OA
BRANCH  11  14
HETATM   14  C   UNK N   1      35.193  15.296   7.800  0.00  0.00     0.113 A 
HETATM   15  C   UNK N   1      35.592  15.225   9.203  0.00  0.00     0.126 A 
HETATM   16  C   UNK N   1      36.658  14.368   9.535  0.00  0.00     0.038 A 
HETATM   17  C   UNK N   1      37.323  13.609   8.581  0.00  0.00     0.003 A 
HETATM   18  C   UNK N   1      36.943  13.686   7.249  0.00  0.00     0.002 A 
HETATM   19  C   UNK N   1      35.890  14.513   6.870  0.00  0.00     0.028 A 
BRANCH  15  20
HETATM   20  N   UNK N   1      34.994  15.955  10.300  0.00  0.00    -0.114 N 
HETATM   21  O   UNK N   1      35.139  17.247  10.458  0.00  0.00    -0.532 OA
HETATM   22  O   UNK N   1      34.391  15.353  11.139  0.00  0.00    -0.532 OA
ENDBRANCH  15  20
ENDBRANCH  11  14
ENDBRANCH  10  11
BRANCH   1  23
HETATM   23  C   UNK N   1      28.848  18.203   8.969  0.00  0.00     0.250 C 
HETATM   24  O   UNK N   1      29.557  18.228   9.961  0.00  0.00    -0.268 OA
HETATM   25  N   UNK N   1      27.524  18.434   9.093  0.00  0.00    -0.366 N 
HETATM   26  H   UNK N   1      26.945  18.432   8.297  0.00  0.00     0.159 HD
HETATM   27  H   UNK N   1      27.137  18.606   9.982  0.00  0.00     0.159 HD
ENDBRANCH   1  23
TORSDOF 4
ENDMDL
MODEL 5
REMARK VINA RESULT:      -6.8     13.874     15.732
REMARK  4 active torsions:
REMARK  status: ('A' for Active; 'I' for Inactive)
REMARK       I    between atoms: C_2  and  N_3 
REMARK    1  A    between atoms: C_2  and  C_4 
REMARK    2  A    between atoms: N_13  and  S_14 
REMARK    3  A    between atoms: S_14  and  C_17 
REMARK    4  A    between atoms: C_18  and  N_19 
ROOT
HETATM    1  C   UNK N   1      30.144  20.824  -6.362  0.00  0.00     0.049 A 
HETATM    2  C   UNK N   1      29.017  21.658  -6.329  0.00  0.00     0.051 A 
HETATM    3  C   UNK N   1      28.247  21.766  -7.482  0.00  0.00     0.077 A 
HETATM    4  C   UNK N   1      30.457  20.141  -7.566  0.00  0.00     0.105 A 
HETATM    5  N   UNK N   1      29.664  20.284  -8.676  0.00  0.00    -0.363 N 
ATOM      6  HN  UNK N   1      29.889  19.792  -9.541  1.00  0.00     0.165 HD
HETATM    7  C   UNK N   1      28.573  21.089  -8.606  0.00  0.00     0.061 A 
HETATM    8  C   UNK N   1      27.639  21.389  -9.578  0.00  0.00     0.050 A 
HETATM    9  C   UNK N   1      26.750  22.284  -8.963  0.00  0.00     0.112 A 
HETATM   10  N   UNK N   1      27.135  22.500  -7.681  0.00  0.00    -0.245 N 
ENDROOT
BRANCH  10  11
HETATM   11  S   UNK N   1      26.373  23.634  -6.527  0.00  0.00     0.271 S 
HETATM   12  O   UNK N   1      27.426  24.598  -7.093  0.00  0.00    -0.200 OA
HETATM   13  O   UNK N   1      25.243  23.985  -7.501  0.00  0.00    -0.200 OA
BRANCH  11  14
HETATM   14  C   UNK N   1      26.083  25.105  -5.481  0.00  0.00     0.113 A 
HETATM   15  C   UNK N   1      26.629  25.378  -4.154  0.00  0.00     0.126 A 
HETATM   16  C   UNK N   1      26.337  26.627  -3.572  0.00  0.00     0.038 A 
HETATM   17  C   UNK N   1      25.557  27.579  -4.217  0.00  0.00     0.003 A 
HETATM   18  C   UNK N   1      25.036  27.311  -5.475  0.00  0.00     0.002 A 
HETATM   19  C   UNK N   1      25.302  26.093  -6.095  0.00  0.00     0.028 A 
BRANCH  15  20
HETATM   20  N   UNK N   1      27.452  24.486  -3.367  0.00  0.00    -0.114 N 
HETATM   21  O   UNK N   1      27.016  23.879  -2.291  0.00  0.00    -0.532 OA
HETATM   22  O   UNK N   1      28.600  24.336  -3.667  0.00  0.00    -0.532 OA
ENDBRANCH  15  20
ENDBRANCH  11  14
ENDBRANCH  10  11
BRANCH   1  23
HETATM   23  C   UNK N   1      30.975  20.663  -5.149  0.00  0.00     0.250 C 
HETATM   24  O   UNK N   1      32.100  20.198  -5.232  0.00  0.00    -0.268 OA
HETATM   25  N   UNK N   1      30.492  21.018  -3.940  0.00  0.00    -0.366 N 
HETATM   26  H   UNK N   1      29.591  21.409  -3.863  0.00  0.00     0.159 HD
HETATM   27  H   UNK N   1      31.041  20.886  -3.133  0.00  0.00     0.159 HD
ENDBRANCH   1  23
TORSDOF 4
ENDMDL
MODEL 6
REMARK VINA RESULT:      -6.7     12.425     14.343
REMARK  4 active torsions:
REMARK  status: ('A' for Active; 'I' for Inactive)
REMARK       I    between atoms: C_2  and  N_3 
REMARK    1  A    between atoms: C_2  and  C_4 
REMARK    2  A    between atoms: N_13  and  S_14 
REMARK    3  A    between atoms: S_14  and  C_17 
REMARK    4  A    between atoms: C_18  and  N_19 
ROOT
HETATM    1  C   UNK N   1      36.173  13.205  11.087  0.00  0.00     0.049 A 
HETATM    2  C   UNK N   1      35.829  13.643   9.800  0.00  0.00     0.051 A 
HETATM    3  C   UNK N   1      36.821  13.658   8.825  0.00  0.00     0.077 A 
HETATM    4  C   UNK N   1      37.514  12.813  11.342  0.00  0.00     0.105 A 
HETATM    5  N   UNK N   1      38.454  12.849  10.344  0.00  0.00    -0.363 N 
ATOM      6  HN  UNK N   1      39.416  12.567  10.529  1.00  0.00     0.165 HD
HETATM    7  C   UNK N   1      38.084  13.266   9.106  0.00  0.00     0.061 A 
HETATM    8  C   UNK N   1      38.842  13.390   7.959  0.00  0.00     0.050 A 
HETATM    9  C   UNK N   1      37.953  13.882   6.989  0.00  0.00     0.112 A 
HETATM   10  N   UNK N   1      36.722  14.037   7.536  0.00  0.00    -0.245 N 
ENDROOT
BRANCH  10  11
HETATM   11  S   UNK N   1      35.286  14.723   6.722  0.00  0.00     0.271 S 
HETATM   12  O   UNK N   1      36.328  15.125   5.667  0.00  0.00    -0.200 OA
HETATM   13  O   UNK N   1      34.895  13.374   6.107  0.00  0.00    -0.200 OA
BRANCH  11  14
HETATM   14  C   UNK N   1      34.245  15.682   5.564  0.00  0.00     0.113 A 
HETATM   15  C   UNK N   1      33.643  16.995   5.783  0.00  0.00     0.126 A 
HETATM   16  C   UNK N   1      32.950  17.583   4.707  0.00  0.00     0.038 A 
HETATM   17  C   UNK N   1      32.828  16.955   3.474  0.00  0.00     0.003 A 
HETATM   18  C   UNK N   1      33.397  15.705   3.275  0.00  0.00     0.002 A 
HETATM   19  C   UNK N   1      34.098  15.085   4.305  0.00  0.00     0.028 A 
BRANCH  15  20
HETATM   20  N   UNK N   1      33.688  17.763   7.008  0.00  0.00    -0.114 N 
HETATM   21  O   UNK N   1      32.652  17.908   7.796  0.00  0.00    -0.532 OA
HETATM   22  O   UNK N   1      34.692  18.347   7.292  0.00  0.00    -0.532 OA
ENDBRANCH  15  20
ENDBRANCH  11  14
ENDBRANCH  10  11
BRANCH   1  23
HETATM   23  C   UNK N   1      35.141  13.149  12.145  0.00  0.00     0.250 C 
HETATM   24  O   UNK N   1      34.878  14.145  12.800  0.00  0.00    -0.268 OA
HETATM   25  N   UNK N   1      34.492  11.995  12.403  0.00  0.00    -0.366 N 
HETATM   26  H   UNK N   1      34.684  11.190  11.870  0.00  0.00     0.159 HD
HETATM   27  H   UNK N   1      33.823  11.958  13.125  0.00  0.00     0.159 HD
ENDBRANCH   1  23
TORSDOF 4
ENDMDL
MODEL 7
REMARK VINA RESULT:      -6.6     14.189     15.427
REMARK  4 active torsions:
REMARK  status: ('A' for Active; 'I' for Inactive)
REMARK       I    between atoms: C_2  and  N_3 
REMARK    1  A    between atoms: C_2  and  C_4 
REMARK    2  A    between atoms: N_13  and  S_14 
REMARK    3  A    between atoms: S_14  and  C_17 
REMARK    4  A    between atoms: C_18  and  N_19 
ROOT
HETATM    1  C   UNK N   1      30.517  20.441  -6.115  0.00  0.00     0.049 A 
HETATM    2  C   UNK N   1      29.804  21.608  -5.805  0.00  0.00     0.051 A 
HETATM    3  C   UNK N   1      30.030  22.208  -4.572  0.00  0.00     0.077 A 
HETATM    4  C   UNK N   1      31.424  19.918  -5.156  0.00  0.00     0.105 A 
HETATM    5  N   UNK N   1      31.609  20.549  -3.953  0.00  0.00    -0.363 N 
ATOM      6  HN  UNK N   1      32.261  20.171  -3.265  1.00  0.00     0.165 HD
HETATM    7  C   UNK N   1      30.912  21.684  -3.690  0.00  0.00     0.061 A 
HETATM    8  C   UNK N   1      30.926  22.482  -2.564  0.00  0.00     0.050 A 
HETATM    9  C   UNK N   1      29.999  23.502  -2.832  0.00  0.00     0.112 A 
HETATM   10  N   UNK N   1      29.464  23.320  -4.065  0.00  0.00    -0.245 N 
ENDROOT
BRANCH  10  11
HETATM   11  S   UNK N   1      28.173  24.307  -4.810  0.00  0.00     0.271 S 
HETATM   12  O   UNK N   1      28.507  25.254  -3.648  0.00  0.00    -0.200 OA
HETATM   13  O   UNK N   1      29.129  24.917  -5.841  0.00  0.00    -0.200 OA
BRANCH  11  14
HETATM   14  C   UNK N   1      26.904  25.601  -5.051  0.00  0.00     0.113 A 
HETATM   15  C   UNK N   1      25.986  25.753  -6.176  0.00  0.00     0.126 A 
HETATM   16  C   UNK N   1      25.027  26.782  -6.102  0.00  0.00     0.038 A 
HETATM   17  C   UNK N   1      24.938  27.634  -5.009  0.00  0.00     0.003 A 
HETATM   18  C   UNK N   1      25.817  27.488  -3.945  0.00  0.00     0.002 A 
HETATM   19  C   UNK N   1      26.779  26.482  -3.968  0.00  0.00     0.028 A 
BRANCH  15  20
HETATM   20  N   UNK N   1      25.962  24.944  -7.375  0.00  0.00    -0.114 N 
HETATM   21  O   UNK N   1      25.226  23.866  -7.492  0.00  0.00    -0.532 OA
HETATM   22  O   UNK N   1      26.687  25.227  -8.283  0.00  0.00    -0.532 OA
ENDBRANCH  15  20
ENDBRANCH  11  14
ENDBRANCH  10  11
BRANCH   1  23
HETATM   23  C   UNK N   1      30.324  19.787  -7.428  0.00  0.00     0.250 C 
HETATM   24  O   UNK N   1      31.069  20.044  -8.359  0.00  0.00    -0.268 OA
HETATM   25  N   UNK N   1      29.314  18.910  -7.609  0.00  0.00    -0.366 N 
HETATM   26  H   UNK N   1      28.716  18.683  -6.860  0.00  0.00     0.159 HD
HETATM   27  H   UNK N   1      29.176  18.496  -8.491  0.00  0.00     0.159 HD
ENDBRANCH   1  23
TORSDOF 4
ENDMDL
MODEL 8
REMARK VINA RESULT:      -6.6      2.172      7.144
REMARK  4 active torsions:
REMARK  status: ('A' for Active; 'I' for Inactive)
REMARK       I    between atoms: C_2  and  N_3 
REMARK    1  A    between atoms: C_2  and  C_4 
REMARK    2  A    between atoms: N_13  and  S_14 
REMARK    3  A    between atoms: S_14  and  C_17 
REMARK    4  A    between atoms: C_18  and  N_19 
ROOT
HETATM    1  C   UNK N   1      24.157  19.889   3.743  0.00  0.00     0.049 A 
HETATM    2  C   UNK N   1      23.521  18.867   4.463  0.00  0.00     0.051 A 
HETATM    3  C   UNK N   1      22.211  18.545   4.126  0.00  0.00     0.077 A 
HETATM    4  C   UNK N   1      23.437  20.555   2.717  0.00  0.00     0.105 A 
HETATM    5  N   UNK N   1      22.146  20.198   2.426  0.00  0.00    -0.363 N 
ATOM      6  HN  UNK N   1      21.630  20.677   1.688  1.00  0.00     0.165 HD
HETATM    7  C   UNK N   1      21.564  19.196   3.134  0.00  0.00     0.061 A 
HETATM    8  C   UNK N   1      20.292  18.670   3.027  0.00  0.00     0.050 A 
HETATM    9  C   UNK N   1      20.227  17.675   4.017  0.00  0.00     0.112 A 
HETATM   10  N   UNK N   1      21.411  17.612   4.676  0.00  0.00    -0.245 N 
ENDROOT
BRANCH  10  11
HETATM   11  S   UNK N   1      21.780  16.566   6.079  0.00  0.00     0.271 S 
HETATM   12  O   UNK N   1      20.370  16.029   5.791  0.00  0.00    -0.200 OA
HETATM   13  O   UNK N   1      22.553  15.558   5.221  0.00  0.00    -0.200 OA
BRANCH  11  14
HETATM   14  C   UNK N   1      21.572  15.398   7.470  0.00  0.00     0.113 A 
HETATM   15  C   UNK N   1      20.615  15.481   8.570  0.00  0.00     0.126 A 
HETATM   16  C   UNK N   1      20.578  14.410   9.485  0.00  0.00     0.038 A 
HETATM   17  C   UNK N   1      21.413  13.307   9.367  0.00  0.00     0.003 A 
HETATM   18  C   UNK N   1      22.324  13.237   8.323  0.00  0.00     0.002 A 
HETATM   19  C   UNK N   1      22.395  14.266   7.388  0.00  0.00     0.028 A 
BRANCH  15  20
HETATM   20  N   UNK N   1      19.689  16.564   8.818  0.00  0.00    -0.114 N 
HETATM   21  O   UNK N   1      20.077  17.775   9.131  0.00  0.00    -0.532 OA
HETATM   22  O   UNK N   1      18.514  16.340   8.801  0.00  0.00    -0.532 OA
ENDBRANCH  15  20
ENDBRANCH  11  14
ENDBRANCH  10  11
BRANCH   1  23
HETATM   23  C   UNK N   1      25.559  20.245   4.054  0.00  0.00     0.250 C 
HETATM   24  O   UNK N   1      26.318  20.590   3.163  0.00  0.00    -0.268 OA
HETATM   25  N   UNK N   1      26.013  20.178   5.323  0.00  0.00    -0.366 N 
HETATM   26  H   UNK N   1      25.405  19.916   6.052  0.00  0.00     0.159 HD
HETATM   27  H   UNK N   1      26.954  20.393   5.520  0.00  0.00     0.159 HD
ENDBRANCH   1  23
TORSDOF 4
ENDMDL
MODEL 9
REMARK VINA RESULT:      -6.4     14.404     16.982
REMARK  4 active torsions:
REMARK  status: ('A' for Active; 'I' for Inactive)
REMARK       I    between atoms: C_2  and  N_3 
REMARK    1  A    between atoms: C_2  and  C_4 
REMARK    2  A    between atoms: N_13  and  S_14 
REMARK    3  A    between atoms: S_14  and  C_17 
REMARK    4  A    between atoms: C_18  and  N_19 
ROOT
HETATM    1  C   UNK N   1      35.061  14.832  10.007  0.00  0.00     0.049 A 
HETATM    2  C   UNK N   1      35.318  13.955  11.072  0.00  0.00     0.051 A 
HETATM    3  C   UNK N   1      35.120  12.595  10.865  0.00  0.00     0.077 A 
HETATM    4  C   UNK N   1      34.600  14.297   8.776  0.00  0.00     0.105 A 
HETATM    5  N   UNK N   1      34.420  12.946   8.625  0.00  0.00    -0.363 N 
ATOM      6  HN  UNK N   1      34.088  12.563   7.739  1.00  0.00     0.165 HD
HETATM    7  C   UNK N   1      34.690  12.125   9.672  0.00  0.00     0.061 A 
HETATM    8  C   UNK N   1      34.583  10.751   9.760  0.00  0.00     0.050 A 
HETATM    9  C   UNK N   1      34.971  10.442  11.075  0.00  0.00     0.112 A 
HETATM   10  N   UNK N   1      35.298  11.581  11.733  0.00  0.00    -0.245 N 
ENDROOT
BRANCH  10  11
HETATM   11  S   UNK N   1      35.761  11.706  13.455  0.00  0.00     0.271 S 
HETATM   12  O   UNK N   1      34.274  12.057  13.619  0.00  0.00    -0.200 OA
HETATM   13  O   UNK N   1      35.632  10.196  13.680  0.00  0.00    -0.200 OA
BRANCH  11  14
HETATM   14  C   UNK N   1      35.698  12.093  15.241  0.00  0.00     0.113 A 
HETATM   15  C   UNK N   1      36.127  13.321  15.905  0.00  0.00     0.126 A 
HETATM   16  C   UNK N   1      35.899  13.429  17.290  0.00  0.00     0.038 A 
HETATM   17  C   UNK N   1      35.291  12.416  18.021  0.00  0.00     0.003 A 
HETATM   18  C   UNK N   1      34.891  11.249  17.386  0.00  0.00     0.002 A 
HETATM   19  C   UNK N   1      35.089  11.097  16.017  0.00  0.00     0.028 A 
BRANCH  15  20
HETATM   20  N   UNK N   1      36.771  14.454  15.275  0.00  0.00    -0.114 N 
HETATM   21  O   UNK N   1      37.656  15.200  15.887  0.00  0.00    -0.532 OA
HETATM   22  O   UNK N   1      36.442  14.769  14.169  0.00  0.00    -0.532 OA
ENDBRANCH  15  20
ENDBRANCH  11  14
ENDBRANCH  10  11
BRANCH   1  23
HETATM   23  C   UNK N   1      35.284  16.284  10.180  0.00  0.00     0.250 C 
HETATM   24  O   UNK N   1      36.321  16.692  10.676  0.00  0.00    -0.268 OA
HETATM   25  N   UNK N   1      34.336  17.168   9.802  0.00  0.00    -0.366 N 
HETATM   26  H   UNK N   1      33.502  16.850   9.386  0.00  0.00     0.159 HD
HETATM   27  H   UNK N   1      34.481  18.132   9.941  0.00  0.00     0.159 HD
ENDBRANCH   1  23
TORSDOF 4
ENDMDL
