MODEL 1
REMARK VINA RESULT:      -5.4      0.000      0.000
REMARK  8 active torsions:
REMARK  status: ('A' for Active; 'I' for Inactive)
REMARK    1  A    between atoms: N_2  and  C_9 
REMARK    2  A    between atoms: N_2  and  C_11 
REMARK    3  A    between atoms: N_2  and  C_12 
REMARK    4  A    between atoms: N_3  and  C_8 
REMARK    5  A    between atoms: N_3  and  C_13 
REMARK    6  A    between atoms: C_6  and  C_7 
REMARK    7  A    between atoms: C_6  and  C_8 
REMARK    8  A    between atoms: C_7  and  C_9 
ROOT
HETATM    1 Cl   UNK N   1      30.208  30.096  -8.484  0.00  0.00    -0.084 Cl
HETATM    2  N   UNK N   1      27.071  29.632  -4.472  0.00  0.00    -0.365 N 
ATOM      3  HN  UNK N   1      27.474  30.503  -4.125  1.00  0.00     0.165 HD
HETATM    4  C   UNK N   1      25.975  27.267  -5.408  0.00  0.00     0.042 A 
HETATM    5  C   UNK N   1      26.981  27.908  -6.142  0.00  0.00     0.017 A 
HETATM    6  C   UNK N   1      25.525  27.830  -4.212  0.00  0.00     0.047 A 
HETATM    7  C   UNK N   1      27.521  29.115  -5.645  0.00  0.00     0.046 A 
HETATM    8  C   UNK N   1      27.433  27.394  -7.365  0.00  0.00     0.018 A 
HETATM    9  C   UNK N   1      26.095  29.016  -3.750  0.00  0.00     0.090 A 
HETATM   10  C   UNK N   1      28.509  29.784  -6.372  0.00  0.00     0.054 A 
HETATM   11  C   UNK N   1      28.423  28.070  -8.084  0.00  0.00     0.025 A 
HETATM   12  C   UNK N   1      28.960  29.261  -7.587  0.00  0.00     0.036 A 
ENDROOT
BRANCH   4  13
HETATM   13  N   UNK N   1      25.339  26.119  -5.917  0.00  0.00    -0.385 N 
HETATM   14  H   UNK N   1      24.451  26.168  -6.340  0.00  0.00     0.160 HD
BRANCH  13  15
HETATM   15  C   UNK N   1      26.041  24.874  -5.794  0.00  0.00     0.077 C 
HETATM   16  C   UNK N   1      25.951  23.984  -7.022  0.00  0.00     0.032 C 
BRANCH  15  17
HETATM   17  C   UNK N   1      25.965  24.280  -4.389  0.00  0.00     0.026 C 
BRANCH  17  18
HETATM   18  C   UNK N   1      27.236  24.409  -3.574  0.00  0.00     0.032 C 
BRANCH  18  19
HETATM   19  C   UNK N   1      28.511  24.393  -4.427  0.00  0.00     0.272 C 
BRANCH  19  20
HETATM   20  N   UNK N   1      29.644  25.024  -3.734  0.00  0.00     0.087 N 
BRANCH  20  21
HETATM   21  C   UNK N   1      30.080  26.207  -4.489  0.00  0.00     0.268 C 
HETATM   22  C   UNK N   1      30.116  27.432  -3.596  0.00  0.00     0.037 C 
ENDBRANCH  20  21
BRANCH  20  23
HETATM   23  C   UNK N   1      30.681  23.991  -3.590  0.00  0.00     0.268 C 
HETATM   24  C   UNK N   1      30.510  23.048  -2.404  0.00  0.00     0.037 C 
ENDBRANCH  20  23
ENDBRANCH  19  20
ENDBRANCH  18  19
ENDBRANCH  17  18
ENDBRANCH  15  17
ENDBRANCH  13  15
ENDBRANCH   4  13
TORSDOF 8
ENDMDL
MODEL 2
REMARK VINA RESULT:      -5.3     15.548     17.915
REMARK  8 active torsions:
REMARK  status: ('A' for Active; 'I' for Inactive)
REMARK    1  A    between atoms: N_2  and  C_9 
REMARK    2  A    between atoms: N_2  and  C_11 
REMARK    3  A    between atoms: N_2  and  C_12 
REMARK    4  A    between atoms: N_3  and  C_8 
REMARK    5  A    between atoms: N_3  and  C_13 
REMARK    6  A    between atoms: C_6  and  C_7 
REMARK    7  A    between atoms: C_6  and  C_8 
REMARK    8  A    between atoms: C_7  and  C_9 
ROOT
HETATM    1 Cl   UNK N   1      20.907  20.192   1.557  0.00  0.00    -0.084 Cl
HETATM    2  N   UNK N   1      19.430  15.602   3.258  0.00  0.00    -0.365 N 
ATOM      3  HN  UNK N   1      19.097  15.418   2.312  1.00  0.00     0.165 HD
HETATM    4  C   UNK N   1      20.329  16.096   5.831  0.00  0.00     0.042 A 
HETATM    5  C   UNK N   1      20.463  17.081   4.845  0.00  0.00     0.017 A 
HETATM    6  C   UNK N   1      19.750  14.867   5.508  0.00  0.00     0.047 A 
HETATM    7  C   UNK N   1      20.000  16.803   3.539  0.00  0.00     0.046 A 
HETATM    8  C   UNK N   1      21.071  18.313   5.119  0.00  0.00     0.018 A 
HETATM    9  C   UNK N   1      19.293  14.639   4.211  0.00  0.00     0.090 A 
HETATM   10  C   UNK N   1      20.144  17.762   2.533  0.00  0.00     0.054 A 
HETATM   11  C   UNK N   1      21.209  19.266   4.107  0.00  0.00     0.025 A 
HETATM   12  C   UNK N   1      20.744  18.991   2.817  0.00  0.00     0.036 A 
ENDROOT
BRANCH   4  13
HETATM   13  N   UNK N   1      20.869  16.294   7.117  0.00  0.00    -0.385 N 
HETATM   14  H   UNK N   1      21.840  16.370   7.260  0.00  0.00     0.160 HD
BRANCH  13  15
HETATM   15  C   UNK N   1      19.942  16.381   8.208  0.00  0.00     0.077 C 
HETATM   16  C   UNK N   1      19.711  17.793   8.718  0.00  0.00     0.032 C 
BRANCH  15  17
HETATM   17  C   UNK N   1      20.047  15.206   9.177  0.00  0.00     0.026 C 
BRANCH  17  18
HETATM   18  C   UNK N   1      21.341  14.420   9.088  0.00  0.00     0.032 C 
BRANCH  18  19
HETATM   19  C   UNK N   1      21.229  12.996   9.648  0.00  0.00     0.272 C 
BRANCH  19  20
HETATM   20  N   UNK N   1      22.314  12.130   9.166  0.00  0.00     0.087 N 
BRANCH  20  21
HETATM   21  C   UNK N   1      23.099  11.649  10.311  0.00  0.00     0.268 C 
HETATM   22  C   UNK N   1      22.450  12.059  11.618  0.00  0.00     0.037 C 
ENDBRANCH  20  21
BRANCH  20  23
HETATM   23  C   UNK N   1      23.090  12.921   8.199  0.00  0.00     0.268 C 
HETATM   24  C   UNK N   1      24.601  12.910   8.400  0.00  0.00     0.037 C 
ENDBRANCH  20  23
ENDBRANCH  19  20
ENDBRANCH  18  19
ENDBRANCH  17  18
ENDBRANCH  15  17
ENDBRANCH  13  15
ENDBRANCH   4  13
TORSDOF 8
ENDMDL
MODEL 3
REMARK VINA RESULT:      -5.1      3.622      6.443
REMARK  8 active torsions:
REMARK  status: ('A' for Active; 'I' for Inactive)
REMARK    1  A    between atoms: N_2  and  C_9 
REMARK    2  A    between atoms: N_2  and  C_11 
REMARK    3  A    between atoms: N_2  and  C_12 
REMARK    4  A    between atoms: N_3  and  C_8 
REMARK    5  A    between atoms: N_3  and  C_13 
REMARK    6  A    between atoms: C_6  and  C_7 
REMARK    7  A    between atoms: C_6  and  C_8 
REMARK    8  A    between atoms: C_7  and  C_9 
ROOT
HETATM    1 Cl   UNK N   1      32.175  21.525  -2.770  0.00  0.00    -0.084 Cl
HETATM    2  N   UNK N   1      29.848  19.746  -6.962  0.00  0.00    -0.365 N 
ATOM      3  HN  UNK N   1      30.375  18.884  -6.823  1.00  0.00     0.165 HD
HETATM    4  C   UNK N   1      28.415  22.086  -7.345  0.00  0.00     0.042 A 
HETATM    5  C   UNK N   1      29.305  21.982  -6.269  0.00  0.00     0.017 A 
HETATM    6  C   UNK N   1      28.249  21.005  -8.213  0.00  0.00     0.047 A 
HETATM    7  C   UNK N   1      30.022  20.777  -6.093  0.00  0.00     0.046 A 
HETATM    8  C   UNK N   1      29.472  23.030  -5.354  0.00  0.00     0.018 A 
HETATM    9  C   UNK N   1      28.986  19.838  -8.012  0.00  0.00     0.090 A 
HETATM   10  C   UNK N   1      30.898  20.642  -5.013  0.00  0.00     0.054 A 
HETATM   11  C   UNK N   1      30.353  22.886  -4.279  0.00  0.00     0.025 A 
HETATM   12  C   UNK N   1      31.065  21.695  -4.110  0.00  0.00     0.036 A 
ENDROOT
BRANCH   4  13
HETATM   13  N   UNK N   1      27.607  23.229  -7.496  0.00  0.00    -0.385 N 
HETATM   14  H   UNK N   1      27.995  24.107  -7.714  0.00  0.00     0.160 HD
BRANCH  13  15
HETATM   15  C   UNK N   1      26.194  23.058  -7.320  0.00  0.00     0.077 C 
HETATM   16  C   UNK N   1      25.361  23.480  -8.518  0.00  0.00     0.032 C 
BRANCH  15  17
HETATM   17  C   UNK N   1      25.728  23.358  -5.897  0.00  0.00     0.026 C 
BRANCH  17  18
HETATM   18  C   UNK N   1      26.001  24.772  -5.423  0.00  0.00     0.032 C 
BRANCH  18  19
HETATM   19  C   UNK N   1      26.485  24.845  -3.969  0.00  0.00     0.272 C 
BRANCH  19  20
HETATM   20  N   UNK N   1      27.133  26.130  -3.669  0.00  0.00     0.087 N 
BRANCH  20  21
HETATM   21  C   UNK N   1      26.136  27.065  -3.131  0.00  0.00     0.268 C 
HETATM   22  C   UNK N   1      25.863  28.186  -4.115  0.00  0.00     0.037 C 
ENDBRANCH  20  21
BRANCH  20  23
HETATM   23  C   UNK N   1      27.767  26.585  -4.916  0.00  0.00     0.268 C 
HETATM   24  C   UNK N   1      29.268  26.838  -4.837  0.00  0.00     0.037 C 
ENDBRANCH  20  23
ENDBRANCH  19  20
ENDBRANCH  18  19
ENDBRANCH  17  18
ENDBRANCH  15  17
ENDBRANCH  13  15
ENDBRANCH   4  13
TORSDOF 8
ENDMDL
MODEL 4
REMARK VINA RESULT:      -5.0     12.229     14.242
REMARK  8 active torsions:
REMARK  status: ('A' for Active; 'I' for Inactive)
REMARK    1  A    between atoms: N_2  and  C_9 
REMARK    2  A    between atoms: N_2  and  C_11 
REMARK    3  A    between atoms: N_2  and  C_12 
REMARK    4  A    between atoms: N_3  and  C_8 
REMARK    5  A    between atoms: N_3  and  C_13 
REMARK    6  A    between atoms: C_6  and  C_7 
REMARK    7  A    between atoms: C_6  and  C_8 
REMARK    8  A    between atoms: C_7  and  C_9 
ROOT
HETATM    1 Cl   UNK N   1      20.440  21.297   0.873  0.00  0.00    -0.084 Cl
HETATM    2  N   UNK N   1      19.447  17.112   3.639  0.00  0.00    -0.365 N 
ATOM      3  HN  UNK N   1      18.572  17.041   3.119  1.00  0.00     0.165 HD
HETATM    4  C   UNK N   1      21.820  17.298   5.056  0.00  0.00     0.042 A 
HETATM    5  C   UNK N   1      21.510  18.260   4.085  0.00  0.00     0.017 A 
HETATM    6  C   UNK N   1      20.933  16.246   5.296  0.00  0.00     0.047 A 
HETATM    7  C   UNK N   1      20.295  18.140   3.374  0.00  0.00     0.046 A 
HETATM    8  C   UNK N   1      22.389  19.309   3.789  0.00  0.00     0.018 A 
HETATM    9  C   UNK N   1      19.738  16.173   4.581  0.00  0.00     0.090 A 
HETATM   10  C   UNK N   1      19.975  19.074   2.386  0.00  0.00     0.054 A 
HETATM   11  C   UNK N   1      22.059  20.239   2.800  0.00  0.00     0.025 A 
HETATM   12  C   UNK N   1      20.854  20.122   2.101  0.00  0.00     0.036 A 
ENDROOT
BRANCH   4  13
HETATM   13  N   UNK N   1      23.064  17.322   5.713  0.00  0.00    -0.385 N 
HETATM   14  H   UNK N   1      23.265  17.989   6.409  0.00  0.00     0.160 HD
BRANCH  13  15
HETATM   15  C   UNK N   1      24.027  16.332   5.326  0.00  0.00     0.077 C 
HETATM   16  C   UNK N   1      24.400  15.360   6.432  0.00  0.00     0.032 C 
BRANCH  15  17
HETATM   17  C   UNK N   1      25.086  16.870   4.366  0.00  0.00     0.026 C 
BRANCH  17  18
HETATM   18  C   UNK N   1      26.481  16.970   4.949  0.00  0.00     0.032 C 
BRANCH  18  19
HETATM   19  C   UNK N   1      27.376  17.980   4.219  0.00  0.00     0.272 C 
BRANCH  19  20
HETATM   20  N   UNK N   1      28.160  18.798   5.156  0.00  0.00     0.087 N 
BRANCH  20  21
HETATM   21  C   UNK N   1      27.851  18.391   6.534  0.00  0.00     0.268 C 
HETATM   22  C   UNK N   1      29.111  17.970   7.265  0.00  0.00     0.037 C 
ENDBRANCH  20  21
BRANCH  20  23
HETATM   23  C   UNK N   1      27.840  20.203   4.861  0.00  0.00     0.268 C 
HETATM   24  C   UNK N   1      27.167  20.977   5.990  0.00  0.00     0.037 C 
ENDBRANCH  20  23
ENDBRANCH  19  20
ENDBRANCH  18  19
ENDBRANCH  17  18
ENDBRANCH  15  17
ENDBRANCH  13  15
ENDBRANCH   4  13
TORSDOF 8
ENDMDL
MODEL 5
REMARK VINA RESULT:      -5.0     12.736     14.554
REMARK  8 active torsions:
REMARK  status: ('A' for Active; 'I' for Inactive)
REMARK    1  A    between atoms: N_2  and  C_9 
REMARK    2  A    between atoms: N_2  and  C_11 
REMARK    3  A    between atoms: N_2  and  C_12 
REMARK    4  A    between atoms: N_3  and  C_8 
REMARK    5  A    between atoms: N_3  and  C_13 
REMARK    6  A    between atoms: C_6  and  C_7 
REMARK    7  A    between atoms: C_6  and  C_8 
REMARK    8  A    between atoms: C_7  and  C_9 
ROOT
HETATM    1 Cl   UNK N   1      26.171  21.866   7.077  0.00  0.00    -0.084 Cl
HETATM    2  N   UNK N   1      29.170  17.728   7.261  0.00  0.00    -0.365 N 
ATOM      3  HN  UNK N   1      29.242  17.891   8.265  1.00  0.00     0.165 HD
HETATM    4  C   UNK N   1      28.980  17.281   4.534  0.00  0.00     0.042 A 
HETATM    5  C   UNK N   1      28.321  18.375   5.108  0.00  0.00     0.017 A 
HETATM    6  C   UNK N   1      29.722  16.416   5.343  0.00  0.00     0.047 A 
HETATM    7  C   UNK N   1      28.431  18.579   6.502  0.00  0.00     0.046 A 
HETATM    8  C   UNK N   1      27.538  19.243   4.337  0.00  0.00     0.018 A 
HETATM    9  C   UNK N   1      29.815  16.662   6.712  0.00  0.00     0.090 A 
HETATM   10  C   UNK N   1      27.764  19.651   7.100  0.00  0.00     0.054 A 
HETATM   11  C   UNK N   1      26.876  20.314   4.945  0.00  0.00     0.025 A 
HETATM   12  C   UNK N   1      26.990  20.517   6.323  0.00  0.00     0.036 A 
ENDROOT
BRANCH   4  13
HETATM   13  N   UNK N   1      28.814  16.982   3.168  0.00  0.00    -0.385 N 
HETATM   14  H   UNK N   1      29.168  17.575   2.466  0.00  0.00     0.160 HD
BRANCH  13  15
HETATM   15  C   UNK N   1      28.105  15.778   2.844  0.00  0.00     0.077 C 
HETATM   16  C   UNK N   1      28.917  14.774   2.043  0.00  0.00     0.032 C 
BRANCH  15  17
HETATM   17  C   UNK N   1      26.629  16.017   2.533  0.00  0.00     0.026 C 
BRANCH  17  18
HETATM   18  C   UNK N   1      25.710  15.971   3.738  0.00  0.00     0.032 C 
BRANCH  18  19
HETATM   19  C   UNK N   1      24.230  15.811   3.369  0.00  0.00     0.272 C 
BRANCH  19  20
HETATM   20  N   UNK N   1      23.352  16.559   4.281  0.00  0.00     0.087 N 
BRANCH  20  21
HETATM   21  C   UNK N   1      24.031  17.788   4.712  0.00  0.00     0.268 C 
HETATM   22  C   UNK N   1      23.553  18.979   3.904  0.00  0.00     0.037 C 
ENDBRANCH  20  21
BRANCH  20  23
HETATM   23  C   UNK N   1      23.010  15.647   5.383  0.00  0.00     0.268 C 
HETATM   24  C   UNK N   1      22.173  16.252   6.504  0.00  0.00     0.037 C 
ENDBRANCH  20  23
ENDBRANCH  19  20
ENDBRANCH  18  19
ENDBRANCH  17  18
ENDBRANCH  15  17
ENDBRANCH  13  15
ENDBRANCH   4  13
TORSDOF 8
ENDMDL
MODEL 6
REMARK VINA RESULT:      -4.9      1.954      3.948
REMARK  8 active torsions:
REMARK  status: ('A' for Active; 'I' for Inactive)
REMARK    1  A    between atoms: N_2  and  C_9 
REMARK    2  A    between atoms: N_2  and  C_11 
REMARK    3  A    between atoms: N_2  and  C_12 
REMARK    4  A    between atoms: N_3  and  C_8 
REMARK    5  A    between atoms: N_3  and  C_13 
REMARK    6  A    between atoms: C_6  and  C_7 
REMARK    7  A    between atoms: C_6  and  C_8 
REMARK    8  A    between atoms: C_7  and  C_9 
ROOT
HETATM    1 Cl   UNK N   1      25.734  25.763  -9.547  0.00  0.00    -0.084 Cl
HETATM    2  N   UNK N   1      25.296  27.279  -4.682  0.00  0.00    -0.365 N 
ATOM      3  HN  UNK N   1      24.329  26.958  -4.726  1.00  0.00     0.165 HD
HETATM    4  C   UNK N   1      27.921  28.155  -4.559  0.00  0.00     0.042 A 
HETATM    5  C   UNK N   1      27.424  27.608  -5.749  0.00  0.00     0.017 A 
HETATM    6  C   UNK N   1      27.092  28.247  -3.439  0.00  0.00     0.047 A 
HETATM    7  C   UNK N   1      26.083  27.166  -5.785  0.00  0.00     0.046 A 
HETATM    8  C   UNK N   1      28.235  27.465  -6.882  0.00  0.00     0.018 A 
HETATM    9  C   UNK N   1      25.770  27.811  -3.522  0.00  0.00     0.090 A 
HETATM   10  C   UNK N   1      25.572  26.595  -6.953  0.00  0.00     0.054 A 
HETATM   11  C   UNK N   1      27.714  26.895  -8.047  0.00  0.00     0.025 A 
HETATM   12  C   UNK N   1      26.385  26.463  -8.082  0.00  0.00     0.036 A 
ENDROOT
BRANCH   4  13
HETATM   13  N   UNK N   1      29.279  28.513  -4.449  0.00  0.00    -0.385 N 
HETATM   14  H   UNK N   1      29.773  28.893  -5.212  0.00  0.00     0.160 HD
BRANCH  13  15
HETATM   15  C   UNK N   1      29.910  28.301  -3.179  0.00  0.00     0.077 C 
HETATM   16  C   UNK N   1      30.157  29.573  -2.386  0.00  0.00     0.032 C 
BRANCH  15  17
HETATM   17  C   UNK N   1      30.947  27.181  -3.206  0.00  0.00     0.026 C 
BRANCH  17  18
HETATM   18  C   UNK N   1      31.004  26.396  -4.501  0.00  0.00     0.032 C 
BRANCH  18  19
HETATM   19  C   UNK N   1      30.737  24.896  -4.318  0.00  0.00     0.272 C 
BRANCH  19  20
HETATM   20  N   UNK N   1      29.586  24.647  -3.438  0.00  0.00     0.087 N 
BRANCH  20  21
HETATM   21  C   UNK N   1      29.870  23.488  -2.580  0.00  0.00     0.268 C 
HETATM   22  C   UNK N   1      31.094  22.741  -3.073  0.00  0.00     0.037 C 
ENDBRANCH  20  21
BRANCH  20  23
HETATM   23  C   UNK N   1      28.416  24.471  -4.312  0.00  0.00     0.268 C 
HETATM   24  C   UNK N   1      27.086  24.259  -3.598  0.00  0.00     0.037 C 
ENDBRANCH  20  23
ENDBRANCH  19  20
ENDBRANCH  18  19
ENDBRANCH  17  18
ENDBRANCH  15  17
ENDBRANCH  13  15
ENDBRANCH   4  13
TORSDOF 8
ENDMDL
MODEL 7
REMARK VINA RESULT:      -4.9     22.695     27.102
REMARK  8 active torsions:
REMARK  status: ('A' for Active; 'I' for Inactive)
REMARK    1  A    between atoms: N_2  and  C_9 
REMARK    2  A    between atoms: N_2  and  C_11 
REMARK    3  A    between atoms: N_2  and  C_12 
REMARK    4  A    between atoms: N_3  and  C_8 
REMARK    5  A    between atoms: N_3  and  C_13 
REMARK    6  A    between atoms: C_6  and  C_7 
REMARK    7  A    between atoms: C_6  and  C_8 
REMARK    8  A    between atoms: C_7  and  C_9 
ROOT
HETATM    1 Cl   UNK N   1      34.504   8.312  21.181  0.00  0.00    -0.084 Cl
HETATM    2  N   UNK N   1      35.181  13.034  19.339  0.00  0.00    -0.365 N 
ATOM      3  HN  UNK N   1      35.089  13.364  20.299  1.00  0.00     0.165 HD
HETATM    4  C   UNK N   1      35.431  12.144  16.727  0.00  0.00     0.042 A 
HETATM    5  C   UNK N   1      35.198  11.225  17.758  0.00  0.00     0.017 A 
HETATM    6  C   UNK N   1      35.544  13.504  17.025  0.00  0.00     0.047 A 
HETATM    7  C   UNK N   1      35.079  11.703  19.082  0.00  0.00     0.046 A 
HETATM    8  C   UNK N   1      35.116   9.849  17.506  0.00  0.00     0.018 A 
HETATM    9  C   UNK N   1      35.405  13.936  18.344  0.00  0.00     0.090 A 
HETATM   10  C   UNK N   1      34.870  10.802  20.129  0.00  0.00     0.054 A 
HETATM   11  C   UNK N   1      34.905   8.956  18.559  0.00  0.00     0.025 A 
HETATM   12  C   UNK N   1      34.781   9.433  19.868  0.00  0.00     0.036 A 
ENDROOT
BRANCH   4  13
HETATM   13  N   UNK N   1      35.658  11.700  15.411  0.00  0.00    -0.385 N 
HETATM   14  H   UNK N   1      36.487  11.230  15.163  0.00  0.00     0.160 HD
BRANCH  13  15
HETATM   15  C   UNK N   1      34.630  11.962  14.446  0.00  0.00     0.077 C 
HETATM   16  C   UNK N   1      33.821  10.738  14.051  0.00  0.00     0.032 C 
BRANCH  15  17
HETATM   17  C   UNK N   1      35.036  13.001  13.405  0.00  0.00     0.026 C 
BRANCH  17  18
HETATM   18  C   UNK N   1      36.333  12.704  12.680  0.00  0.00     0.032 C 
BRANCH  18  19
HETATM   19  C   UNK N   1      36.259  12.954  11.168  0.00  0.00     0.272 C 
BRANCH  19  20
HETATM   20  N   UNK N   1      36.626  14.334  10.821  0.00  0.00     0.087 N 
BRANCH  20  21
HETATM   21  C   UNK N   1      35.435  15.050  10.343  0.00  0.00     0.268 C 
HETATM   22  C   UNK N   1      35.430  16.481  10.847  0.00  0.00     0.037 C 
ENDBRANCH  20  21
BRANCH  20  23
HETATM   23  C   UNK N   1      37.710  14.248   9.830  0.00  0.00     0.268 C 
HETATM   24  C   UNK N   1      37.417  13.386   8.607  0.00  0.00     0.037 C 
ENDBRANCH  20  23
ENDBRANCH  19  20
ENDBRANCH  18  19
ENDBRANCH  17  18
ENDBRANCH  15  17
ENDBRANCH  13  15
ENDBRANCH   4  13
TORSDOF 8
ENDMDL
MODEL 8
REMARK VINA RESULT:      -4.9     15.139     17.503
REMARK  8 active torsions:
REMARK  status: ('A' for Active; 'I' for Inactive)
REMARK    1  A    between atoms: N_2  and  C_9 
REMARK    2  A    between atoms: N_2  and  C_11 
REMARK    3  A    between atoms: N_2  and  C_12 
REMARK    4  A    between atoms: N_3  and  C_8 
REMARK    5  A    between atoms: N_3  and  C_13 
REMARK    6  A    between atoms: C_6  and  C_7 
REMARK    7  A    between atoms: C_6  and  C_8 
REMARK    8  A    between atoms: C_7  and  C_9 
ROOT
HETATM    1 Cl   UNK N   1      26.298  16.314   4.307  0.00  0.00    -0.084 Cl
HETATM    2  N   UNK N   1      28.545  18.494   8.351  0.00  0.00    -0.365 N 
ATOM      3  HN  UNK N   1      27.636  18.903   8.568  1.00  0.00     0.165 HD
HETATM    4  C   UNK N   1      31.017  17.388   7.766  0.00  0.00     0.042 A 
HETATM    5  C   UNK N   1      29.923  17.133   6.929  0.00  0.00     0.017 A 
HETATM    6  C   UNK N   1      30.851  18.192   8.896  0.00  0.00     0.047 A 
HETATM    7  C   UNK N   1      28.672  17.705   7.251  0.00  0.00     0.046 A 
HETATM    8  C   UNK N   1      30.039  16.302   5.807  0.00  0.00     0.018 A 
HETATM    9  C   UNK N   1      29.603  18.749   9.170  0.00  0.00     0.090 A 
HETATM   10  C   UNK N   1      27.562  17.446   6.444  0.00  0.00     0.054 A 
HETATM   11  C   UNK N   1      28.923  16.050   5.005  0.00  0.00     0.025 A 
HETATM   12  C   UNK N   1      27.688  16.622   5.322  0.00  0.00     0.036 A 
ENDROOT
BRANCH   4  13
HETATM   13  N   UNK N   1      32.254  16.755   7.539  0.00  0.00    -0.385 N 
HETATM   14  H   UNK N   1      32.393  15.806   7.759  0.00  0.00     0.160 HD
BRANCH  13  15
HETATM   15  C   UNK N   1      33.302  17.554   6.972  0.00  0.00     0.077 C 
HETATM   16  C   UNK N   1      33.396  17.474   5.458  0.00  0.00     0.032 C 
BRANCH  15  17
HETATM   17  C   UNK N   1      34.561  17.588   7.835  0.00  0.00     0.026 C 
BRANCH  17  18
HETATM   18  C   UNK N   1      34.346  17.227   9.291  0.00  0.00     0.032 C 
BRANCH  18  19
HETATM   19  C   UNK N   1      35.213  16.053   9.763  0.00  0.00     0.272 C 
BRANCH  19  20
HETATM   20  N   UNK N   1      34.412  14.849  10.024  0.00  0.00     0.087 N 
BRANCH  20  21
HETATM   21  C   UNK N   1      34.780  14.292  11.333  0.00  0.00     0.268 C 
HETATM   22  C   UNK N   1      35.793  15.180  12.029  0.00  0.00     0.037 C 
ENDBRANCH  20  21
BRANCH  20  23
HETATM   23  C   UNK N   1      34.646  13.932   8.897  0.00  0.00     0.268 C 
HETATM   24  C   UNK N   1      36.044  13.975   8.292  0.00  0.00     0.037 C 
ENDBRANCH  20  23
ENDBRANCH  19  20
ENDBRANCH  18  19
ENDBRANCH  17  18
ENDBRANCH  15  17
ENDBRANCH  13  15
ENDBRANCH   4  13
TORSDOF 8
ENDMDL
MODEL 9
REMARK VINA RESULT:      -4.9     12.220     16.513
REMARK  8 active torsions:
REMARK  status: ('A' for Active; 'I' for Inactive)
REMARK    1  A    between atoms: N_2  and  C_9 
REMARK    2  A    between atoms: N_2  and  C_11 
REMARK    3  A    between atoms: N_2  and  C_12 
REMARK    4  A    between atoms: N_3  and  C_8 
REMARK    5  A    between atoms: N_3  and  C_13 
REMARK    6  A    between atoms: C_6  and  C_7 
REMARK    7  A    between atoms: C_6  and  C_8 
REMARK    8  A    between atoms: C_7  and  C_9 
ROOT
HETATM    1 Cl   UNK N   1      34.571  12.968   4.544  0.00  0.00    -0.084 Cl
HETATM    2  N   UNK N   1      34.446  17.397   7.097  0.00  0.00    -0.365 N 
ATOM      3  HN  UNK N   1      35.376  17.579   6.719  1.00  0.00     0.165 HD
HETATM    4  C   UNK N   1      31.923  16.907   8.130  0.00  0.00     0.042 A 
HETATM    5  C   UNK N   1      32.533  15.958   7.299  0.00  0.00     0.017 A 
HETATM    6  C   UNK N   1      32.589  18.098   8.425  0.00  0.00     0.047 A 
HETATM    7  C   UNK N   1      33.818  16.233   6.782  0.00  0.00     0.046 A 
HETATM    8  C   UNK N   1      31.883  14.767   6.950  0.00  0.00     0.018 A 
HETATM    9  C   UNK N   1      33.863  18.324   7.905  0.00  0.00     0.090 A 
HETATM   10  C   UNK N   1      34.436  15.312   5.933  0.00  0.00     0.054 A 
HETATM   11  C   UNK N   1      32.510  13.851   6.101  0.00  0.00     0.025 A 
HETATM   12  C   UNK N   1      33.785  14.123   5.596  0.00  0.00     0.036 A 
ENDROOT
BRANCH   4  13
HETATM   13  N   UNK N   1      30.603  16.718   8.582  0.00  0.00    -0.385 N 
HETATM   14  H   UNK N   1      30.376  16.003   9.221  0.00  0.00     0.160 HD
BRANCH  13  15
HETATM   15  C   UNK N   1      29.604  17.611   8.072  0.00  0.00     0.077 C 
HETATM   16  C   UNK N   1      28.520  17.970   9.075  0.00  0.00     0.032 C 
BRANCH  15  17
HETATM   17  C   UNK N   1      29.261  17.353   6.607  0.00  0.00     0.026 C 
BRANCH  17  18
HETATM   18  C   UNK N   1      27.801  17.550   6.251  0.00  0.00     0.032 C 
BRANCH  18  19
HETATM   19  C   UNK N   1      27.592  18.255   4.905  0.00  0.00     0.272 C 
BRANCH  19  20
HETATM   20  N   UNK N   1      26.732  19.440   5.033  0.00  0.00     0.087 N 
BRANCH  20  21
HETATM   21  C   UNK N   1      26.876  20.279   3.835  0.00  0.00     0.268 C 
HETATM   22  C   UNK N   1      25.591  20.291   3.030  0.00  0.00     0.037 C 
ENDBRANCH  20  21
BRANCH  20  23
HETATM   23  C   UNK N   1      27.120  20.111   6.283  0.00  0.00     0.268 C 
HETATM   24  C   UNK N   1      26.933  21.624   6.305  0.00  0.00     0.037 C 
ENDBRANCH  20  23
ENDBRANCH  19  20
ENDBRANCH  18  19
ENDBRANCH  17  18
ENDBRANCH  15  17
ENDBRANCH  13  15
ENDBRANCH   4  13
TORSDOF 8
ENDMDL
