REMARK  9 active torsions:
REMARK  status: ('A' for Active; 'I' for Inactive)
REMARK       I    between atoms: C_3  and  N_11 
REMARK    1  A    between atoms: C_6  and  C_9 
REMARK    2  A    between atoms: C_9  and  O_10 
REMARK    3  A    between atoms: N_11  and  C_12 
REMARK    4  A    between atoms: C_12  and  C_13 
REMARK    5  A    between atoms: C_13  and  C_14 
REMARK    6  A    between atoms: C_14  and  O_15 
REMARK    7  A    between atoms: O_15  and  C_16 
REMARK    8  A    between atoms: C_20  and  C_22 
REMARK    9  A    between atoms: C_22  and  N_23 
ROOT
HETATM    1  C   UNK N   1      -1.541  -8.110   0.055  0.00  0.00     0.047 C 
ENDROOT
BRANCH   1   2
HETATM    2  C   UNK N   1      -2.449  -7.260  -0.801  0.00  0.00     0.140 C 
BRANCH   2   3
HETATM    3  N   UNK N   1      -3.812  -7.368  -0.350  0.00  0.00    -0.225 N 
HETATM    4  C   UNK N   1      -4.647  -6.237  -0.143  0.00  0.00     0.696 A 
HETATM    5  N   UNK N   1      -4.242  -4.952  -0.077  0.00  0.00    -0.127 N 
HETATM    6  N   UNK N   1      -5.986  -6.329  -0.048  0.00  0.00    -0.176 N 
HETATM    7  C   UNK N   1      -2.893  -4.417  -0.134  0.00  0.00     0.197 C 
HETATM    8  N   UNK N   1      -5.320  -4.197   0.050  0.00  0.00    -0.271 N 
HETATM    9  C   UNK N   1      -6.374  -5.040   0.064  0.00  0.00     0.136 A 
ATOM     10  HN  UNK N   1      -5.349  -3.180   0.124  1.00  0.00     0.189 HD
ATOM     11  HN  UNK N   1      -6.566  -7.168  -0.059  1.00  0.00     0.185 HD
HETATM   12  H   UNK N   1      -4.182  -8.264  -0.179  0.00  0.00     0.177 HD
BRANCH   9  13
HETATM   13  C   UNK N   1      -7.803  -4.613   0.138  0.00  0.00     0.242 C 
BRANCH  13  14
HETATM   14  O   UNK N   1      -7.905  -3.221   0.115  0.00  0.00    -0.393 OA
HETATM   15  H   UNK N   1      -7.103  -2.676   0.098  0.00  0.00     0.209 HD
ENDBRANCH  13  14
ENDBRANCH   9  13
ENDBRANCH   2   3
ENDBRANCH   1   2
BRANCH   1  16
HETATM   16  C   UNK N   1      -0.506  -7.203   0.669  0.00  0.00     0.177 C 
BRANCH  16  17
HETATM   17  O   UNK N   1       0.725  -7.371   0.076  0.00  0.00    -0.351 OA
BRANCH  17  18
HETATM   18  C   UNK N   1       1.605  -6.348   0.018  0.00  0.00     0.069 A 
HETATM   19  C   UNK N   1       1.177  -5.021  -0.169  0.00  0.00     0.037 A 
HETATM   20  C   UNK N   1       2.103  -3.973  -0.125  0.00  0.00     0.003 A 
HETATM   21  C   UNK N   1       3.448  -4.241   0.152  0.00  0.00     0.009 A 
HETATM   22  C   UNK N   1       3.877  -5.563   0.330  0.00  0.00    -0.028 A 
HETATM   23  C   UNK N   1       2.956  -6.609   0.249  0.00  0.00     0.045 A 
BRANCH  22  24
HETATM   24  C   UNK N   1       5.264  -5.875   0.787  0.00  0.00     0.311 C 
BRANCH  24  25
HETATM   25  N   UNK N   1       6.301  -5.393  -0.110  0.00  0.00     0.092 N 
HETATM   26  C   UNK N   1       6.680  -4.064   0.384  0.00  0.00     0.272 C 
HETATM   27  C   UNK N   1       7.890  -3.522  -0.373  0.00  0.00     0.030 C 
HETATM   28  C   UNK N   1       9.062  -4.476  -0.192  0.00  0.00     0.003 C 
HETATM   29  C   UNK N   1       8.660  -5.866  -0.665  0.00  0.00     0.030 C 
HETATM   30  C   UNK N   1       7.419  -6.316   0.099  0.00  0.00     0.272 C 
ENDBRANCH  24  25
ENDBRANCH  22  24
ENDBRANCH  17  18
ENDBRANCH  16  17
ENDBRANCH   1  16
TORSDOF 9
