MODEL 1
REMARK VINA RESULT:      -8.3      0.000      0.000
REMARK  5 active torsions:
REMARK  status: ('A' for Active; 'I' for Inactive)
REMARK    1  A    between atoms: O_2  and  C_3 
REMARK    2  A    between atoms: C_5  and  N_10 
REMARK       I    between atoms: N_13  and  C_16 
REMARK    3  A    between atoms: C_16  and  C_18 
REMARK    4  A    between atoms: C_18  and  N_19 
REMARK    5  A    between atoms: C_27  and  C_30 
ROOT
HETATM    1  N   UNK N   1      32.199  17.034   7.769  0.00  0.00    -0.266 N 
HETATM    2  C   UNK N   1      31.030  17.501   8.242  0.00  0.00     0.135 A 
HETATM    3  C   UNK N   1      30.064  17.346   7.298  0.00  0.00     0.041 A 
HETATM    4  C   UNK N   1      28.763  17.774   7.530  0.00  0.00     0.019 A 
HETATM    5  C   UNK N   1      28.492  18.363   8.779  0.00  0.00     0.018 A 
HETATM    6  C   UNK N   1      29.528  18.505   9.733  0.00  0.00     0.090 A 
HETATM    7  N   UNK N   1      30.792  18.074   9.446  0.00  0.00    -0.350 N 
ATOM      8  HN  UNK N   1      31.544  18.182  10.127  1.00  0.00     0.166 HD
HETATM    9  C   UNK N   1      30.703  16.765   6.219  0.00  0.00     0.106 A 
HETATM   10  N   UNK N   1      32.008  16.582   6.537  0.00  0.00    -0.292 N 
ATOM     11  HN  UNK N   1      32.718  16.168   5.935  1.00  0.00     0.187 HD
ENDROOT
BRANCH   1  12
HETATM   12  C   UNK N   1      33.518  17.085   8.376  0.00  0.00     0.253 C 
BRANCH  12  13
HETATM   13  C   UNK N   1      34.374  15.881   8.120  0.00  0.00     0.239 C 
HETATM   14  N   UNK N   1      35.297  15.499   9.039  0.00  0.00    -0.348 N 
HETATM   15  C   UNK N   1      35.432  16.233  10.270  0.00  0.00     0.145 C 
HETATM   16  C   UNK N   1      35.842  14.167   9.003  0.00  0.00     0.145 C 
HETATM   17  C   UNK N   1      34.563  15.497  11.271  0.00  0.00     0.143 C 
HETATM   18  N   UNK N   1      34.944  14.095  11.278  0.00  0.00    -0.378 N 
HETATM   19  C   UNK N   1      35.034  13.362  10.020  0.00  0.00     0.143 C 
HETATM   20  O   UNK N   1      34.137  15.170   7.156  0.00  0.00    -0.271 OA
BRANCH  18  21
HETATM   21  C   UNK N   1      35.276  13.468  12.503  0.00  0.00     0.033 A 
HETATM   22  C   UNK N   1      36.159  14.092  13.394  0.00  0.00     0.067 A 
HETATM   23  C   UNK N   1      36.508  13.483  14.604  0.00  0.00     0.092 A 
HETATM   24  C   UNK N   1      35.967  12.225  14.916  0.00  0.00     0.067 A 
HETATM   25  C   UNK N   1      35.077  11.603  14.035  0.00  0.00     0.029 A 
HETATM   26 Cl   UNK N   1      36.394  11.412  16.407  0.00  0.00    -0.081 Cl
HETATM   27  C   UNK N   1      34.728  12.223  12.838  0.00  0.00     0.031 A 
BRANCH  23  28
HETATM   28  O   UNK N   1      37.354  14.087  15.473  0.00  0.00    -0.354 OA
HETATM   29  C   UNK N   1      37.310  15.435  15.754  0.00  0.00     0.210 C 
ENDBRANCH  23  28
ENDBRANCH  18  21
ENDBRANCH  12  13
ENDBRANCH   1  12
BRANCH   9  30
HETATM   30  C   UNK N   1      30.142  16.443   4.905  0.00  0.00     0.134 A 
HETATM   31  N   UNK N   1      29.250  15.456   4.705  0.00  0.00    -0.349 N 
HETATM   32  C   UNK N   1      29.024  15.448   3.380  0.00  0.00     0.107 A 
HETATM   33  H   UNK N   1      28.848  14.868   5.385  0.00  0.00     0.167 HD
HETATM   34  C   UNK N   1      29.797  16.435   2.798  0.00  0.00     0.107 A 
HETATM   35  N   UNK N   1      30.497  17.056   3.764  0.00  0.00    -0.349 N 
ATOM     36  HN  UNK N   1      31.157  17.827   3.654  1.00  0.00     0.167 HD
ENDBRANCH   9  30
TORSDOF 5
ENDMDL
MODEL 2
REMARK VINA RESULT:      -8.2      7.075     10.962
REMARK  5 active torsions:
REMARK  status: ('A' for Active; 'I' for Inactive)
REMARK    1  A    between atoms: O_2  and  C_3 
REMARK    2  A    between atoms: C_5  and  N_10 
REMARK       I    between atoms: N_13  and  C_16 
REMARK    3  A    between atoms: C_16  and  C_18 
REMARK    4  A    between atoms: C_18  and  N_19 
REMARK    5  A    between atoms: C_27  and  C_30 
ROOT
HETATM    1  N   UNK N   1      26.203  16.969   4.797  0.00  0.00    -0.266 N 
HETATM    2  C   UNK N   1      26.465  18.283   4.689  0.00  0.00     0.135 A 
HETATM    3  C   UNK N   1      27.267  18.671   5.715  0.00  0.00     0.041 A 
HETATM    4  C   UNK N   1      27.667  19.996   5.849  0.00  0.00     0.019 A 
HETATM    5  C   UNK N   1      27.211  20.906   4.876  0.00  0.00     0.018 A 
HETATM    6  C   UNK N   1      26.377  20.458   3.825  0.00  0.00     0.090 A 
HETATM    7  N   UNK N   1      26.009  19.145   3.749  0.00  0.00    -0.350 N 
ATOM      8  HN  UNK N   1      25.401  18.819   2.998  1.00  0.00     0.166 HD
HETATM    9  C   UNK N   1      27.479  17.528   6.462  0.00  0.00     0.106 A 
HETATM   10  N   UNK N   1      26.819  16.500   5.874  0.00  0.00    -0.292 N 
ATOM     11  HN  UNK N   1      26.800  15.536   6.202  1.00  0.00     0.187 HD
ENDROOT
BRANCH   1  12
HETATM   12  C   UNK N   1      25.315  16.143   3.997  0.00  0.00     0.253 C 
BRANCH  12  13
HETATM   13  C   UNK N   1      23.858  16.467   4.141  0.00  0.00     0.239 C 
HETATM   14  N   UNK N   1      23.009  15.548   4.667  0.00  0.00    -0.348 N 
HETATM   15  C   UNK N   1      23.513  14.276   5.112  0.00  0.00     0.145 C 
HETATM   16  C   UNK N   1      21.721  15.957   5.165  0.00  0.00     0.145 C 
HETATM   17  C   UNK N   1      23.776  14.446   6.595  0.00  0.00     0.143 C 
HETATM   18  N   UNK N   1      22.570  14.951   7.228  0.00  0.00    -0.378 N 
HETATM   19  C   UNK N   1      21.895  16.121   6.675  0.00  0.00     0.143 C 
HETATM   20  O   UNK N   1      23.471  17.605   3.920  0.00  0.00    -0.271 OA
BRANCH  18  21
HETATM   21  C   UNK N   1      22.030  14.270   8.346  0.00  0.00     0.033 A 
HETATM   22  C   UNK N   1      22.808  13.331   9.037  0.00  0.00     0.067 A 
HETATM   23  C   UNK N   1      22.289  12.639  10.137  0.00  0.00     0.092 A 
HETATM   24  C   UNK N   1      20.967  12.890  10.539  0.00  0.00     0.067 A 
HETATM   25  C   UNK N   1      20.191  13.833   9.859  0.00  0.00     0.029 A 
HETATM   26 Cl   UNK N   1      20.265  12.031  11.894  0.00  0.00    -0.081 Cl
HETATM   27  C   UNK N   1      20.721  14.524   8.772  0.00  0.00     0.031 A 
BRANCH  23  28
HETATM   28  O   UNK N   1      23.041  11.738  10.815  0.00  0.00    -0.354 OA
HETATM   29  C   UNK N   1      24.290  12.026  11.318  0.00  0.00     0.210 C 
ENDBRANCH  23  28
ENDBRANCH  18  21
ENDBRANCH  12  13
ENDBRANCH   1  12
BRANCH   9  30
HETATM   30  C   UNK N   1      28.219  17.395   7.719  0.00  0.00     0.134 A 
HETATM   31  N   UNK N   1      27.622  17.215   8.911  0.00  0.00    -0.349 N 
HETATM   32  C   UNK N   1      28.624  17.191   9.807  0.00  0.00     0.107 A 
HETATM   33  H   UNK N   1      26.658  17.120   9.088  0.00  0.00     0.167 HD
HETATM   34  C   UNK N   1      29.818  17.366   9.134  0.00  0.00     0.107 A 
HETATM   35  N   UNK N   1      29.555  17.493   7.820  0.00  0.00    -0.349 N 
ATOM     36  HN  UNK N   1      30.225  17.634   7.065  1.00  0.00     0.167 HD
ENDBRANCH   9  30
TORSDOF 5
ENDMDL
MODEL 3
REMARK VINA RESULT:      -7.8      3.822      9.584
REMARK  5 active torsions:
REMARK  status: ('A' for Active; 'I' for Inactive)
REMARK    1  A    between atoms: O_2  and  C_3 
REMARK    2  A    between atoms: C_5  and  N_10 
REMARK       I    between atoms: N_13  and  C_16 
REMARK    3  A    between atoms: C_16  and  C_18 
REMARK    4  A    between atoms: C_18  and  N_19 
REMARK    5  A    between atoms: C_27  and  C_30 
ROOT
HETATM    1  N   UNK N   1      35.764  14.343  11.377  0.00  0.00    -0.266 N 
HETATM    2  C   UNK N   1      36.068  13.678  12.506  0.00  0.00     0.135 A 
HETATM    3  C   UNK N   1      37.061  12.785  12.252  0.00  0.00     0.041 A 
HETATM    4  C   UNK N   1      37.544  11.950  13.252  0.00  0.00     0.019 A 
HETATM    5  C   UNK N   1      36.968  12.077  14.530  0.00  0.00     0.018 A 
HETATM    6  C   UNK N   1      35.936  13.021  14.749  0.00  0.00     0.090 A 
HETATM    7  N   UNK N   1      35.495  13.809  13.725  0.00  0.00    -0.350 N 
ATOM      8  HN  UNK N   1      34.746  14.485  13.876  1.00  0.00     0.166 HD
HETATM    9  C   UNK N   1      37.345  12.932  10.907  0.00  0.00     0.106 A 
HETATM   10  N   UNK N   1      36.539  13.894  10.398  0.00  0.00    -0.292 N 
ATOM     11  HN  UNK N   1      36.530  14.219   9.432  1.00  0.00     0.187 HD
ENDROOT
BRANCH   1  12
HETATM   12  C   UNK N   1      34.705  15.309  11.140  0.00  0.00     0.253 C 
BRANCH  12  13
HETATM   13  C   UNK N   1      35.029  16.361  10.123  0.00  0.00     0.239 C 
HETATM   14  N   UNK N   1      34.477  16.298   8.885  0.00  0.00    -0.348 N 
HETATM   15  C   UNK N   1      33.560  15.237   8.560  0.00  0.00     0.145 C 
HETATM   16  C   UNK N   1      34.459  17.466   8.042  0.00  0.00     0.145 C 
HETATM   17  C   UNK N   1      32.180  15.808   8.822  0.00  0.00     0.143 C 
HETATM   18  N   UNK N   1      32.047  17.060   8.096  0.00  0.00    -0.378 N 
HETATM   19  C   UNK N   1      33.075  18.086   8.226  0.00  0.00     0.143 C 
HETATM   20  O   UNK N   1      35.671  17.344  10.460  0.00  0.00    -0.271 OA
BRANCH  18  21
HETATM   21  C   UNK N   1      30.945  17.248   7.227  0.00  0.00     0.033 A 
HETATM   22  C   UNK N   1      31.080  16.987   5.857  0.00  0.00     0.067 A 
HETATM   23  C   UNK N   1      30.005  17.179   4.981  0.00  0.00     0.092 A 
HETATM   24  C   UNK N   1      28.784  17.648   5.491  0.00  0.00     0.067 A 
HETATM   25  C   UNK N   1      28.642  17.899   6.859  0.00  0.00     0.029 A 
HETATM   26 Cl   UNK N   1      27.419  17.927   4.430  0.00  0.00    -0.081 Cl
HETATM   27  C   UNK N   1      29.715  17.695   7.724  0.00  0.00     0.031 A 
BRANCH  23  28
HETATM   28  O   UNK N   1      30.128  16.919   3.657  0.00  0.00    -0.354 OA
HETATM   29  C   UNK N   1      29.992  15.657   3.122  0.00  0.00     0.210 C 
ENDBRANCH  23  28
ENDBRANCH  18  21
ENDBRANCH  12  13
ENDBRANCH   1  12
BRANCH   9  30
HETATM   30  C   UNK N   1      38.291  12.162  10.096  0.00  0.00     0.134 A 
HETATM   31  N   UNK N   1      38.230  10.826   9.960  0.00  0.00    -0.349 N 
HETATM   32  C   UNK N   1      39.284  10.501   9.192  0.00  0.00     0.107 A 
HETATM   33  H   UNK N   1      37.556  10.217  10.341  0.00  0.00     0.167 HD
HETATM   34  C   UNK N   1      39.973  11.658   8.881  0.00  0.00     0.107 A 
HETATM   35  N   UNK N   1      39.342  12.699   9.453  0.00  0.00    -0.349 N 
ATOM     36  HN  UNK N   1      39.605  13.683   9.410  1.00  0.00     0.167 HD
ENDBRANCH   9  30
TORSDOF 5
ENDMDL
MODEL 4
REMARK VINA RESULT:      -7.8      2.106      3.779
REMARK  5 active torsions:
REMARK  status: ('A' for Active; 'I' for Inactive)
REMARK    1  A    between atoms: O_2  and  C_3 
REMARK    2  A    between atoms: C_5  and  N_10 
REMARK       I    between atoms: N_13  and  C_16 
REMARK    3  A    between atoms: C_16  and  C_18 
REMARK    4  A    between atoms: C_18  and  N_19 
REMARK    5  A    between atoms: C_27  and  C_30 
ROOT
HETATM    1  N   UNK N   1      34.035  16.047   8.933  0.00  0.00    -0.266 N 
HETATM    2  C   UNK N   1      33.955  16.078   7.591  0.00  0.00     0.135 A 
HETATM    3  C   UNK N   1      32.766  16.623   7.220  0.00  0.00     0.041 A 
HETATM    4  C   UNK N   1      32.424  16.747   5.879  0.00  0.00     0.019 A 
HETATM    5  C   UNK N   1      33.360  16.292   4.931  0.00  0.00     0.018 A 
HETATM    6  C   UNK N   1      34.585  15.731   5.362  0.00  0.00     0.090 A 
HETATM    7  N   UNK N   1      34.865  15.626   6.695  0.00  0.00    -0.350 N 
ATOM      8  HN  UNK N   1      35.743  15.215   7.011  1.00  0.00     0.166 HD
HETATM    9  C   UNK N   1      32.119  16.920   8.405  0.00  0.00     0.106 A 
HETATM   10  N   UNK N   1      32.921  16.560   9.437  0.00  0.00    -0.292 N 
ATOM     11  HN  UNK N   1      32.706  16.666  10.427  1.00  0.00     0.187 HD
ENDROOT
BRANCH   1  12
HETATM   12  C   UNK N   1      35.064  15.462   9.775  0.00  0.00     0.253 C 
BRANCH  12  13
HETATM   13  C   UNK N   1      35.202  13.974   9.658  0.00  0.00     0.239 C 
HETATM   14  N   UNK N   1      35.848  13.276  10.625  0.00  0.00    -0.348 N 
HETATM   15  C   UNK N   1      36.377  13.961  11.774  0.00  0.00     0.145 C 
HETATM   16  C   UNK N   1      35.661  11.852  10.735  0.00  0.00     0.145 C 
HETATM   17  C   UNK N   1      35.298  13.855  12.834  0.00  0.00     0.143 C 
HETATM   18  N   UNK N   1      34.934  12.457  12.992  0.00  0.00    -0.378 N 
HETATM   19  C   UNK N   1      34.600  11.658  11.818  0.00  0.00     0.143 C 
HETATM   20  O   UNK N   1      34.605  13.385   8.769  0.00  0.00    -0.271 OA
BRANCH  18  21
HETATM   21  C   UNK N   1      34.960  11.870  14.280  0.00  0.00     0.033 A 
HETATM   22  C   UNK N   1      35.143  12.674  15.413  0.00  0.00     0.067 A 
HETATM   23  C   UNK N   1      35.182  12.110  16.694  0.00  0.00     0.092 A 
HETATM   24  C   UNK N   1      35.045  10.720  16.832  0.00  0.00     0.067 A 
HETATM   25  C   UNK N   1      34.851   9.916  15.705  0.00  0.00     0.029 A 
HETATM   26 Cl   UNK N   1      35.112   9.967  18.412  0.00  0.00    -0.081 Cl
HETATM   27  C   UNK N   1      34.803  10.488  14.436  0.00  0.00     0.031 A 
BRANCH  23  28
HETATM   28  O   UNK N   1      35.349  12.885  17.794  0.00  0.00    -0.354 OA
HETATM   29  C   UNK N   1      35.312  14.261  17.758  0.00  0.00     0.210 C 
ENDBRANCH  23  28
ENDBRANCH  18  21
ENDBRANCH  12  13
ENDBRANCH   1  12
BRANCH   9  30
HETATM   30  C   UNK N   1      30.771  17.463   8.585  0.00  0.00     0.134 A 
HETATM   31  N   UNK N   1      30.439  18.298   9.586  0.00  0.00    -0.349 N 
HETATM   32  C   UNK N   1      29.123  18.524   9.435  0.00  0.00     0.107 A 
HETATM   33  H   UNK N   1      31.034  18.665  10.279  0.00  0.00     0.167 HD
HETATM   34  C   UNK N   1      28.678  17.809   8.339  0.00  0.00     0.107 A 
HETATM   35  N   UNK N   1      29.721  17.145   7.809  0.00  0.00    -0.349 N 
ATOM     36  HN  UNK N   1      29.716  16.530   6.995  1.00  0.00     0.167 HD
ENDBRANCH   9  30
TORSDOF 5
ENDMDL
MODEL 5
REMARK VINA RESULT:      -7.8      3.924     10.628
REMARK  5 active torsions:
REMARK  status: ('A' for Active; 'I' for Inactive)
REMARK    1  A    between atoms: O_2  and  C_3 
REMARK    2  A    between atoms: C_5  and  N_10 
REMARK       I    between atoms: N_13  and  C_16 
REMARK    3  A    between atoms: C_16  and  C_18 
REMARK    4  A    between atoms: C_18  and  N_19 
REMARK    5  A    between atoms: C_27  and  C_30 
ROOT
HETATM    1  N   UNK N   1      35.334  12.142  13.780  0.00  0.00    -0.266 N 
HETATM    2  C   UNK N   1      36.215  11.152  14.009  0.00  0.00     0.135 A 
HETATM    3  C   UNK N   1      36.362  10.977  15.348  0.00  0.00     0.041 A 
HETATM    4  C   UNK N   1      37.240  10.026  15.853  0.00  0.00     0.019 A 
HETATM    5  C   UNK N   1      37.957   9.253  14.920  0.00  0.00     0.018 A 
HETATM    6  C   UNK N   1      37.773   9.469  13.534  0.00  0.00     0.090 A 
HETATM    7  N   UNK N   1      36.902  10.425  13.095  0.00  0.00    -0.350 N 
ATOM      8  HN  UNK N   1      36.772  10.591  12.097  1.00  0.00     0.166 HD
HETATM    9  C   UNK N   1      35.531  11.916  15.930  0.00  0.00     0.106 A 
HETATM   10  N   UNK N   1      34.912  12.613  14.945  0.00  0.00    -0.292 N 
ATOM     11  HN  UNK N   1      34.238  13.365  15.077  1.00  0.00     0.187 HD
ENDROOT
BRANCH   1  12
HETATM   12  C   UNK N   1      34.944  12.746  12.517  0.00  0.00     0.253 C 
BRANCH  12  13
HETATM   13  C   UNK N   1      35.649  14.028  12.190  0.00  0.00     0.239 C 
HETATM   14  N   UNK N   1      35.798  14.407  10.895  0.00  0.00    -0.348 N 
HETATM   15  C   UNK N   1      35.255  13.592   9.841  0.00  0.00     0.145 C 
HETATM   16  C   UNK N   1      36.111  15.776  10.575  0.00  0.00     0.145 C 
HETATM   17  C   UNK N   1      33.888  14.178   9.545  0.00  0.00     0.143 C 
HETATM   18  N   UNK N   1      34.037  15.600   9.288  0.00  0.00    -0.378 N 
HETATM   19  C   UNK N   1      34.775  16.435  10.230  0.00  0.00     0.143 C 
HETATM   20  O   UNK N   1      35.954  14.793  13.092  0.00  0.00    -0.271 OA
BRANCH  18  21
HETATM   21  C   UNK N   1      33.507  16.153   8.097  0.00  0.00     0.033 A 
HETATM   22  C   UNK N   1      32.124  16.140   7.873  0.00  0.00     0.067 A 
HETATM   23  C   UNK N   1      31.583  16.672   6.697  0.00  0.00     0.092 A 
HETATM   24  C   UNK N   1      32.447  17.214   5.732  0.00  0.00     0.067 A 
HETATM   25  C   UNK N   1      33.826  17.238   5.956  0.00  0.00     0.029 A 
HETATM   26 Cl   UNK N   1      31.818  17.868   4.234  0.00  0.00    -0.081 Cl
HETATM   27  C   UNK N   1      34.354  16.716   7.135  0.00  0.00     0.031 A 
BRANCH  23  28
HETATM   28  O   UNK N   1      30.245  16.671   6.480  0.00  0.00    -0.354 OA
HETATM   29  C   UNK N   1      29.373  17.502   7.147  0.00  0.00     0.210 C 
ENDBRANCH  23  28
ENDBRANCH  18  21
ENDBRANCH  12  13
ENDBRANCH   1  12
BRANCH   9  30
HETATM   30  C   UNK N   1      35.357  12.209  17.354  0.00  0.00     0.134 A 
HETATM   31  N   UNK N   1      35.190  13.453  17.836  0.00  0.00    -0.349 N 
HETATM   32  C   UNK N   1      35.118  13.307  19.171  0.00  0.00     0.107 A 
HETATM   33  H   UNK N   1      35.131  14.291  17.322  0.00  0.00     0.167 HD
HETATM   34  C   UNK N   1      35.251  11.965  19.473  0.00  0.00     0.107 A 
HETATM   35  N   UNK N   1      35.401  11.281  18.324  0.00  0.00    -0.349 N 
ATOM     36  HN  UNK N   1      35.523  10.274  18.213  1.00  0.00     0.167 HD
ENDBRANCH   9  30
TORSDOF 5
ENDMDL
MODEL 6
REMARK VINA RESULT:      -7.8      6.080      9.394
REMARK  5 active torsions:
REMARK  status: ('A' for Active; 'I' for Inactive)
REMARK    1  A    between atoms: O_2  and  C_3 
REMARK    2  A    between atoms: C_5  and  N_10 
REMARK       I    between atoms: N_13  and  C_16 
REMARK    3  A    between atoms: C_16  and  C_18 
REMARK    4  A    between atoms: C_18  and  N_19 
REMARK    5  A    between atoms: C_27  and  C_30 
ROOT
HETATM    1  N   UNK N   1      23.906  18.734   4.636  0.00  0.00    -0.266 N 
HETATM    2  C   UNK N   1      22.816  19.124   3.950  0.00  0.00     0.135 A 
HETATM    3  C   UNK N   1      21.740  18.402   4.361  0.00  0.00     0.041 A 
HETATM    4  C   UNK N   1      20.489  18.595   3.788  0.00  0.00     0.019 A 
HETATM    5  C   UNK N   1      20.388  19.570   2.777  0.00  0.00     0.018 A 
HETATM    6  C   UNK N   1      21.535  20.297   2.381  0.00  0.00     0.090 A 
HETATM    7  N   UNK N   1      22.742  20.059   2.973  0.00  0.00    -0.350 N 
ATOM      8  HN  UNK N   1      23.573  20.574   2.685  1.00  0.00     0.166 HD
HETATM    9  C   UNK N   1      22.227  17.545   5.330  0.00  0.00     0.106 A 
HETATM   10  N   UNK N   1      23.555  17.773   5.480  0.00  0.00    -0.292 N 
ATOM     11  HN  UNK N   1      24.176  17.291   6.129  1.00  0.00     0.187 HD
ENDROOT
BRANCH   1  12
HETATM   12  C   UNK N   1      25.289  19.144   4.466  0.00  0.00     0.253 C 
BRANCH  12  13
HETATM   13  C   UNK N   1      26.169  18.129   3.801  0.00  0.00     0.239 C 
HETATM   14  N   UNK N   1      27.518  18.240   3.891  0.00  0.00    -0.348 N 
HETATM   15  C   UNK N   1      28.102  19.315   4.648  0.00  0.00     0.145 C 
HETATM   16  C   UNK N   1      28.356  17.103   3.606  0.00  0.00     0.145 C 
HETATM   17  C   UNK N   1      28.354  18.741   6.029  0.00  0.00     0.143 C 
HETATM   18  N   UNK N   1      29.125  17.517   5.892  0.00  0.00    -0.378 N 
HETATM   19  C   UNK N   1      28.685  16.482   4.964  0.00  0.00     0.143 C 
HETATM   20  O   UNK N   1      25.666  17.131   3.307  0.00  0.00    -0.271 OA
BRANCH  18  21
HETATM   21  C   UNK N   1      30.328  17.365   6.624  0.00  0.00     0.033 A 
HETATM   22  C   UNK N   1      31.543  17.193   5.947  0.00  0.00     0.067 A 
HETATM   23  C   UNK N   1      32.740  17.029   6.654  0.00  0.00     0.092 A 
HETATM   24  C   UNK N   1      32.711  17.030   8.058  0.00  0.00     0.067 A 
HETATM   25  C   UNK N   1      31.502  17.212   8.736  0.00  0.00     0.029 A 
HETATM   26 Cl   UNK N   1      34.179  16.805   8.984  0.00  0.00    -0.081 Cl
HETATM   27  C   UNK N   1      30.318  17.385   8.024  0.00  0.00     0.031 A 
BRANCH  23  28
HETATM   28  O   UNK N   1      33.920  16.873   6.004  0.00  0.00    -0.354 OA
HETATM   29  C   UNK N   1      34.208  15.777   5.220  0.00  0.00     0.210 C 
ENDBRANCH  23  28
ENDBRANCH  18  21
ENDBRANCH  12  13
ENDBRANCH   1  12
BRANCH   9  30
HETATM   30  C   UNK N   1      21.504  16.499   6.056  0.00  0.00     0.134 A 
HETATM   31  N   UNK N   1      21.228  15.292   5.530  0.00  0.00    -0.349 N 
HETATM   32  C   UNK N   1      20.520  14.650   6.476  0.00  0.00     0.107 A 
HETATM   33  H   UNK N   1      21.489  14.953   4.644  0.00  0.00     0.167 HD
HETATM   34  C   UNK N   1      20.374  15.491   7.562  0.00  0.00     0.107 A 
HETATM   35  N   UNK N   1      20.997  16.653   7.291  0.00  0.00    -0.349 N 
ATOM     36  HN  UNK N   1      21.068  17.473   7.892  1.00  0.00     0.167 HD
ENDBRANCH   9  30
TORSDOF 5
ENDMDL
MODEL 7
REMARK VINA RESULT:      -7.7      3.994     10.122
REMARK  5 active torsions:
REMARK  status: ('A' for Active; 'I' for Inactive)
REMARK    1  A    between atoms: O_2  and  C_3 
REMARK    2  A    between atoms: C_5  and  N_10 
REMARK       I    between atoms: N_13  and  C_16 
REMARK    3  A    between atoms: C_16  and  C_18 
REMARK    4  A    between atoms: C_18  and  N_19 
REMARK    5  A    between atoms: C_27  and  C_30 
ROOT
HETATM    1  N   UNK N   1      35.075  14.044  10.085  0.00  0.00    -0.266 N 
HETATM    2  C   UNK N   1      36.326  13.641   9.800  0.00  0.00     0.135 A 
HETATM    3  C   UNK N   1      36.992  13.379  10.956  0.00  0.00     0.041 A 
HETATM    4  C   UNK N   1      38.319  12.967  10.939  0.00  0.00     0.019 A 
HETATM    5  C   UNK N   1      38.933  12.827   9.680  0.00  0.00     0.018 A 
HETATM    6  C   UNK N   1      38.202  13.111   8.502  0.00  0.00     0.090 A 
HETATM    7  N   UNK N   1      36.901  13.521   8.580  0.00  0.00    -0.350 N 
ATOM      8  HN  UNK N   1      36.372  13.735   7.735  1.00  0.00     0.166 HD
HETATM    9  C   UNK N   1      36.086  13.649  11.965  0.00  0.00     0.106 A 
HETATM   10  N   UNK N   1      34.921  14.051  11.402  0.00  0.00    -0.292 N 
ATOM     11  HN  UNK N   1      34.072  14.312  11.904  1.00  0.00     0.187 HD
ENDROOT
BRANCH   1  12
HETATM   12  C   UNK N   1      34.042  14.529   9.185  0.00  0.00     0.253 C 
BRANCH  12  13
HETATM   13  C   UNK N   1      33.982  16.020   9.043  0.00  0.00     0.239 C 
HETATM   14  N   UNK N   1      33.473  16.572   7.912  0.00  0.00    -0.348 N 
HETATM   15  C   UNK N   1      32.967  15.726   6.864  0.00  0.00     0.145 C 
HETATM   16  C   UNK N   1      33.053  17.949   7.908  0.00  0.00     0.145 C 
HETATM   17  C   UNK N   1      31.478  15.613   7.125  0.00  0.00     0.143 C 
HETATM   18  N   UNK N   1      30.921  16.950   7.238  0.00  0.00    -0.378 N 
HETATM   19  C   UNK N   1      31.541  17.920   8.134  0.00  0.00     0.143 C 
HETATM   20  O   UNK N   1      34.255  16.726  10.002  0.00  0.00    -0.271 OA
BRANCH  18  21
HETATM   21  C   UNK N   1      29.813  17.315   6.436  0.00  0.00     0.033 A 
HETATM   22  C   UNK N   1      28.962  18.351   6.845  0.00  0.00     0.067 A 
HETATM   23  C   UNK N   1      27.855  18.718   6.071  0.00  0.00     0.092 A 
HETATM   24  C   UNK N   1      27.598  18.027   4.876  0.00  0.00     0.067 A 
HETATM   25  C   UNK N   1      28.451  17.000   4.459  0.00  0.00     0.029 A 
HETATM   26 Cl   UNK N   1      26.212  18.434   3.887  0.00  0.00    -0.081 Cl
HETATM   27  C   UNK N   1      29.556  16.650   5.232  0.00  0.00     0.031 A 
BRANCH  23  28
HETATM   28  O   UNK N   1      27.035  19.725   6.457  0.00  0.00    -0.354 OA
HETATM   29  C   UNK N   1      27.387  21.055   6.380  0.00  0.00     0.210 C 
ENDBRANCH  23  28
ENDBRANCH  18  21
ENDBRANCH  12  13
ENDBRANCH   1  12
BRANCH   9  30
HETATM   30  C   UNK N   1      36.306  13.599  13.412  0.00  0.00     0.134 A 
HETATM   31  N   UNK N   1      35.966  12.545  14.174  0.00  0.00    -0.349 N 
HETATM   32  C   UNK N   1      36.279  12.903  15.431  0.00  0.00     0.107 A 
HETATM   33  H   UNK N   1      35.572  11.694  13.875  0.00  0.00     0.167 HD
HETATM   34  C   UNK N   1      36.802  14.182  15.406  0.00  0.00     0.107 A 
HETATM   35  N   UNK N   1      36.816  14.613  14.131  0.00  0.00    -0.349 N 
ATOM     36  HN  UNK N   1      37.143  15.515  13.785  1.00  0.00     0.167 HD
ENDBRANCH   9  30
TORSDOF 5
ENDMDL
MODEL 8
REMARK VINA RESULT:      -7.6      2.625      4.930
REMARK  5 active torsions:
REMARK  status: ('A' for Active; 'I' for Inactive)
REMARK    1  A    between atoms: O_2  and  C_3 
REMARK    2  A    between atoms: C_5  and  N_10 
REMARK       I    between atoms: N_13  and  C_16 
REMARK    3  A    between atoms: C_16  and  C_18 
REMARK    4  A    between atoms: C_18  and  N_19 
REMARK    5  A    between atoms: C_27  and  C_30 
ROOT
HETATM    1  N   UNK N   1      29.587  16.791   4.871  0.00  0.00    -0.266 N 
HETATM    2  C   UNK N   1      28.530  16.485   4.097  0.00  0.00     0.135 A 
HETATM    3  C   UNK N   1      27.579  17.446   4.230  0.00  0.00     0.041 A 
HETATM    4  C   UNK N   1      26.370  17.354   3.550  0.00  0.00     0.019 A 
HETATM    5  C   UNK N   1      26.183  16.233   2.720  0.00  0.00     0.018 A 
HETATM    6  C   UNK N   1      27.201  15.256   2.612  0.00  0.00     0.090 A 
HETATM    7  N   UNK N   1      28.366  15.395   3.311  0.00  0.00    -0.350 N 
ATOM      8  HN  UNK N   1      29.099  14.689   3.244  1.00  0.00     0.166 HD
HETATM    9  C   UNK N   1      28.104  18.355   5.130  0.00  0.00     0.106 A 
HETATM   10  N   UNK N   1      29.335  17.930   5.503  0.00  0.00    -0.292 N 
ATOM     11  HN  UNK N   1      29.960  18.403   6.154  1.00  0.00     0.187 HD
ENDROOT
BRANCH   1  12
HETATM   12  C   UNK N   1      30.786  16.013   5.133  0.00  0.00     0.253 C 
BRANCH  12  13
HETATM   13  C   UNK N   1      32.036  16.822   5.301  0.00  0.00     0.239 C 
HETATM   14  N   UNK N   1      32.451  17.177   6.543  0.00  0.00    -0.348 N 
HETATM   15  C   UNK N   1      31.705  16.753   7.698  0.00  0.00     0.145 C 
HETATM   16  C   UNK N   1      33.810  17.603   6.757  0.00  0.00     0.145 C 
HETATM   17  C   UNK N   1      32.377  15.476   8.162  0.00  0.00     0.143 C 
HETATM   18  N   UNK N   1      33.797  15.732   8.334  0.00  0.00    -0.378 N 
HETATM   19  C   UNK N   1      34.555  16.367   7.261  0.00  0.00     0.143 C 
HETATM   20  O   UNK N   1      32.751  17.031   4.332  0.00  0.00    -0.271 OA
BRANCH  18  21
HETATM   21  C   UNK N   1      34.420  15.410   9.564  0.00  0.00     0.033 A 
HETATM   22  C   UNK N   1      34.335  14.107  10.074  0.00  0.00     0.067 A 
HETATM   23  C   UNK N   1      34.934  13.773  11.294  0.00  0.00     0.092 A 
HETATM   24  C   UNK N   1      35.619  14.766  12.012  0.00  0.00     0.067 A 
HETATM   25  C   UNK N   1      35.716  16.064  11.502  0.00  0.00     0.029 A 
HETATM   26 Cl   UNK N   1      36.364  14.402  13.554  0.00  0.00    -0.081 Cl
HETATM   27  C   UNK N   1      35.125  16.384  10.282  0.00  0.00     0.031 A 
BRANCH  23  28
HETATM   28  O   UNK N   1      34.863  12.513  11.786  0.00  0.00    -0.354 OA
HETATM   29  C   UNK N   1      34.744  11.398  10.986  0.00  0.00     0.210 C 
ENDBRANCH  23  28
ENDBRANCH  18  21
ENDBRANCH  12  13
ENDBRANCH   1  12
BRANCH   9  30
HETATM   30  C   UNK N   1      27.464  19.551   5.682  0.00  0.00     0.134 A 
HETATM   31  N   UNK N   1      27.254  20.671   4.968  0.00  0.00    -0.349 N 
HETATM   32  C   UNK N   1      26.700  21.540   5.831  0.00  0.00     0.107 A 
HETATM   33  H   UNK N   1      27.462  20.821   4.017  0.00  0.00     0.167 HD
HETATM   34  C   UNK N   1      26.590  20.925   7.063  0.00  0.00     0.107 A 
HETATM   35  N   UNK N   1      27.073  19.673   6.961  0.00  0.00    -0.349 N 
ATOM     36  HN  UNK N   1      27.130  18.969   7.696  1.00  0.00     0.167 HD
ENDBRANCH   9  30
TORSDOF 5
ENDMDL
MODEL 9
REMARK VINA RESULT:      -7.6      1.783      2.083
REMARK  5 active torsions:
REMARK  status: ('A' for Active; 'I' for Inactive)
REMARK    1  A    between atoms: O_2  and  C_3 
REMARK    2  A    between atoms: C_5  and  N_10 
REMARK       I    between atoms: N_13  and  C_16 
REMARK    3  A    between atoms: C_16  and  C_18 
REMARK    4  A    between atoms: C_18  and  N_19 
REMARK    5  A    between atoms: C_27  and  C_30 
ROOT
HETATM    1  N   UNK N   1      33.440  16.005   8.046  0.00  0.00    -0.266 N 
HETATM    2  C   UNK N   1      32.281  16.681   8.139  0.00  0.00     0.135 A 
HETATM    3  C   UNK N   1      31.407  16.212   7.210  0.00  0.00     0.041 A 
HETATM    4  C   UNK N   1      30.138  16.762   7.080  0.00  0.00     0.019 A 
HETATM    5  C   UNK N   1      29.800  17.813   7.953  0.00  0.00     0.018 A 
HETATM    6  C   UNK N   1      30.741  18.270   8.906  0.00  0.00     0.090 A 
HETATM    7  N   UNK N   1      31.979  17.697   8.982  0.00  0.00    -0.350 N 
ATOM      8  HN  UNK N   1      32.664  18.028   9.661  1.00  0.00     0.166 HD
HETATM    9  C   UNK N   1      32.092  15.217   6.537  0.00  0.00     0.106 A 
HETATM   10  N   UNK N   1      33.333  15.110   7.073  0.00  0.00    -0.292 N 
ATOM     11  HN  UNK N   1      34.057  14.455   6.780  1.00  0.00     0.187 HD
ENDROOT
BRANCH   1  12
HETATM   12  C   UNK N   1      34.688  16.226   8.756  0.00  0.00     0.253 C 
BRANCH  12  13
HETATM   13  C   UNK N   1      35.627  15.057   8.756  0.00  0.00     0.239 C 
HETATM   14  N   UNK N   1      36.153  14.612   9.925  0.00  0.00    -0.348 N 
HETATM   15  C   UNK N   1      35.789  15.246  11.165  0.00  0.00     0.145 C 
HETATM   16  C   UNK N   1      36.727  13.294  10.002  0.00  0.00     0.145 C 
HETATM   17  C   UNK N   1      34.640  14.422  11.712  0.00  0.00     0.143 C 
HETATM   18  N   UNK N   1      35.048  13.028  11.762  0.00  0.00    -0.378 N 
HETATM   19  C   UNK N   1      35.631  12.400  10.582  0.00  0.00     0.143 C 
HETATM   20  O   UNK N   1      35.795  14.423   7.725  0.00  0.00    -0.271 OA
BRANCH  18  21
HETATM   21  C   UNK N   1      34.923  12.308  12.975  0.00  0.00     0.033 A 
HETATM   22  C   UNK N   1      35.440  12.841  14.163  0.00  0.00     0.067 A 
HETATM   23  C   UNK N   1      35.337  12.139  15.370  0.00  0.00     0.092 A 
HETATM   24  C   UNK N   1      34.714  10.880  15.376  0.00  0.00     0.067 A 
HETATM   25  C   UNK N   1      34.187  10.350  14.194  0.00  0.00     0.029 A 
HETATM   26 Cl   UNK N   1      34.583   9.954  16.856  0.00  0.00    -0.081 Cl
HETATM   27  C   UNK N   1      34.286  11.062  13.001  0.00  0.00     0.031 A 
BRANCH  23  28
HETATM   28  O   UNK N   1      35.826  12.655  16.523  0.00  0.00    -0.354 OA
HETATM   29  C   UNK N   1      35.058  13.375  17.412  0.00  0.00     0.210 C 
ENDBRANCH  23  28
ENDBRANCH  18  21
ENDBRANCH  12  13
ENDBRANCH   1  12
BRANCH   9  30
HETATM   30  C   UNK N   1      31.640  14.428   5.390  0.00  0.00     0.134 A 
HETATM   31  N   UNK N   1      31.707  14.867   4.120  0.00  0.00    -0.349 N 
HETATM   32  C   UNK N   1      31.158  13.888   3.380  0.00  0.00     0.107 A 
HETATM   33  H   UNK N   1      32.079  15.721   3.802  0.00  0.00     0.167 HD
HETATM   34  C   UNK N   1      30.759  12.870   4.225  0.00  0.00     0.107 A 
HETATM   35  N   UNK N   1      31.067  13.217   5.488  0.00  0.00    -0.349 N 
ATOM     36  HN  UNK N   1      30.900  12.677   6.337  1.00  0.00     0.167 HD
ENDBRANCH   9  30
TORSDOF 5
ENDMDL
