MODEL 1
REMARK VINA RESULT:      -6.6      0.000      0.000
REMARK  5 active torsions:
REMARK  status: ('A' for Active; 'I' for Inactive)
REMARK    1  A    between atoms: N_4  and  O_24 
REMARK    2  A    between atoms: C_5  and  C_6 
REMARK    3  A    between atoms: C_6  and  O_7 
REMARK    4  A    between atoms: O_7  and  C_8 
REMARK       I    between atoms: C_8  and  N_9 
REMARK       I    between atoms: C_15  and  N_16 
REMARK    5  A    between atoms: C_21  and  O_23 
ROOT
HETATM    1  N   UNK N   1      35.013  17.416  10.270  0.00  0.00    -0.233 N 
ATOM      2  HN  UNK N   1      34.607  18.174   9.721  1.00  0.00     0.174 HD
HETATM    3  C   UNK N   1      34.926  16.215   9.815  0.00  0.00     0.698 C 
HETATM    4  N   UNK N   1      36.025  15.332   9.985  0.00  0.00    -0.082 N 
HETATM    5  C   UNK N   1      36.008  13.980   9.470  0.00  0.00     0.185 C 
HETATM    6  C   UNK N   1      34.987  13.756   8.312  0.00  0.00     0.183 C 
HETATM    7  C   UNK N   1      33.625  14.524   8.475  0.00  0.00     0.217 C 
HETATM    8  N   UNK N   1      32.808  13.568   9.202  0.00  0.00    -0.191 N 
ATOM      9  HN  UNK N   1      31.965  13.796   9.729  1.00  0.00     0.180 HD
HETATM   10  C   UNK N   1      33.305  12.404   9.081  0.00  0.00     0.670 C 
HETATM   11  N   UNK N   1      32.713  11.254   9.645  0.00  0.00    -0.235 N 
HETATM   12  N   UNK N   1      34.533  12.388   8.415  0.00  0.00    -0.215 N 
HETATM   13  N   UNK N   1      33.732  15.796   9.151  0.00  0.00    -0.181 N 
HETATM   14  C   UNK N   1      32.913  16.811   8.564  0.00  0.00     0.150 C 
HETATM   15  C   UNK N   1      32.625  16.318   7.164  0.00  0.00     0.093 C 
HETATM   16  C   UNK N   1      32.939  14.848   7.121  0.00  0.00     0.209 C 
HETATM   17  O   UNK N   1      33.773  14.598   6.092  0.00  0.00    -0.362 OA
HETATM   18  H   UNK N   1      35.453  17.637  11.122  0.00  0.00     0.174 HD
HETATM   19  H   UNK N   1      31.819  10.882   9.467  0.00  0.00     0.174 HD
HETATM   20  H   UNK N   1      33.262  10.763  10.298  0.00  0.00     0.174 HD
HETATM   21  H   UNK N   1      35.003  11.590   8.078  0.00  0.00     0.178 HD
HETATM   22  H   UNK N   1      34.362  14.557   5.363  0.00  0.00     0.213 HD
ENDROOT
BRANCH  16  23
HETATM   23  O   UNK N   1      31.777  14.172   6.979  0.00  0.00    -0.362 OA
HETATM   24  H   UNK N   1      31.063  14.365   6.404  0.00  0.00     0.213 HD
ENDBRANCH  16  23
BRANCH   5  25
HETATM   25  C   UNK N   1      35.919  12.980  10.633  0.00  0.00     0.211 C 
BRANCH  25  26
HETATM   26  O   UNK N   1      35.087  13.439  11.628  0.00  0.00    -0.302 OA
BRANCH  26  27
HETATM   27  C   UNK N   1      35.500  13.554  12.913  0.00  0.00     0.358 C 
HETATM   28  N   UNK N   1      36.757  13.962  13.173  0.00  0.00    -0.346 N 
HETATM   29  H   UNK N   1      37.213  13.670  13.996  0.00  0.00     0.161 HD
HETATM   30  H   UNK N   1      37.221  14.553  12.539  0.00  0.00     0.161 HD
HETATM   31  O   UNK N   1      34.748  13.286  13.839  0.00  0.00    -0.239 OA
ENDBRANCH  26  27
ENDBRANCH  25  26
ENDBRANCH   5  25
BRANCH   4  32
HETATM   32  O   UNK N   1      37.090  15.741  10.691  0.00  0.00    -0.273 OA
HETATM   33  H   UNK N   1      37.734  16.358  10.311  0.00  0.00     0.245 HD
ENDBRANCH   4  32
TORSDOF 5
ENDMDL
MODEL 2
REMARK VINA RESULT:      -6.3      4.028      6.336
REMARK  5 active torsions:
REMARK  status: ('A' for Active; 'I' for Inactive)
REMARK    1  A    between atoms: N_4  and  O_24 
REMARK    2  A    between atoms: C_5  and  C_6 
REMARK    3  A    between atoms: C_6  and  O_7 
REMARK    4  A    between atoms: O_7  and  C_8 
REMARK       I    between atoms: C_8  and  N_9 
REMARK       I    between atoms: C_15  and  N_16 
REMARK    5  A    between atoms: C_21  and  O_23 
ROOT
HETATM    1  N   UNK N   1      29.138  15.801   5.242  0.00  0.00    -0.233 N 
ATOM      2  HN  UNK N   1      28.182  16.107   5.426  1.00  0.00     0.174 HD
HETATM    3  C   UNK N   1      30.011  15.920   6.180  0.00  0.00     0.698 C 
HETATM    4  N   UNK N   1      30.983  14.899   6.353  0.00  0.00    -0.082 N 
HETATM    5  C   UNK N   1      31.971  14.953   7.407  0.00  0.00     0.185 C 
HETATM    6  C   UNK N   1      31.575  15.874   8.601  0.00  0.00     0.183 C 
HETATM    7  C   UNK N   1      30.825  17.196   8.195  0.00  0.00     0.217 C 
HETATM    8  N   UNK N   1      31.917  18.134   8.007  0.00  0.00    -0.191 N 
ATOM      9  HN  UNK N   1      31.859  19.006   7.481  1.00  0.00     0.180 HD
HETATM   10  C   UNK N   1      32.957  17.701   8.596  0.00  0.00     0.670 C 
HETATM   11  N   UNK N   1      34.175  18.413   8.626  0.00  0.00    -0.235 N 
HETATM   12  N   UNK N   1      32.803  16.420   9.132  0.00  0.00    -0.215 N 
HETATM   13  N   UNK N   1      29.986  17.072   7.026  0.00  0.00    -0.181 N 
HETATM   14  C   UNK N   1      28.743  17.769   7.156  0.00  0.00     0.150 C 
HETATM   15  C   UNK N   1      28.554  17.956   8.644  0.00  0.00     0.093 C 
HETATM   16  C   UNK N   1      29.884  17.732   9.307  0.00  0.00     0.209 C 
HETATM   17  O   UNK N   1      29.746  16.823  10.294  0.00  0.00    -0.362 OA
HETATM   18  H   UNK N   1      29.349  15.429   4.356  0.00  0.00     0.174 HD
HETATM   19  H   UNK N   1      34.346  19.308   8.999  0.00  0.00     0.174 HD
HETATM   20  H   UNK N   1      34.950  17.959   8.224  0.00  0.00     0.174 HD
HETATM   21  H   UNK N   1      33.418  15.972   9.758  0.00  0.00     0.178 HD
HETATM   22  H   UNK N   1      29.525  16.173  10.933  0.00  0.00     0.213 HD
ENDROOT
BRANCH  16  23
HETATM   23  O   UNK N   1      30.318  18.915   9.796  0.00  0.00    -0.362 OA
HETATM   24  H   UNK N   1      29.825  19.701   9.929  0.00  0.00     0.213 HD
ENDBRANCH  16  23
BRANCH   5  25
HETATM   25  C   UNK N   1      33.362  15.211   6.805  0.00  0.00     0.211 C 
BRANCH  25  26
HETATM   26  O   UNK N   1      33.273  15.628   5.497  0.00  0.00    -0.302 OA
BRANCH  26  27
HETATM   27  C   UNK N   1      33.427  16.927   5.146  0.00  0.00     0.358 C 
HETATM   28  N   UNK N   1      32.712  17.427   4.120  0.00  0.00    -0.346 N 
HETATM   29  H   UNK N   1      33.068  18.173   3.584  0.00  0.00     0.161 HD
HETATM   30  H   UNK N   1      31.831  17.046   3.904  0.00  0.00     0.161 HD
HETATM   31  O   UNK N   1      34.210  17.650   5.746  0.00  0.00    -0.239 OA
ENDBRANCH  26  27
ENDBRANCH  25  26
ENDBRANCH   5  25
BRANCH   4  32
HETATM   32  O   UNK N   1      31.022  13.881   5.481  0.00  0.00    -0.273 OA
HETATM   33  H   UNK N   1      31.256  12.985   5.769  0.00  0.00     0.245 HD
ENDBRANCH   4  32
TORSDOF 5
ENDMDL
MODEL 3
REMARK VINA RESULT:      -6.3      4.966      7.842
REMARK  5 active torsions:
REMARK  status: ('A' for Active; 'I' for Inactive)
REMARK    1  A    between atoms: N_4  and  O_24 
REMARK    2  A    between atoms: C_5  and  C_6 
REMARK    3  A    between atoms: C_6  and  O_7 
REMARK    4  A    between atoms: O_7  and  C_8 
REMARK       I    between atoms: C_8  and  N_9 
REMARK       I    between atoms: C_15  and  N_16 
REMARK    5  A    between atoms: C_21  and  O_23 
ROOT
HETATM    1  N   UNK N   1      30.082  18.702   9.801  0.00  0.00    -0.233 N 
ATOM      2  HN  UNK N   1      30.916  18.466  10.339  1.00  0.00     0.174 HD
HETATM    3  C   UNK N   1      29.825  18.024   8.738  0.00  0.00     0.698 C 
HETATM    4  N   UNK N   1      28.477  17.695   8.436  0.00  0.00    -0.082 N 
HETATM    5  C   UNK N   1      28.121  16.909   7.276  0.00  0.00     0.185 C 
HETATM    6  C   UNK N   1      29.288  16.037   6.719  0.00  0.00     0.183 C 
HETATM    7  C   UNK N   1      30.704  16.719   6.769  0.00  0.00     0.217 C 
HETATM    8  N   UNK N   1      30.774  17.396   5.486  0.00  0.00    -0.191 N 
ATOM      9  HN  UNK N   1      31.408  18.162   5.259  1.00  0.00     0.180 HD
HETATM   10  C   UNK N   1      29.923  16.888   4.689  0.00  0.00     0.670 C 
HETATM   11  N   UNK N   1      29.778  17.309   3.351  0.00  0.00    -0.235 N 
HETATM   12  N   UNK N   1      29.092  15.939   5.291  0.00  0.00    -0.215 N 
HETATM   13  N   UNK N   1      30.897  17.616   7.884  0.00  0.00    -0.181 N 
HETATM   14  C   UNK N   1      32.200  17.509   8.467  0.00  0.00     0.150 C 
HETATM   15  C   UNK N   1      32.715  16.158   8.025  0.00  0.00     0.093 C 
HETATM   16  C   UNK N   1      31.871  15.701   6.868  0.00  0.00     0.209 C 
HETATM   17  O   UNK N   1      31.403  14.461   7.116  0.00  0.00    -0.362 OA
HETATM   18  H   UNK N   1      29.511  19.437  10.120  0.00  0.00     0.174 HD
HETATM   19  H   UNK N   1      30.450  17.289   2.632  0.00  0.00     0.174 HD
HETATM   20  H   UNK N   1      28.894  17.666   3.105  0.00  0.00     0.174 HD
HETATM   21  H   UNK N   1      28.484  15.318   4.827  0.00  0.00     0.178 HD
HETATM   22  H   UNK N   1      31.128  13.615   7.412  0.00  0.00     0.213 HD
ENDROOT
BRANCH  16  23
HETATM   23  O   UNK N   1      32.638  15.716   5.755  0.00  0.00    -0.362 OA
HETATM   24  H   UNK N   1      33.563  15.578   5.688  0.00  0.00     0.213 HD
ENDBRANCH  16  23
BRANCH   5  25
HETATM   25  C   UNK N   1      27.407  17.795   6.244  0.00  0.00     0.211 C 
BRANCH  25  26
HETATM   26  O   UNK N   1      28.005  19.029   6.142  0.00  0.00    -0.302 OA
BRANCH  26  27
HETATM   27  C   UNK N   1      27.293  20.180   6.210  0.00  0.00     0.358 C 
HETATM   28  N   UNK N   1      26.550  20.438   7.303  0.00  0.00    -0.346 N 
HETATM   29  H   UNK N   1      25.740  20.995   7.233  0.00  0.00     0.161 HD
HETATM   30  H   UNK N   1      26.816  20.069   8.175  0.00  0.00     0.161 HD
HETATM   31  O   UNK N   1      27.312  20.984   5.288  0.00  0.00    -0.239 OA
ENDBRANCH  26  27
ENDBRANCH  25  26
ENDBRANCH   5  25
BRANCH   4  32
HETATM   32  O   UNK N   1      27.498  18.174   9.218  0.00  0.00    -0.273 OA
HETATM   33  H   UNK N   1      27.032  18.994   8.990  0.00  0.00     0.245 HD
ENDBRANCH   4  32
TORSDOF 5
ENDMDL
MODEL 4
REMARK VINA RESULT:      -6.2      3.472      6.034
REMARK  5 active torsions:
REMARK  status: ('A' for Active; 'I' for Inactive)
REMARK    1  A    between atoms: N_4  and  O_24 
REMARK    2  A    between atoms: C_5  and  C_6 
REMARK    3  A    between atoms: C_6  and  O_7 
REMARK    4  A    between atoms: O_7  and  C_8 
REMARK       I    between atoms: C_8  and  N_9 
REMARK       I    between atoms: C_15  and  N_16 
REMARK    5  A    between atoms: C_21  and  O_23 
ROOT
HETATM    1  N   UNK N   1      30.109  15.694   4.711  0.00  0.00    -0.233 N 
ATOM      2  HN  UNK N   1      30.592  15.418   3.856  1.00  0.00     0.174 HD
HETATM    3  C   UNK N   1      30.815  16.008   5.740  0.00  0.00     0.698 C 
HETATM    4  N   UNK N   1      30.390  17.081   6.568  0.00  0.00    -0.082 N 
HETATM    5  C   UNK N   1      31.153  17.507   7.720  0.00  0.00     0.185 C 
HETATM    6  C   UNK N   1      32.656  17.094   7.675  0.00  0.00     0.183 C 
HETATM    7  C   UNK N   1      32.931  15.670   7.066  0.00  0.00     0.217 C 
HETATM    8  N   UNK N   1      32.867  14.810   8.234  0.00  0.00    -0.191 N 
ATOM      9  HN  UNK N   1      32.721  13.800   8.214  1.00  0.00     0.180 HD
HETATM   10  C   UNK N   1      33.021  15.507   9.286  0.00  0.00     0.670 C 
HETATM   11  N   UNK N   1      33.045  14.948  10.581  0.00  0.00    -0.235 N 
HETATM   12  N   UNK N   1      33.073  16.882   9.042  0.00  0.00    -0.215 N 
HETATM   13  N   UNK N   1      32.007  15.273   6.029  0.00  0.00    -0.181 N 
HETATM   14  C   UNK N   1      32.645  14.597   4.942  0.00  0.00     0.150 C 
HETATM   15  C   UNK N   1      34.102  14.987   5.042  0.00  0.00     0.093 C 
HETATM   16  C   UNK N   1      34.336  15.541   6.419  0.00  0.00     0.209 C 
HETATM   17  O   UNK N   1      34.929  16.749   6.322  0.00  0.00    -0.362 OA
HETATM   18  H   UNK N   1      29.124  15.709   4.710  0.00  0.00     0.174 HD
HETATM   19  H   UNK N   1      33.673  14.281  10.942  0.00  0.00     0.174 HD
HETATM   20  H   UNK N   1      32.350  15.265  11.201  0.00  0.00     0.174 HD
HETATM   21  H   UNK N   1      33.344  17.579   9.683  0.00  0.00     0.178 HD
HETATM   22  H   UNK N   1      35.318  17.578   6.122  0.00  0.00     0.213 HD
ENDROOT
BRANCH  16  23
HETATM   23  O   UNK N   1      35.116  14.672   7.098  0.00  0.00    -0.362 OA
HETATM   24  H   UNK N   1      35.989  14.397   6.894  0.00  0.00     0.213 HD
ENDBRANCH  16  23
BRANCH   5  25
HETATM   25  C   UNK N   1      30.403  17.133   9.009  0.00  0.00     0.211 C 
BRANCH  25  26
HETATM   26  O   UNK N   1      29.524  18.123   9.383  0.00  0.00    -0.302 OA
BRANCH  26  27
HETATM   27  C   UNK N   1      28.184  17.985   9.237  0.00  0.00     0.358 C 
HETATM   28  N   UNK N   1      27.478  18.957   8.629  0.00  0.00    -0.346 N 
HETATM   29  H   UNK N   1      26.533  19.104   8.862  0.00  0.00     0.161 HD
HETATM   30  H   UNK N   1      27.908  19.523   7.949  0.00  0.00     0.161 HD
HETATM   31  O   UNK N   1      27.607  16.990   9.655  0.00  0.00    -0.239 OA
ENDBRANCH  26  27
ENDBRANCH  25  26
ENDBRANCH   5  25
BRANCH   4  32
HETATM   32  O   UNK N   1      29.220  17.683   6.308  0.00  0.00    -0.273 OA
HETATM   33  H   UNK N   1      29.095  18.629   6.483  0.00  0.00     0.245 HD
ENDBRANCH   4  32
TORSDOF 5
ENDMDL
MODEL 5
REMARK VINA RESULT:      -6.1     12.461     14.778
REMARK  5 active torsions:
REMARK  status: ('A' for Active; 'I' for Inactive)
REMARK    1  A    between atoms: N_4  and  O_24 
REMARK    2  A    between atoms: C_5  and  C_6 
REMARK    3  A    between atoms: C_6  and  O_7 
REMARK    4  A    between atoms: O_7  and  C_8 
REMARK       I    between atoms: C_8  and  N_9 
REMARK       I    between atoms: C_15  and  N_16 
REMARK    5  A    between atoms: C_21  and  O_23 
ROOT
HETATM    1  N   UNK N   1      19.351  15.667   2.269  0.00  0.00    -0.233 N 
ATOM      2  HN  UNK N   1      18.915  16.228   1.537  1.00  0.00     0.174 HD
HETATM    3  C   UNK N   1      20.036  16.268   3.177  0.00  0.00     0.698 C 
HETATM    4  N   UNK N   1      19.963  15.806   4.518  0.00  0.00    -0.082 N 
HETATM    5  C   UNK N   1      20.681  16.455   5.592  0.00  0.00     0.185 C 
HETATM    6  C   UNK N   1      21.076  17.933   5.289  0.00  0.00     0.183 C 
HETATM    7  C   UNK N   1      21.519  18.207   3.805  0.00  0.00     0.217 C 
HETATM    8  N   UNK N   1      22.951  17.975   3.855  0.00  0.00    -0.191 N 
ATOM      9  HN  UNK N   1      23.545  17.785   3.048  1.00  0.00     0.180 HD
HETATM   10  C   UNK N   1      23.352  18.043   5.060  0.00  0.00     0.670 C 
HETATM   11  N   UNK N   1      24.706  17.899   5.428  0.00  0.00    -0.235 N 
HETATM   12  N   UNK N   1      22.316  18.186   5.986  0.00  0.00    -0.215 N 
HETATM   13  N   UNK N   1      20.854  17.386   2.820  0.00  0.00    -0.181 N 
HETATM   14  C   UNK N   1      20.504  18.107   1.636  0.00  0.00     0.150 C 
HETATM   15  C   UNK N   1      20.508  19.561   2.050  0.00  0.00     0.093 C 
HETATM   16  C   UNK N   1      21.259  19.667   3.348  0.00  0.00     0.209 C 
HETATM   17  O   UNK N   1      20.503  20.323   4.251  0.00  0.00    -0.362 OA
HETATM   18  H   UNK N   1      19.227  14.690   2.248  0.00  0.00     0.174 HD
HETATM   19  H   UNK N   1      25.473  18.451   5.150  0.00  0.00     0.174 HD
HETATM   20  H   UNK N   1      24.910  17.154   6.038  0.00  0.00     0.174 HD
HETATM   21  H   UNK N   1      22.412  18.417   6.939  0.00  0.00     0.178 HD
HETATM   22  H   UNK N   1      19.878  20.770   4.789  0.00  0.00     0.213 HD
ENDROOT
BRANCH  16  23
HETATM   23  O   UNK N   1      22.416  20.327   3.114  0.00  0.00    -0.362 OA
HETATM   24  H   UNK N   1      23.069  20.586   3.734  0.00  0.00     0.213 HD
ENDBRANCH  16  23
BRANCH   5  25
HETATM   25  C   UNK N   1      21.826  15.551   6.076  0.00  0.00     0.211 C 
BRANCH  25  26
HETATM   26  O   UNK N   1      21.789  15.383   7.441  0.00  0.00    -0.302 OA
BRANCH  26  27
HETATM   27  C   UNK N   1      20.819  14.659   8.049  0.00  0.00     0.358 C 
HETATM   28  N   UNK N   1      20.413  14.999   9.286  0.00  0.00    -0.346 N 
HETATM   29  H   UNK N   1      20.059  14.314   9.899  0.00  0.00     0.161 HD
HETATM   30  H   UNK N   1      20.470  15.936   9.581  0.00  0.00     0.161 HD
HETATM   31  O   UNK N   1      20.312  13.696   7.489  0.00  0.00    -0.239 OA
ENDBRANCH  26  27
ENDBRANCH  25  26
ENDBRANCH   5  25
BRANCH   4  32
HETATM   32  O   UNK N   1      19.253  14.701   4.790  0.00  0.00    -0.273 OA
HETATM   33  H   UNK N   1      19.496  14.119   5.527  0.00  0.00     0.245 HD
ENDBRANCH   4  32
TORSDOF 5
ENDMDL
MODEL 6
REMARK VINA RESULT:      -6.1     18.065     20.156
REMARK  5 active torsions:
REMARK  status: ('A' for Active; 'I' for Inactive)
REMARK    1  A    between atoms: N_4  and  O_24 
REMARK    2  A    between atoms: C_5  and  C_6 
REMARK    3  A    between atoms: C_6  and  O_7 
REMARK    4  A    between atoms: O_7  and  C_8 
REMARK       I    between atoms: C_8  and  N_9 
REMARK       I    between atoms: C_15  and  N_16 
REMARK    5  A    between atoms: C_21  and  O_23 
ROOT
HETATM    1  N   UNK N   1      29.786  22.248  -5.896  0.00  0.00    -0.233 N 
ATOM      2  HN  UNK N   1      29.775  21.385  -6.441  1.00  0.00     0.174 HD
HETATM    3  C   UNK N   1      28.685  22.898  -5.755  0.00  0.00     0.698 C 
HETATM    4  N   UNK N   1      28.402  23.516  -4.508  0.00  0.00    -0.082 N 
HETATM    5  C   UNK N   1      27.170  24.234  -4.271  0.00  0.00     0.185 C 
HETATM    6  C   UNK N   1      26.009  23.838  -5.235  0.00  0.00     0.183 C 
HETATM    7  C   UNK N   1      26.451  23.557  -6.718  0.00  0.00     0.217 C 
HETATM    8  N   UNK N   1      26.339  24.866  -7.335  0.00  0.00    -0.191 N 
ATOM      9  HN  UNK N   1      26.794  25.147  -8.204  1.00  0.00     0.180 HD
HETATM   10  C   UNK N   1      25.589  25.608  -6.627  0.00  0.00     0.670 C 
HETATM   11  N   UNK N   1      25.257  26.932  -6.987  0.00  0.00    -0.235 N 
HETATM   12  N   UNK N   1      25.199  25.020  -5.421  0.00  0.00    -0.215 N 
HETATM   13  N   UNK N   1      27.771  22.987  -6.851  0.00  0.00    -0.181 N 
HETATM   14  C   UNK N   1      27.840  21.965  -7.850  0.00  0.00     0.150 C 
HETATM   15  C   UNK N   1      26.410  21.514  -8.045  0.00  0.00     0.093 C 
HETATM   16  C   UNK N   1      25.512  22.567  -7.458  0.00  0.00     0.209 C 
HETATM   17  O   UNK N   1      24.650  21.991  -6.596  0.00  0.00    -0.362 OA
HETATM   18  H   UNK N   1      30.639  22.543  -5.503  0.00  0.00     0.174 HD
HETATM   19  H   UNK N   1      24.786  27.241  -7.795  0.00  0.00     0.174 HD
HETATM   20  H   UNK N   1      25.529  27.632  -6.352  0.00  0.00     0.174 HD
HETATM   21  H   UNK N   1      24.501  25.351  -4.809  0.00  0.00     0.178 HD
HETATM   22  H   UNK N   1      24.123  21.479  -6.013  0.00  0.00     0.213 HD
ENDROOT
BRANCH  16  23
HETATM   23  O   UNK N   1      24.853  23.172  -8.471  0.00  0.00    -0.362 OA
HETATM   24  H   UNK N   1      24.347  22.773  -9.152  0.00  0.00     0.213 HD
ENDBRANCH  16  23
BRANCH   5  25
HETATM   25  C   UNK N   1      27.456  25.740  -4.163  0.00  0.00     0.211 C 
BRANCH  25  26
HETATM   26  O   UNK N   1      26.661  26.335  -3.211  0.00  0.00    -0.302 OA
BRANCH  26  27
HETATM   27  C   UNK N   1      26.225  27.612  -3.337  0.00  0.00     0.358 C 
HETATM   28  N   UNK N   1      26.819  28.590  -2.627  0.00  0.00    -0.346 N 
HETATM   29  H   UNK N   1      26.310  29.392  -2.365  0.00  0.00     0.161 HD
HETATM   30  H   UNK N   1      27.764  28.503  -2.369  0.00  0.00     0.161 HD
HETATM   31  O   UNK N   1      25.295  27.886  -4.083  0.00  0.00    -0.239 OA
ENDBRANCH  26  27
ENDBRANCH  25  26
ENDBRANCH   5  25
BRANCH   4  32
HETATM   32  O   UNK N   1      29.327  23.482  -3.537  0.00  0.00    -0.273 OA
HETATM   33  H   UNK N   1      29.615  22.640  -3.151  0.00  0.00     0.245 HD
ENDBRANCH   4  32
TORSDOF 5
ENDMDL
MODEL 7
REMARK VINA RESULT:      -6.0     12.789     14.563
REMARK  5 active torsions:
REMARK  status: ('A' for Active; 'I' for Inactive)
REMARK    1  A    between atoms: N_4  and  O_24 
REMARK    2  A    between atoms: C_5  and  C_6 
REMARK    3  A    between atoms: C_6  and  O_7 
REMARK    4  A    between atoms: O_7  and  C_8 
REMARK       I    between atoms: C_8  and  N_9 
REMARK       I    between atoms: C_15  and  N_16 
REMARK    5  A    between atoms: C_21  and  O_23 
ROOT
HETATM    1  N   UNK N   1      23.980  19.406   3.998  0.00  0.00    -0.233 N 
ATOM      2  HN  UNK N   1      23.920  20.264   3.449  1.00  0.00     0.174 HD
HETATM    3  C   UNK N   1      23.109  18.482   3.787  0.00  0.00     0.698 C 
HETATM    4  N   UNK N   1      23.522  17.123   3.822  0.00  0.00    -0.082 N 
HETATM    5  C   UNK N   1      22.603  16.037   3.561  0.00  0.00     0.185 C 
HETATM    6  C   UNK N   1      21.339  16.456   2.750  0.00  0.00     0.183 C 
HETATM    7  C   UNK N   1      20.758  17.870   3.118  0.00  0.00     0.217 C 
HETATM    8  N   UNK N   1      19.813  17.558   4.175  0.00  0.00    -0.191 N 
ATOM      9  HN  UNK N   1      19.444  18.228   4.850  1.00  0.00     0.180 HD
HETATM   10  C   UNK N   1      19.516  16.323   4.130  0.00  0.00     0.670 C 
HETATM   11  N   UNK N   1      18.588  15.724   5.009  0.00  0.00    -0.235 N 
HETATM   12  N   UNK N   1      20.259  15.603   3.191  0.00  0.00    -0.215 N 
HETATM   13  N   UNK N   1      21.750  18.838   3.523  0.00  0.00    -0.181 N 
HETATM   14  C   UNK N   1      21.502  20.145   2.997  0.00  0.00     0.150 C 
HETATM   15  C   UNK N   1      20.584  19.923   1.817  0.00  0.00     0.093 C 
HETATM   16  C   UNK N   1      19.999  18.544   1.943  0.00  0.00     0.209 C 
HETATM   17  O   UNK N   1      20.197  17.866   0.795  0.00  0.00    -0.362 OA
HETATM   18  H   UNK N   1      24.700  19.323   4.664  0.00  0.00     0.174 HD
HETATM   19  H   UNK N   1      17.635  15.941   5.124  0.00  0.00     0.174 HD
HETATM   20  H   UNK N   1      18.937  15.000   5.576  0.00  0.00     0.174 HD
HETATM   21  H   UNK N   1      20.079  14.684   2.885  0.00  0.00     0.178 HD
HETATM   22  H   UNK N   1      20.412  17.497  -0.041  0.00  0.00     0.213 HD
ENDROOT
BRANCH  16  23
HETATM   23  O   UNK N   1      18.680  18.668   2.211  0.00  0.00    -0.362 OA
HETATM   24  H   UNK N   1      18.150  18.132   2.770  0.00  0.00     0.213 HD
ENDBRANCH  16  23
BRANCH   5  25
HETATM   25  C   UNK N   1      22.330  15.263   4.860  0.00  0.00     0.211 C 
BRANCH  25  26
HETATM   26  O   UNK N   1      22.698  15.992   5.967  0.00  0.00    -0.302 OA
BRANCH  26  27
HETATM   27  C   UNK N   1      21.787  16.476   6.844  0.00  0.00     0.358 C 
HETATM   28  N   UNK N   1      21.219  15.645   7.738  0.00  0.00    -0.346 N 
HETATM   29  H   UNK N   1      20.313  15.825   8.078  0.00  0.00     0.161 HD
HETATM   30  H   UNK N   1      21.712  14.854   8.054  0.00  0.00     0.161 HD
HETATM   31  O   UNK N   1      21.468  17.657   6.829  0.00  0.00    -0.239 OA
ENDBRANCH  26  27
ENDBRANCH  25  26
ENDBRANCH   5  25
BRANCH   4  32
HETATM   32  O   UNK N   1      24.787  16.833   4.160  0.00  0.00    -0.273 OA
HETATM   33  H   UNK N   1      25.124  17.027   5.049  0.00  0.00     0.245 HD
ENDBRANCH   4  32
TORSDOF 5
ENDMDL
MODEL 8
REMARK VINA RESULT:      -6.0      2.315      4.335
REMARK  5 active torsions:
REMARK  status: ('A' for Active; 'I' for Inactive)
REMARK    1  A    between atoms: N_4  and  O_24 
REMARK    2  A    between atoms: C_5  and  C_6 
REMARK    3  A    between atoms: C_6  and  O_7 
REMARK    4  A    between atoms: O_7  and  C_8 
REMARK       I    between atoms: C_8  and  N_9 
REMARK       I    between atoms: C_15  and  N_16 
REMARK    5  A    between atoms: C_21  and  O_23 
ROOT
HETATM    1  N   UNK N   1      33.691  12.619   6.570  0.00  0.00    -0.233 N 
ATOM      2  HN  UNK N   1      33.487  12.438   5.587  1.00  0.00     0.174 HD
HETATM    3  C   UNK N   1      33.460  13.795   7.039  0.00  0.00     0.698 C 
HETATM    4  N   UNK N   1      32.939  13.925   8.353  0.00  0.00    -0.082 N 
HETATM    5  C   UNK N   1      32.627  15.214   8.929  0.00  0.00     0.185 C 
HETATM    6  C   UNK N   1      32.397  16.341   7.875  0.00  0.00     0.183 C 
HETATM    7  C   UNK N   1      33.349  16.279   6.625  0.00  0.00     0.217 C 
HETATM    8  N   UNK N   1      34.479  17.086   7.047  0.00  0.00    -0.191 N 
ATOM      9  HN  UNK N   1      35.410  17.060   6.629  1.00  0.00     0.180 HD
HETATM   10  C   UNK N   1      34.132  17.830   8.018  0.00  0.00     0.670 C 
HETATM   11  N   UNK N   1      35.005  18.759   8.624  0.00  0.00    -0.235 N 
HETATM   12  N   UNK N   1      32.839  17.576   8.482  0.00  0.00    -0.215 N 
HETATM   13  N   UNK N   1      33.733  14.943   6.231  0.00  0.00    -0.181 N 
HETATM   14  C   UNK N   1      33.748  14.762   4.812  0.00  0.00     0.150 C 
HETATM   15  C   UNK N   1      32.881  15.875   4.268  0.00  0.00     0.093 C 
HETATM   16  C   UNK N   1      32.727  16.907   5.350  0.00  0.00     0.209 C 
HETATM   17  O   UNK N   1      31.417  17.169   5.537  0.00  0.00    -0.362 OA
HETATM   18  H   UNK N   1      34.055  11.885   7.116  0.00  0.00     0.174 HD
HETATM   19  H   UNK N   1      35.457  19.528   8.207  0.00  0.00     0.174 HD
HETATM   20  H   UNK N   1      35.184  18.622   9.581  0.00  0.00     0.174 HD
HETATM   21  H   UNK N   1      32.323  18.136   9.107  0.00  0.00     0.178 HD
HETATM   22  H   UNK N   1      30.484  17.247   5.584  0.00  0.00     0.213 HD
ENDROOT
BRANCH  16  23
HETATM   23  O   UNK N   1      33.393  18.020   4.969  0.00  0.00    -0.362 OA
HETATM   24  H   UNK N   1      33.159  18.915   5.122  0.00  0.00     0.213 HD
ENDBRANCH  16  23
BRANCH   5  25
HETATM   25  C   UNK N   1      33.631  15.545  10.044  0.00  0.00     0.211 C 
BRANCH  25  26
HETATM   26  O   UNK N   1      34.909  15.175   9.694  0.00  0.00    -0.302 OA
BRANCH  26  27
HETATM   27  C   UNK N   1      35.994  15.599  10.386  0.00  0.00     0.358 C 
HETATM   28  N   UNK N   1      36.907  14.702  10.804  0.00  0.00    -0.346 N 
HETATM   29  H   UNK N   1      37.440  14.877  11.614  0.00  0.00     0.161 HD
HETATM   30  H   UNK N   1      37.044  13.869  10.298  0.00  0.00     0.161 HD
HETATM   31  O   UNK N   1      36.150  16.785  10.640  0.00  0.00    -0.239 OA
ENDBRANCH  26  27
ENDBRANCH  25  26
ENDBRANCH   5  25
BRANCH   4  32
HETATM   32  O   UNK N   1      32.782  12.826   9.106  0.00  0.00    -0.273 OA
HETATM   33  H   UNK N   1      32.179  12.117   8.835  0.00  0.00     0.245 HD
ENDBRANCH   4  32
TORSDOF 5
ENDMDL
MODEL 9
REMARK VINA RESULT:      -6.0      4.041      5.581
REMARK  5 active torsions:
REMARK  status: ('A' for Active; 'I' for Inactive)
REMARK    1  A    between atoms: N_4  and  O_24 
REMARK    2  A    between atoms: C_5  and  C_6 
REMARK    3  A    between atoms: C_6  and  O_7 
REMARK    4  A    between atoms: O_7  and  C_8 
REMARK       I    between atoms: C_8  and  N_9 
REMARK       I    between atoms: C_15  and  N_16 
REMARK    5  A    between atoms: C_21  and  O_23 
ROOT
HETATM    1  N   UNK N   1      27.732  18.613   8.622  0.00  0.00    -0.233 N 
ATOM      2  HN  UNK N   1      27.097  19.147   8.030  1.00  0.00     0.174 HD
HETATM    3  C   UNK N   1      28.746  18.039   8.074  0.00  0.00     0.698 C 
HETATM    4  N   UNK N   1      29.985  18.018   8.767  0.00  0.00    -0.082 N 
HETATM    5  C   UNK N   1      31.172  17.420   8.195  0.00  0.00     0.185 C 
HETATM    6  C   UNK N   1      31.135  17.299   6.641  0.00  0.00     0.183 C 
HETATM    7  C   UNK N   1      29.731  16.922   6.042  0.00  0.00     0.217 C 
HETATM    8  N   UNK N   1      29.775  15.471   6.022  0.00  0.00    -0.191 N 
ATOM      9  HN  UNK N   1      28.961  14.859   5.961  1.00  0.00     0.180 HD
HETATM   10  C   UNK N   1      30.983  15.080   6.092  0.00  0.00     0.670 C 
HETATM   11  N   UNK N   1      31.353  13.719   6.056  0.00  0.00    -0.235 N 
HETATM   12  N   UNK N   1      31.894  16.118   6.297  0.00  0.00    -0.215 N 
HETATM   13  N   UNK N   1      28.605  17.436   6.786  0.00  0.00    -0.181 N 
HETATM   14  C   UNK N   1      27.553  17.918   5.944  0.00  0.00     0.150 C 
HETATM   15  C   UNK N   1      28.210  18.171   4.606  0.00  0.00     0.093 C 
HETATM   16  C   UNK N   1      29.524  17.441   4.594  0.00  0.00     0.209 C 
HETATM   17  O   UNK N   1      30.508  18.296   4.248  0.00  0.00    -0.362 OA
HETATM   18  H   UNK N   1      27.542  18.560   9.587  0.00  0.00     0.174 HD
HETATM   19  H   UNK N   1      31.192  13.065   5.337  0.00  0.00     0.174 HD
HETATM   20  H   UNK N   1      31.831  13.381   6.846  0.00  0.00     0.174 HD
HETATM   21  H   UNK N   1      32.875  16.058   6.220  0.00  0.00     0.178 HD
HETATM   22  H   UNK N   1      31.099  18.987   4.018  0.00  0.00     0.213 HD
ENDROOT
BRANCH  16  23
HETATM   23  O   UNK N   1      29.434  16.423   3.710  0.00  0.00    -0.362 OA
HETATM   24  H   UNK N   1      28.978  16.407   2.891  0.00  0.00     0.213 HD
ENDBRANCH  16  23
BRANCH   5  25
HETATM   25  C   UNK N   1      31.521  16.129   8.952  0.00  0.00     0.211 C 
BRANCH  25  26
HETATM   26  O   UNK N   1      32.882  15.982   9.092  0.00  0.00    -0.302 OA
BRANCH  26  27
HETATM   27  C   UNK N   1      33.470  14.763   9.133  0.00  0.00     0.358 C 
HETATM   28  N   UNK N   1      33.763  14.206  10.324  0.00  0.00    -0.346 N 
HETATM   29  H   UNK N   1      34.519  13.580  10.407  0.00  0.00     0.161 HD
HETATM   30  H   UNK N   1      33.221  14.427  11.115  0.00  0.00     0.161 HD
HETATM   31  O   UNK N   1      33.744  14.163   8.103  0.00  0.00    -0.239 OA
ENDBRANCH  26  27
ENDBRANCH  25  26
ENDBRANCH   5  25
BRANCH   4  32
HETATM   32  O   UNK N   1      30.048  18.518  10.010  0.00  0.00    -0.273 OA
HETATM   33  H   UNK N   1      30.859  18.446  10.538  0.00  0.00     0.245 HD
ENDBRANCH   4  32
TORSDOF 5
ENDMDL
