MODEL 1
REMARK VINA RESULT:      -7.1      0.000      0.000
REMARK  12 active torsions:
REMARK  status: ('A' for Active; 'I' for Inactive)
REMARK    1  A    between atoms: C_2  and  C_3 
REMARK    2  A    between atoms: C_3  and  C_4 
REMARK    3  A    between atoms: C_4  and  C_5 
REMARK    4  A    between atoms: C_5  and  C_6 
REMARK    5  A    between atoms: C_6  and  C_7 
REMARK    6  A    between atoms: C_7  and  C_8 
REMARK    7  A    between atoms: C_8  and  N_9 
REMARK    8  A    between atoms: C_14  and  N_24 
REMARK    9  A    between atoms: C_16  and  C_19 
REMARK   10  A    between atoms: C_19  and  C_20 
REMARK   11  A    between atoms: C_20  and  O_22 
REMARK       I    between atoms: N_24  and  C_25 
REMARK   12  A    between atoms: C_25  and  C_27 
ROOT
HETATM    1  N   UNK N   1      27.053  23.052  -7.235  0.00  0.00    -0.378 N 
HETATM    2  C   UNK N   1      27.158  21.781  -7.917  0.00  0.00     0.128 A 
HETATM    3  C   UNK N   1      28.459  21.137  -7.356  0.00  0.00     0.061 A 
HETATM    4  C   UNK N   1      28.946  22.161  -6.376  0.00  0.00    -0.021 A 
HETATM    5  C   UNK N   1      28.127  23.240  -6.360  0.00  0.00     0.065 A 
HETATM    6  C   UNK N   1      28.374  24.351  -5.537  0.00  0.00     0.068 A 
HETATM    7  C   UNK N   1      29.519  24.309  -4.688  0.00  0.00    -0.025 A 
HETATM    8  C   UNK N   1      30.367  23.166  -4.695  0.00  0.00    -0.034 A 
HETATM    9  C   UNK N   1      30.077  22.083  -5.562  0.00  0.00    -0.046 A 
HETATM   10  C   UNK N   1      30.952  20.874  -5.630  0.00  0.00     0.049 C 
HETATM   11  C   UNK N   1      29.876  25.483  -3.829  0.00  0.00     0.051 C 
ENDROOT
BRANCH   1  12
HETATM   12  C   UNK N   1      25.835  23.826  -7.220  0.00  0.00     0.123 C 
BRANCH  12  13
HETATM   13  C   UNK N   1      25.497  24.329  -8.606  0.00  0.00     0.020 C 
BRANCH  13  14
HETATM   14  C   UNK N   1      26.024  25.740  -8.762  0.00  0.00     0.002 C 
BRANCH  14  15
HETATM   15  C   UNK N   1      25.645  26.285 -10.126  0.00  0.00     0.000 C 
BRANCH  15  16
HETATM   16  C   UNK N   1      24.739  25.327 -10.885  0.00  0.00     0.000 C 
BRANCH  16  17
HETATM   17  C   UNK N   1      24.147  25.978 -12.122  0.00  0.00    -0.000 C 
BRANCH  17  18
HETATM   18  C   UNK N   1      24.022  27.472 -11.903  0.00  0.00    -0.005 C 
HETATM   19  C   UNK N   1      22.559  27.856 -11.850  0.00  0.00     0.005 C 
ENDBRANCH  17  18
ENDBRANCH  16  17
ENDBRANCH  15  16
ENDBRANCH  14  15
ENDBRANCH  13  14
ENDBRANCH  12  13
ENDBRANCH   1  12
BRANCH   6  20
HETATM   20  N   UNK N   1      27.547  25.506  -5.649  0.00  0.00    -0.324 N 
HETATM   21  C   UNK N   1      26.600  25.908  -4.762  0.00  0.00     0.229 C 
HETATM   22  O   UNK N   1      26.260  25.173  -3.845  0.00  0.00    -0.272 OA
HETATM   23  H   UNK N   1      27.673  26.067  -6.449  0.00  0.00     0.169 HD
BRANCH  21  24
HETATM   24  C   UNK N   1      25.953  27.265  -4.939  0.00  0.00     0.030 C 
HETATM   25  C   UNK N   1      24.618  27.096  -5.640  0.00  0.00     0.025 C 
HETATM   26  C   UNK N   1      25.714  27.916  -3.589  0.00  0.00     0.025 C 
HETATM   27  C   UNK N   1      26.812  28.202  -5.774  0.00  0.00     0.025 C 
ENDBRANCH  21  24
ENDBRANCH   6  20
BRANCH   8  28
HETATM   28  C   UNK N   1      31.597  23.142  -3.816  0.00  0.00     0.149 C 
BRANCH  28  29
HETATM   29  C   UNK N   1      31.386  22.435  -2.511  0.00  0.00     0.143 C 
HETATM   30  O   UNK N   1      30.569  22.852  -1.706  0.00  0.00    -0.650 OA
BRANCH  29  31
HETATM   31  O   UNK N   1      32.114  21.341  -2.221  0.00  0.00    -0.776 OA
HETATM   32  H   UNK N   1      31.998  20.865  -1.422  0.00  0.00     0.167 HD
ENDBRANCH  29  31
ENDBRANCH  28  29
ENDBRANCH   8  28
TORSDOF 12
ENDMDL
MODEL 2
REMARK VINA RESULT:      -7.1      1.474      2.590
REMARK  12 active torsions:
REMARK  status: ('A' for Active; 'I' for Inactive)
REMARK    1  A    between atoms: C_2  and  C_3 
REMARK    2  A    between atoms: C_3  and  C_4 
REMARK    3  A    between atoms: C_4  and  C_5 
REMARK    4  A    between atoms: C_5  and  C_6 
REMARK    5  A    between atoms: C_6  and  C_7 
REMARK    6  A    between atoms: C_7  and  C_8 
REMARK    7  A    between atoms: C_8  and  N_9 
REMARK    8  A    between atoms: C_14  and  N_24 
REMARK    9  A    between atoms: C_16  and  C_19 
REMARK   10  A    between atoms: C_19  and  C_20 
REMARK   11  A    between atoms: C_20  and  O_22 
REMARK       I    between atoms: N_24  and  C_25 
REMARK   12  A    between atoms: C_25  and  C_27 
ROOT
HETATM    1  N   UNK N   1      27.042  23.089  -7.235  0.00  0.00    -0.378 N 
HETATM    2  C   UNK N   1      27.145  21.822  -7.922  0.00  0.00     0.128 A 
HETATM    3  C   UNK N   1      28.446  21.174  -7.365  0.00  0.00     0.061 A 
HETATM    4  C   UNK N   1      28.935  22.194  -6.381  0.00  0.00    -0.021 A 
HETATM    5  C   UNK N   1      28.116  23.274  -6.359  0.00  0.00     0.065 A 
HETATM    6  C   UNK N   1      28.365  24.380  -5.532  0.00  0.00     0.068 A 
HETATM    7  C   UNK N   1      29.510  24.334  -4.684  0.00  0.00    -0.025 A 
HETATM    8  C   UNK N   1      30.357  23.191  -4.697  0.00  0.00    -0.034 A 
HETATM    9  C   UNK N   1      30.065  22.111  -5.568  0.00  0.00    -0.046 A 
HETATM   10  C   UNK N   1      30.940  20.902  -5.642  0.00  0.00     0.049 C 
HETATM   11  C   UNK N   1      29.869  25.504  -3.821  0.00  0.00     0.051 C 
ENDROOT
BRANCH   1  12
HETATM   12  C   UNK N   1      25.824  23.865  -7.216  0.00  0.00     0.123 C 
BRANCH  12  13
HETATM   13  C   UNK N   1      25.486  24.375  -8.599  0.00  0.00     0.020 C 
BRANCH  13  14
HETATM   14  C   UNK N   1      25.913  25.824  -8.710  0.00  0.00     0.002 C 
BRANCH  14  15
HETATM   15  C   UNK N   1      27.202  25.923  -9.502  0.00  0.00     0.000 C 
BRANCH  15  16
HETATM   16  C   UNK N   1      28.058  27.095  -9.043  0.00  0.00     0.000 C 
BRANCH  16  17
HETATM   17  C   UNK N   1      29.355  26.626  -8.409  0.00  0.00    -0.000 C 
BRANCH  17  18
HETATM   18  C   UNK N   1      29.706  25.244  -8.923  0.00  0.00    -0.005 C 
HETATM   19  C   UNK N   1      30.966  24.755  -8.243  0.00  0.00     0.005 C 
ENDBRANCH  17  18
ENDBRANCH  16  17
ENDBRANCH  15  16
ENDBRANCH  14  15
ENDBRANCH  13  14
ENDBRANCH  12  13
ENDBRANCH   1  12
BRANCH   6  20
HETATM   20  N   UNK N   1      27.539  25.537  -5.639  0.00  0.00    -0.324 N 
HETATM   21  C   UNK N   1      26.586  25.931  -4.754  0.00  0.00     0.229 C 
HETATM   22  O   UNK N   1      26.242  25.188  -3.845  0.00  0.00    -0.272 OA
HETATM   23  H   UNK N   1      27.669  26.104  -6.433  0.00  0.00     0.169 HD
BRANCH  21  24
HETATM   24  C   UNK N   1      25.942  27.290  -4.923  0.00  0.00     0.030 C 
HETATM   25  C   UNK N   1      24.605  27.127  -5.624  0.00  0.00     0.025 C 
HETATM   26  C   UNK N   1      25.705  27.934  -3.569  0.00  0.00     0.025 C 
HETATM   27  C   UNK N   1      26.800  28.231  -5.753  0.00  0.00     0.025 C 
ENDBRANCH  21  24
ENDBRANCH   6  20
BRANCH   8  28
HETATM   28  C   UNK N   1      31.588  23.162  -3.819  0.00  0.00     0.149 C 
BRANCH  28  29
HETATM   29  C   UNK N   1      31.377  22.451  -2.516  0.00  0.00     0.143 C 
HETATM   30  O   UNK N   1      30.573  22.875  -1.702  0.00  0.00    -0.650 OA
BRANCH  29  31
HETATM   31  O   UNK N   1      32.090  21.343  -2.239  0.00  0.00    -0.776 OA
HETATM   32  H   UNK N   1      31.686  20.559  -1.923  0.00  0.00     0.167 HD
ENDBRANCH  29  31
ENDBRANCH  28  29
ENDBRANCH   8  28
TORSDOF 12
ENDMDL
MODEL 3
REMARK VINA RESULT:      -6.6     15.130     17.381
REMARK  12 active torsions:
REMARK  status: ('A' for Active; 'I' for Inactive)
REMARK    1  A    between atoms: C_2  and  C_3 
REMARK    2  A    between atoms: C_3  and  C_4 
REMARK    3  A    between atoms: C_4  and  C_5 
REMARK    4  A    between atoms: C_5  and  C_6 
REMARK    5  A    between atoms: C_6  and  C_7 
REMARK    6  A    between atoms: C_7  and  C_8 
REMARK    7  A    between atoms: C_8  and  N_9 
REMARK    8  A    between atoms: C_14  and  N_24 
REMARK    9  A    between atoms: C_16  and  C_19 
REMARK   10  A    between atoms: C_19  and  C_20 
REMARK   11  A    between atoms: C_20  and  O_22 
REMARK       I    between atoms: N_24  and  C_25 
REMARK   12  A    between atoms: C_25  and  C_27 
ROOT
HETATM    1  N   UNK N   1      21.205  16.048   7.194  0.00  0.00    -0.378 N 
HETATM    2  C   UNK N   1      19.933  16.380   7.794  0.00  0.00     0.128 A 
HETATM    3  C   UNK N   1      19.747  15.336   8.933  0.00  0.00     0.061 A 
HETATM    4  C   UNK N   1      20.996  14.512   8.841  0.00  0.00    -0.021 A 
HETATM    5  C   UNK N   1      21.782  14.941   7.824  0.00  0.00     0.065 A 
HETATM    6  C   UNK N   1      23.004  14.322   7.514  0.00  0.00     0.068 A 
HETATM    7  C   UNK N   1      23.417  13.223   8.323  0.00  0.00    -0.025 A 
HETATM    8  C   UNK N   1      22.598  12.787   9.402  0.00  0.00    -0.034 A 
HETATM    9  C   UNK N   1      21.365  13.439   9.653  0.00  0.00    -0.046 A 
HETATM   10  C   UNK N   1      20.453  13.001  10.753  0.00  0.00     0.049 C 
HETATM   11  C   UNK N   1      24.679  12.479   8.012  0.00  0.00     0.051 C 
ENDROOT
BRANCH   1  12
HETATM   12  C   UNK N   1      21.908  16.952   6.315  0.00  0.00     0.123 C 
BRANCH  12  13
HETATM   13  C   UNK N   1      21.012  17.415   5.188  0.00  0.00     0.020 C 
BRANCH  13  14
HETATM   14  C   UNK N   1      21.322  18.864   4.873  0.00  0.00     0.002 C 
BRANCH  14  15
HETATM   15  C   UNK N   1      22.035  18.962   3.539  0.00  0.00     0.000 C 
BRANCH  15  16
HETATM   16  C   UNK N   1      23.518  19.260   3.710  0.00  0.00     0.000 C 
BRANCH  16  17
HETATM   17  C   UNK N   1      23.919  20.538   2.995  0.00  0.00    -0.000 C 
BRANCH  17  18
HETATM   18  C   UNK N   1      25.396  20.495   2.663  0.00  0.00    -0.005 C 
HETATM   19  C   UNK N   1      26.191  20.218   3.922  0.00  0.00     0.005 C 
ENDBRANCH  17  18
ENDBRANCH  16  17
ENDBRANCH  15  16
ENDBRANCH  14  15
ENDBRANCH  13  14
ENDBRANCH  12  13
ENDBRANCH   1  12
BRANCH   6  20
HETATM   20  N   UNK N   1      23.729  14.739   6.361  0.00  0.00    -0.324 N 
HETATM   21  C   UNK N   1      23.590  14.248   5.101  0.00  0.00     0.229 C 
HETATM   22  O   UNK N   1      22.917  13.247   4.899  0.00  0.00    -0.272 OA
HETATM   23  H   UNK N   1      24.398  15.450   6.489  0.00  0.00     0.169 HD
BRANCH  21  24
HETATM   24  C   UNK N   1      24.298  14.943   3.958  0.00  0.00     0.030 C 
HETATM   25  C   UNK N   1      23.266  15.523   3.008  0.00  0.00     0.025 C 
HETATM   26  C   UNK N   1      25.165  16.072   4.482  0.00  0.00     0.025 C 
HETATM   27  C   UNK N   1      25.183  13.989   3.170  0.00  0.00     0.025 C 
ENDBRANCH  21  24
ENDBRANCH   6  20
BRANCH   8  28
HETATM   28  C   UNK N   1      23.026  11.600  10.234  0.00  0.00     0.149 C 
BRANCH  28  29
HETATM   29  C   UNK N   1      23.737  11.981  11.498  0.00  0.00     0.143 C 
HETATM   30  O   UNK N   1      23.167  11.909  12.575  0.00  0.00    -0.650 OA
BRANCH  29  31
HETATM   31  O   UNK N   1      25.009  12.419  11.441  0.00  0.00    -0.776 OA
HETATM   32  H   UNK N   1      25.383  12.753  10.649  0.00  0.00     0.167 HD
ENDBRANCH  29  31
ENDBRANCH  28  29
ENDBRANCH   8  28
TORSDOF 12
ENDMDL
MODEL 4
REMARK VINA RESULT:      -6.4     15.511     17.475
REMARK  12 active torsions:
REMARK  status: ('A' for Active; 'I' for Inactive)
REMARK    1  A    between atoms: C_2  and  C_3 
REMARK    2  A    between atoms: C_3  and  C_4 
REMARK    3  A    between atoms: C_4  and  C_5 
REMARK    4  A    between atoms: C_5  and  C_6 
REMARK    5  A    between atoms: C_6  and  C_7 
REMARK    6  A    between atoms: C_7  and  C_8 
REMARK    7  A    between atoms: C_8  and  N_9 
REMARK    8  A    between atoms: C_14  and  N_24 
REMARK    9  A    between atoms: C_16  and  C_19 
REMARK   10  A    between atoms: C_19  and  C_20 
REMARK   11  A    between atoms: C_20  and  O_22 
REMARK       I    between atoms: N_24  and  C_25 
REMARK   12  A    between atoms: C_25  and  C_27 
ROOT
HETATM    1  N   UNK N   1      21.093  16.052   7.286  0.00  0.00    -0.378 N 
HETATM    2  C   UNK N   1      19.820  16.363   7.897  0.00  0.00     0.128 A 
HETATM    3  C   UNK N   1      19.651  15.303   9.023  0.00  0.00     0.061 A 
HETATM    4  C   UNK N   1      20.908  14.493   8.914  0.00  0.00    -0.021 A 
HETATM    5  C   UNK N   1      21.685  14.943   7.899  0.00  0.00     0.065 A 
HETATM    6  C   UNK N   1      22.911  14.342   7.576  0.00  0.00     0.068 A 
HETATM    7  C   UNK N   1      23.340  13.236   8.367  0.00  0.00    -0.025 A 
HETATM    8  C   UNK N   1      22.531  12.778   9.445  0.00  0.00    -0.034 A 
HETATM    9  C   UNK N   1      21.292  13.414   9.711  0.00  0.00    -0.046 A 
HETATM   10  C   UNK N   1      20.391  12.952  10.809  0.00  0.00     0.049 C 
HETATM   11  C   UNK N   1      24.608  12.509   8.041  0.00  0.00     0.051 C 
ENDROOT
BRANCH   1  12
HETATM   12  C   UNK N   1      21.782  16.975   6.416  0.00  0.00     0.123 C 
BRANCH  12  13
HETATM   13  C   UNK N   1      20.928  17.329   5.219  0.00  0.00     0.020 C 
BRANCH  13  14
HETATM   14  C   UNK N   1      21.402  18.649   4.646  0.00  0.00     0.002 C 
BRANCH  14  15
HETATM   15  C   UNK N   1      20.583  19.004   3.421  0.00  0.00     0.000 C 
BRANCH  15  16
HETATM   16  C   UNK N   1      19.946  17.775   2.791  0.00  0.00     0.000 C 
BRANCH  16  17
HETATM   17  C   UNK N   1      20.233  17.696   1.302  0.00  0.00    -0.000 C 
BRANCH  17  18
HETATM   18  C   UNK N   1      20.152  16.255   0.841  0.00  0.00    -0.005 C 
HETATM   19  C   UNK N   1      19.013  16.100  -0.143  0.00  0.00     0.005 C 
ENDBRANCH  17  18
ENDBRANCH  16  17
ENDBRANCH  15  16
ENDBRANCH  14  15
ENDBRANCH  13  14
ENDBRANCH  12  13
ENDBRANCH   1  12
BRANCH   6  20
HETATM   20  N   UNK N   1      23.627  14.780   6.424  0.00  0.00    -0.324 N 
HETATM   21  C   UNK N   1      23.495  14.296   5.161  0.00  0.00     0.229 C 
HETATM   22  O   UNK N   1      22.842  13.283   4.952  0.00  0.00    -0.272 OA
HETATM   23  H   UNK N   1      24.281  15.504   6.556  0.00  0.00     0.169 HD
BRANCH  21  24
HETATM   24  C   UNK N   1      24.187  15.013   4.022  0.00  0.00     0.030 C 
HETATM   25  C   UNK N   1      24.950  16.205   4.570  0.00  0.00     0.025 C 
HETATM   26  C   UNK N   1      25.169  14.083   3.332  0.00  0.00     0.025 C 
HETATM   27  C   UNK N   1      23.200  15.519   2.981  0.00  0.00     0.025 C 
ENDBRANCH  21  24
ENDBRANCH   6  20
BRANCH   8  28
HETATM   28  C   UNK N   1      22.976  11.584  10.260  0.00  0.00     0.149 C 
BRANCH  28  29
HETATM   29  C   UNK N   1      23.701  11.957  11.518  0.00  0.00     0.143 C 
HETATM   30  O   UNK N   1      23.137  11.897  12.598  0.00  0.00    -0.650 OA
BRANCH  29  31
HETATM   31  O   UNK N   1      24.979  12.372  11.451  0.00  0.00    -0.776 OA
HETATM   32  H   UNK N   1      25.322  12.803  10.693  0.00  0.00     0.167 HD
ENDBRANCH  29  31
ENDBRANCH  28  29
ENDBRANCH   8  28
TORSDOF 12
ENDMDL
MODEL 5
REMARK VINA RESULT:      -6.3     12.735     15.541
REMARK  12 active torsions:
REMARK  status: ('A' for Active; 'I' for Inactive)
REMARK    1  A    between atoms: C_2  and  C_3 
REMARK    2  A    between atoms: C_3  and  C_4 
REMARK    3  A    between atoms: C_4  and  C_5 
REMARK    4  A    between atoms: C_5  and  C_6 
REMARK    5  A    between atoms: C_6  and  C_7 
REMARK    6  A    between atoms: C_7  and  C_8 
REMARK    7  A    between atoms: C_8  and  N_9 
REMARK    8  A    between atoms: C_14  and  N_24 
REMARK    9  A    between atoms: C_16  and  C_19 
REMARK   10  A    between atoms: C_19  and  C_20 
REMARK   11  A    between atoms: C_20  and  O_22 
REMARK       I    between atoms: N_24  and  C_25 
REMARK   12  A    between atoms: C_25  and  C_27 
ROOT
HETATM    1  N   UNK N   1      28.121  15.983   6.072  0.00  0.00    -0.378 N 
HETATM    2  C   UNK N   1      27.132  16.420   7.031  0.00  0.00     0.128 A 
HETATM    3  C   UNK N   1      27.933  17.248   8.078  0.00  0.00     0.061 A 
HETATM    4  C   UNK N   1      29.336  17.184   7.554  0.00  0.00    -0.021 A 
HETATM    5  C   UNK N   1      29.395  16.436   6.425  0.00  0.00     0.065 A 
HETATM    6  C   UNK N   1      30.603  16.206   5.747  0.00  0.00     0.068 A 
HETATM    7  C   UNK N   1      31.786  16.804   6.271  0.00  0.00    -0.025 A 
HETATM    8  C   UNK N   1      31.717  17.604   7.447  0.00  0.00    -0.034 A 
HETATM    9  C   UNK N   1      30.471  17.785   8.099  0.00  0.00    -0.046 A 
HETATM   10  C   UNK N   1      30.350  18.589   9.353  0.00  0.00     0.049 C 
HETATM   11  C   UNK N   1      33.117  16.551   5.633  0.00  0.00     0.051 C 
ENDROOT
BRANCH   1  12
HETATM   12  C   UNK N   1      27.765  15.461   4.774  0.00  0.00     0.123 C 
BRANCH  12  13
HETATM   13  C   UNK N   1      26.602  16.228   4.183  0.00  0.00     0.020 C 
BRANCH  13  14
HETATM   14  C   UNK N   1      27.129  17.471   3.495  0.00  0.00     0.002 C 
BRANCH  14  15
HETATM   15  C   UNK N   1      26.130  18.602   3.638  0.00  0.00     0.000 C 
BRANCH  15  16
HETATM   16  C   UNK N   1      26.817  19.934   3.900  0.00  0.00     0.000 C 
BRANCH  16  17
HETATM   17  C   UNK N   1      27.995  19.780   4.846  0.00  0.00    -0.000 C 
BRANCH  17  18
HETATM   18  C   UNK N   1      27.585  20.197   6.244  0.00  0.00    -0.005 C 
HETATM   19  C   UNK N   1      27.167  21.652   6.237  0.00  0.00     0.005 C 
ENDBRANCH  17  18
ENDBRANCH  16  17
ENDBRANCH  15  16
ENDBRANCH  14  15
ENDBRANCH  13  14
ENDBRANCH  12  13
ENDBRANCH   1  12
BRANCH   6  20
HETATM   20  N   UNK N   1      30.625  15.314   4.636  0.00  0.00    -0.324 N 
HETATM   21  C   UNK N   1      30.828  13.971   4.684  0.00  0.00     0.229 C 
HETATM   22  O   UNK N   1      31.195  13.439   5.723  0.00  0.00    -0.272 OA
HETATM   23  H   UNK N   1      30.479  15.709   3.746  0.00  0.00     0.169 HD
BRANCH  21  24
HETATM   24  C   UNK N   1      30.621  13.149   3.431  0.00  0.00     0.030 C 
HETATM   25  C   UNK N   1      31.962  12.905   2.764  0.00  0.00     0.025 C 
HETATM   26  C   UNK N   1      29.998  11.809   3.775  0.00  0.00     0.025 C 
HETATM   27  C   UNK N   1      29.715  13.851   2.431  0.00  0.00     0.025 C 
ENDBRANCH  21  24
ENDBRANCH   6  20
BRANCH   8  28
HETATM   28  C   UNK N   1      32.980  18.209   8.016  0.00  0.00     0.149 C 
BRANCH  28  29
HETATM   29  C   UNK N   1      33.692  17.308   8.980  0.00  0.00     0.143 C 
HETATM   30  O   UNK N   1      34.819  17.577   9.363  0.00  0.00    -0.650 OA
BRANCH  29  31
HETATM   31  O   UNK N   1      33.087  16.187   9.415  0.00  0.00    -0.776 OA
HETATM   32  H   UNK N   1      32.905  15.467   8.842  0.00  0.00     0.167 HD
ENDBRANCH  29  31
ENDBRANCH  28  29
ENDBRANCH   8  28
TORSDOF 12
ENDMDL
MODEL 6
REMARK VINA RESULT:      -6.2     13.095     16.081
REMARK  12 active torsions:
REMARK  status: ('A' for Active; 'I' for Inactive)
REMARK    1  A    between atoms: C_2  and  C_3 
REMARK    2  A    between atoms: C_3  and  C_4 
REMARK    3  A    between atoms: C_4  and  C_5 
REMARK    4  A    between atoms: C_5  and  C_6 
REMARK    5  A    between atoms: C_6  and  C_7 
REMARK    6  A    between atoms: C_7  and  C_8 
REMARK    7  A    between atoms: C_8  and  N_9 
REMARK    8  A    between atoms: C_14  and  N_24 
REMARK    9  A    between atoms: C_16  and  C_19 
REMARK   10  A    between atoms: C_19  and  C_20 
REMARK   11  A    between atoms: C_20  and  O_22 
REMARK       I    between atoms: N_24  and  C_25 
REMARK   12  A    between atoms: C_25  and  C_27 
ROOT
HETATM    1  N   UNK N   1      22.705  17.019   5.046  0.00  0.00    -0.378 N 
HETATM    2  C   UNK N   1      21.595  17.769   5.588  0.00  0.00     0.128 A 
HETATM    3  C   UNK N   1      21.145  16.963   6.841  0.00  0.00     0.061 A 
HETATM    4  C   UNK N   1      22.104  15.811   6.861  0.00  0.00    -0.021 A 
HETATM    5  C   UNK N   1      22.956  15.875   5.808  0.00  0.00     0.065 A 
HETATM    6  C   UNK N   1      23.943  14.900   5.589  0.00  0.00     0.068 A 
HETATM    7  C   UNK N   1      24.043  13.830   6.526  0.00  0.00    -0.025 A 
HETATM    8  C   UNK N   1      23.158  13.777   7.640  0.00  0.00    -0.034 A 
HETATM    9  C   UNK N   1      22.170  14.780   7.799  0.00  0.00    -0.046 A 
HETATM   10  C   UNK N   1      21.197  14.753   8.933  0.00  0.00     0.049 C 
HETATM   11  C   UNK N   1      25.032  12.725   6.320  0.00  0.00     0.051 C 
ENDROOT
BRANCH   1  12
HETATM   12  C   UNK N   1      23.616  17.575   4.074  0.00  0.00     0.123 C 
BRANCH  12  13
HETATM   13  C   UNK N   1      24.440  18.689   4.680  0.00  0.00     0.020 C 
BRANCH  13  14
HETATM   14  C   UNK N   1      24.503  19.845   3.703  0.00  0.00     0.002 C 
BRANCH  14  15
HETATM   15  C   UNK N   1      25.919  20.008   3.186  0.00  0.00     0.000 C 
BRANCH  15  16
HETATM   16  C   UNK N   1      26.912  19.181   3.990  0.00  0.00     0.000 C 
BRANCH  16  17
HETATM   17  C   UNK N   1      27.941  20.058   4.680  0.00  0.00    -0.000 C 
BRANCH  17  18
HETATM   18  C   UNK N   1      27.561  20.244   6.135  0.00  0.00    -0.005 C 
HETATM   19  C   UNK N   1      26.985  21.629   6.336  0.00  0.00     0.005 C 
ENDBRANCH  17  18
ENDBRANCH  16  17
ENDBRANCH  15  16
ENDBRANCH  14  15
ENDBRANCH  13  14
ENDBRANCH  12  13
ENDBRANCH   1  12
BRANCH   6  20
HETATM   20  N   UNK N   1      24.729  14.953   4.402  0.00  0.00    -0.324 N 
HETATM   21  C   UNK N   1      26.034  15.325   4.316  0.00  0.00     0.229 C 
HETATM   22  O   UNK N   1      26.598  15.828   5.278  0.00  0.00    -0.272 OA
HETATM   23  H   UNK N   1      24.284  14.696   3.562  0.00  0.00     0.169 HD
BRANCH  21  24
HETATM   24  C   UNK N   1      26.770  15.132   3.007  0.00  0.00     0.030 C 
HETATM   25  C   UNK N   1      27.009  13.650   2.781  0.00  0.00     0.025 C 
HETATM   26  C   UNK N   1      25.945  15.673   1.853  0.00  0.00     0.025 C 
HETATM   27  C   UNK N   1      28.117  15.837   3.001  0.00  0.00     0.025 C 
ENDBRANCH  21  24
ENDBRANCH   6  20
BRANCH   8  28
HETATM   28  C   UNK N   1      23.249  12.622   8.612  0.00  0.00     0.149 C 
BRANCH  28  29
HETATM   29  C   UNK N   1      24.012  12.951   9.861  0.00  0.00     0.143 C 
HETATM   30  O   UNK N   1      25.154  13.374   9.795  0.00  0.00    -0.650 OA
BRANCH  29  31
HETATM   31  O   UNK N   1      23.435  12.763  11.062  0.00  0.00    -0.776 OA
HETATM   32  H   UNK N   1      22.950  13.441  11.491  0.00  0.00     0.167 HD
ENDBRANCH  29  31
ENDBRANCH  28  29
ENDBRANCH   8  28
TORSDOF 12
ENDMDL
MODEL 7
REMARK VINA RESULT:      -6.2      2.209      5.421
REMARK  12 active torsions:
REMARK  status: ('A' for Active; 'I' for Inactive)
REMARK    1  A    between atoms: C_2  and  C_3 
REMARK    2  A    between atoms: C_3  and  C_4 
REMARK    3  A    between atoms: C_4  and  C_5 
REMARK    4  A    between atoms: C_5  and  C_6 
REMARK    5  A    between atoms: C_6  and  C_7 
REMARK    6  A    between atoms: C_7  and  C_8 
REMARK    7  A    between atoms: C_8  and  N_9 
REMARK    8  A    between atoms: C_14  and  N_24 
REMARK    9  A    between atoms: C_16  and  C_19 
REMARK   10  A    between atoms: C_19  and  C_20 
REMARK   11  A    between atoms: C_20  and  O_22 
REMARK       I    between atoms: N_24  and  C_25 
REMARK   12  A    between atoms: C_25  and  C_27 
ROOT
HETATM    1  N   UNK N   1      26.893  25.153  -5.326  0.00  0.00    -0.378 N 
HETATM    2  C   UNK N   1      26.409  25.712  -4.085  0.00  0.00     0.128 A 
HETATM    3  C   UNK N   1      27.167  24.928  -2.974  0.00  0.00     0.061 A 
HETATM    4  C   UNK N   1      28.033  23.988  -3.758  0.00  0.00    -0.021 A 
HETATM    5  C   UNK N   1      27.825  24.138  -5.089  0.00  0.00     0.065 A 
HETATM    6  C   UNK N   1      28.503  23.360  -6.041  0.00  0.00     0.068 A 
HETATM    7  C   UNK N   1      29.447  22.402  -5.568  0.00  0.00    -0.025 A 
HETATM    8  C   UNK N   1      29.676  22.261  -4.171  0.00  0.00    -0.034 A 
HETATM    9  C   UNK N   1      28.948  23.062  -3.256  0.00  0.00    -0.046 A 
HETATM   10  C   UNK N   1      29.127  22.930  -1.779  0.00  0.00     0.049 C 
HETATM   11  C   UNK N   1      30.161  21.497  -6.525  0.00  0.00     0.051 C 
ENDROOT
BRANCH   1  12
HETATM   12  C   UNK N   1      26.691  25.801  -6.600  0.00  0.00     0.123 C 
BRANCH  12  13
HETATM   13  C   UNK N   1      26.577  27.300  -6.431  0.00  0.00     0.020 C 
BRANCH  13  14
HETATM   14  C   UNK N   1      27.921  27.934  -6.723  0.00  0.00     0.002 C 
BRANCH  14  15
HETATM   15  C   UNK N   1      28.520  28.486  -5.444  0.00  0.00     0.000 C 
BRANCH  15  16
HETATM   16  C   UNK N   1      29.876  27.866  -5.141  0.00  0.00     0.000 C 
BRANCH  16  17
HETATM   17  C   UNK N   1      29.923  27.276  -3.743  0.00  0.00    -0.000 C 
BRANCH  17  18
HETATM   18  C   UNK N   1      30.957  26.170  -3.689  0.00  0.00    -0.005 C 
HETATM   19  C   UNK N   1      31.252  25.684  -5.091  0.00  0.00     0.005 C 
ENDBRANCH  17  18
ENDBRANCH  16  17
ENDBRANCH  15  16
ENDBRANCH  14  15
ENDBRANCH  13  14
ENDBRANCH  12  13
ENDBRANCH   1  12
BRANCH   6  20
HETATM   20  N   UNK N   1      28.157  23.477  -7.418  0.00  0.00    -0.324 N 
HETATM   21  C   UNK N   1      27.165  22.805  -8.060  0.00  0.00     0.229 C 
HETATM   22  O   UNK N   1      26.585  21.881  -7.505  0.00  0.00    -0.272 OA
HETATM   23  H   UNK N   1      28.689  24.105  -7.959  0.00  0.00     0.169 HD
BRANCH  21  24
HETATM   24  C   UNK N   1      26.806  23.198  -9.477  0.00  0.00     0.030 C 
HETATM   25  C   UNK N   1      25.525  24.012  -9.461  0.00  0.00     0.025 C 
HETATM   26  C   UNK N   1      27.910  24.041 -10.087  0.00  0.00     0.025 C 
HETATM   27  C   UNK N   1      26.586  21.985 -10.367  0.00  0.00     0.025 C 
ENDBRANCH  21  24
ENDBRANCH   6  20
BRANCH   8  28
HETATM   28  C   UNK N   1      30.655  21.220  -3.675  0.00  0.00     0.149 C 
BRANCH  28  29
HETATM   29  C   UNK N   1      31.962  21.798  -3.219  0.00  0.00     0.143 C 
HETATM   30  O   UNK N   1      32.528  22.650  -3.885  0.00  0.00    -0.650 OA
BRANCH  29  31
HETATM   31  O   UNK N   1      32.519  21.364  -2.073  0.00  0.00    -0.776 OA
HETATM   32  H   UNK N   1      32.300  20.532  -1.700  0.00  0.00     0.167 HD
ENDBRANCH  29  31
ENDBRANCH  28  29
ENDBRANCH   8  28
TORSDOF 12
ENDMDL
MODEL 8
REMARK VINA RESULT:      -6.2     12.119     14.759
REMARK  12 active torsions:
REMARK  status: ('A' for Active; 'I' for Inactive)
REMARK    1  A    between atoms: C_2  and  C_3 
REMARK    2  A    between atoms: C_3  and  C_4 
REMARK    3  A    between atoms: C_4  and  C_5 
REMARK    4  A    between atoms: C_5  and  C_6 
REMARK    5  A    between atoms: C_6  and  C_7 
REMARK    6  A    between atoms: C_7  and  C_8 
REMARK    7  A    between atoms: C_8  and  N_9 
REMARK    8  A    between atoms: C_14  and  N_24 
REMARK    9  A    between atoms: C_16  and  C_19 
REMARK   10  A    between atoms: C_19  and  C_20 
REMARK   11  A    between atoms: C_20  and  O_22 
REMARK       I    between atoms: N_24  and  C_25 
REMARK   12  A    between atoms: C_25  and  C_27 
ROOT
HETATM    1  N   UNK N   1      24.158  15.590   5.807  0.00  0.00    -0.378 N 
HETATM    2  C   UNK N   1      23.480  14.317   5.908  0.00  0.00     0.128 A 
HETATM    3  C   UNK N   1      22.234  14.458   4.985  0.00  0.00     0.061 A 
HETATM    4  C   UNK N   1      22.372  15.849   4.444  0.00  0.00    -0.021 A 
HETATM    5  C   UNK N   1      23.468  16.459   4.957  0.00  0.00     0.065 A 
HETATM    6  C   UNK N   1      23.812  17.779   4.622  0.00  0.00     0.068 A 
HETATM    7  C   UNK N   1      22.976  18.470   3.696  0.00  0.00    -0.025 A 
HETATM    8  C   UNK N   1      21.837  17.820   3.145  0.00  0.00    -0.034 A 
HETATM    9  C   UNK N   1      21.529  16.492   3.537  0.00  0.00    -0.046 A 
HETATM   10  C   UNK N   1      20.328  15.776   3.012  0.00  0.00     0.049 C 
HETATM   11  C   UNK N   1      23.249  19.899   3.341  0.00  0.00     0.051 C 
ENDROOT
BRANCH   1  12
HETATM   12  C   UNK N   1      25.519  15.780   6.248  0.00  0.00     0.123 C 
BRANCH  12  13
HETATM   13  C   UNK N   1      26.333  14.520   6.051  0.00  0.00     0.020 C 
BRANCH  13  14
HETATM   14  C   UNK N   1      27.229  14.695   4.842  0.00  0.00     0.002 C 
BRANCH  14  15
HETATM   15  C   UNK N   1      26.610  14.016   3.637  0.00  0.00     0.000 C 
BRANCH  15  16
HETATM   16  C   UNK N   1      26.631  14.914   2.409  0.00  0.00     0.000 C 
BRANCH  16  17
HETATM   17  C   UNK N   1      25.228  15.284   1.962  0.00  0.00    -0.000 C 
BRANCH  17  18
HETATM   18  C   UNK N   1      24.372  14.036   1.879  0.00  0.00    -0.005 C 
HETATM   19  C   UNK N   1      23.162  14.308   1.011  0.00  0.00     0.005 C 
ENDBRANCH  17  18
ENDBRANCH  16  17
ENDBRANCH  15  16
ENDBRANCH  14  15
ENDBRANCH  13  14
ENDBRANCH  12  13
ENDBRANCH   1  12
BRANCH   6  20
HETATM   20  N   UNK N   1      24.905  18.409   5.284  0.00  0.00    -0.324 N 
HETATM   21  C   UNK N   1      26.131  18.660   4.755  0.00  0.00     0.229 C 
HETATM   22  O   UNK N   1      26.447  18.181   3.674  0.00  0.00    -0.272 OA
HETATM   23  H   UNK N   1      24.758  18.690   6.217  0.00  0.00     0.169 HD
BRANCH  21  24
HETATM   24  C   UNK N   1      27.108  19.516   5.532  0.00  0.00     0.030 C 
HETATM   25  C   UNK N   1      27.783  18.667   6.594  0.00  0.00     0.025 C 
HETATM   26  C   UNK N   1      28.173  20.074   4.607  0.00  0.00     0.025 C 
HETATM   27  C   UNK N   1      26.420  20.682   6.224  0.00  0.00     0.025 C 
ENDBRANCH  21  24
ENDBRANCH   6  20
BRANCH   8  28
HETATM   28  C   UNK N   1      20.937  18.570   2.189  0.00  0.00     0.149 C 
BRANCH  28  29
HETATM   29  C   UNK N   1      19.733  19.173   2.850  0.00  0.00     0.143 C 
HETATM   30  O   UNK N   1      19.860  20.072   3.665  0.00  0.00    -0.650 OA
BRANCH  29  31
HETATM   31  O   UNK N   1      18.506  18.709   2.549  0.00  0.00    -0.776 OA
HETATM   32  H   UNK N   1      18.019  18.172   3.144  0.00  0.00     0.167 HD
ENDBRANCH  29  31
ENDBRANCH  28  29
ENDBRANCH   8  28
TORSDOF 12
ENDMDL
MODEL 9
REMARK VINA RESULT:      -6.2     12.596     14.963
REMARK  12 active torsions:
REMARK  status: ('A' for Active; 'I' for Inactive)
REMARK    1  A    between atoms: C_2  and  C_3 
REMARK    2  A    between atoms: C_3  and  C_4 
REMARK    3  A    between atoms: C_4  and  C_5 
REMARK    4  A    between atoms: C_5  and  C_6 
REMARK    5  A    between atoms: C_6  and  C_7 
REMARK    6  A    between atoms: C_7  and  C_8 
REMARK    7  A    between atoms: C_8  and  N_9 
REMARK    8  A    between atoms: C_14  and  N_24 
REMARK    9  A    between atoms: C_16  and  C_19 
REMARK   10  A    between atoms: C_19  and  C_20 
REMARK   11  A    between atoms: C_20  and  O_22 
REMARK       I    between atoms: N_24  and  C_25 
REMARK   12  A    between atoms: C_25  and  C_27 
ROOT
HETATM    1  N   UNK N   1      28.158  16.507   6.137  0.00  0.00    -0.378 N 
HETATM    2  C   UNK N   1      27.755  16.976   7.443  0.00  0.00     0.128 A 
HETATM    3  C   UNK N   1      29.079  17.420   8.131  0.00  0.00     0.061 A 
HETATM    4  C   UNK N   1      30.112  17.147   7.080  0.00  0.00    -0.021 A 
HETATM    5  C   UNK N   1      29.543  16.608   5.974  0.00  0.00     0.065 A 
HETATM    6  C   UNK N   1      30.300  16.243   4.849  0.00  0.00     0.068 A 
HETATM    7  C   UNK N   1      31.707  16.473   4.890  0.00  0.00    -0.025 A 
HETATM    8  C   UNK N   1      32.298  17.056   6.046  0.00  0.00    -0.034 A 
HETATM    9  C   UNK N   1      31.484  17.387   7.158  0.00  0.00    -0.046 A 
HETATM   10  C   UNK N   1      32.059  17.971   8.408  0.00  0.00     0.049 C 
HETATM   11  C   UNK N   1      32.582  16.053   3.750  0.00  0.00     0.051 C 
ENDROOT
BRANCH   1  12
HETATM   12  C   UNK N   1      27.217  16.304   5.061  0.00  0.00     0.123 C 
BRANCH  12  13
HETATM   13  C   UNK N   1      25.829  16.751   5.465  0.00  0.00     0.020 C 
BRANCH  13  14
HETATM   14  C   UNK N   1      25.374  17.854   4.532  0.00  0.00     0.002 C 
BRANCH  14  15
HETATM   15  C   UNK N   1      26.539  18.327   3.685  0.00  0.00     0.000 C 
BRANCH  15  16
HETATM   16  C   UNK N   1      26.846  19.799   3.917  0.00  0.00     0.000 C 
BRANCH  16  17
HETATM   17  C   UNK N   1      28.072  19.984   4.792  0.00  0.00    -0.000 C 
BRANCH  17  18
HETATM   18  C   UNK N   1      27.644  20.306   6.210  0.00  0.00    -0.005 C 
HETATM   19  C   UNK N   1      26.755  21.531   6.205  0.00  0.00     0.005 C 
ENDBRANCH  17  18
ENDBRANCH  16  17
ENDBRANCH  15  16
ENDBRANCH  14  15
ENDBRANCH  13  14
ENDBRANCH  12  13
ENDBRANCH   1  12
BRANCH   6  20
HETATM   20  N   UNK N   1      29.666  15.570   3.764  0.00  0.00    -0.324 N 
HETATM   21  C   UNK N   1      29.534  14.226   3.617  0.00  0.00     0.229 C 
HETATM   22  O   UNK N   1      30.131  13.461   4.360  0.00  0.00    -0.272 OA
HETATM   23  H   UNK N   1      29.289  16.135   3.052  0.00  0.00     0.169 HD
BRANCH  21  24
HETATM   24  C   UNK N   1      28.658  13.690   2.504  0.00  0.00     0.030 C 
HETATM   25  C   UNK N   1      28.025  14.853   1.761  0.00  0.00     0.025 C 
HETATM   26  C   UNK N   1      29.486  12.880   1.524  0.00  0.00     0.025 C 
HETATM   27  C   UNK N   1      27.543  12.802   3.033  0.00  0.00     0.025 C 
ENDBRANCH  21  24
ENDBRANCH   6  20
BRANCH   8  28
HETATM   28  C   UNK N   1      33.794  17.268   6.095  0.00  0.00     0.149 C 
BRANCH  28  29
HETATM   29  C   UNK N   1      34.559  16.042   6.493  0.00  0.00     0.143 C 
HETATM   30  O   UNK N   1      35.563  15.713   5.883  0.00  0.00    -0.650 OA
BRANCH  29  31
HETATM   31  O   UNK N   1      34.125  15.292   7.523  0.00  0.00    -0.776 OA
HETATM   32  H   UNK N   1      34.107  15.618   8.401  0.00  0.00     0.167 HD
ENDBRANCH  29  31
ENDBRANCH  28  29
ENDBRANCH   8  28
TORSDOF 12
ENDMDL
