MODEL 1
REMARK VINA RESULT:      -6.0      0.000      0.000
REMARK  4 active torsions:
REMARK  status: ('A' for Active; 'I' for Inactive)
REMARK    1  A    between atoms: C_5  and  O_14 
REMARK    2  A    between atoms: C_6  and  O_15 
REMARK    3  A    between atoms: O_16  and  C_7 
REMARK    4  A    between atoms: C_8  and  N_13 
ROOT
HETATM    1  C   UNK N   1      33.364  15.078   9.315  0.00  0.00     0.145 A 
HETATM    2  C   UNK N   1      32.678  15.474   8.172  0.00  0.00     0.182 A 
HETATM    3  C   UNK N   1      32.952  16.719   7.620  0.00  0.00     0.185 A 
HETATM    4  C   UNK N   1      34.535  17.142   9.343  0.00  0.00     0.330 A 
HETATM    5  F   UNK N   1      31.761  14.649   7.608  0.00  0.00    -0.200 F 
HETATM    6  N   UNK N   1      33.869  17.527   8.207  0.00  0.00    -0.286 N 
ATOM      7  HN  UNK N   1      34.066  18.440   7.795  1.00  0.00     0.172 HD
HETATM    8  N   UNK N   1      34.278  15.899   9.911  0.00  0.00    -0.277 N 
HETATM    9  O   UNK N   1      35.362  17.895   9.822  0.00  0.00    -0.246 OA
ENDROOT
BRANCH   8  10
HETATM   10  C   UNK N   1      34.986  15.382  11.105  0.00  0.00     0.263 C 
HETATM   11  C   UNK N   1      36.376  14.856  10.799  0.00  0.00     0.198 C 
HETATM   12  C   UNK N   1      36.609  14.101  12.053  0.00  0.00     0.179 C 
HETATM   13  C   UNK N   1      35.273  13.418  12.174  0.00  0.00     0.151 C 
HETATM   14  C   UNK N   1      35.043  12.974  13.606  0.00  0.00     0.042 C 
HETATM   15  O   UNK N   1      34.289  14.349  11.778  0.00  0.00    -0.356 OA
BRANCH  11  16
HETATM   16  O   UNK N   1      37.295  15.898  10.679  0.00  0.00    -0.388 OA
HETATM   17  H   UNK N   1      37.364  16.672  11.260  0.00  0.00     0.210 HD
ENDBRANCH  11  16
BRANCH  12  18
HETATM   18  O   UNK N   1      37.653  13.185  11.917  0.00  0.00    -0.390 OA
HETATM   19  H   UNK N   1      38.612  13.249  11.791  0.00  0.00     0.210 HD
ENDBRANCH  12  18
ENDBRANCH   8  10
BRANCH   3  20
HETATM   20  O   UNK N   1      32.318  17.121   6.505  0.00  0.00    -0.344 OA
HETATM   21  H   UNK N   1      32.407  16.646   5.704  0.00  0.00     0.219 HD
ENDBRANCH   3  20
TORSDOF 4
ENDMDL
MODEL 2
REMARK VINA RESULT:      -5.9      5.380      8.239
REMARK  4 active torsions:
REMARK  status: ('A' for Active; 'I' for Inactive)
REMARK    1  A    between atoms: C_5  and  O_14 
REMARK    2  A    between atoms: C_6  and  O_15 
REMARK    3  A    between atoms: O_16  and  C_7 
REMARK    4  A    between atoms: C_8  and  N_13 
ROOT
HETATM    1  C   UNK N   1      35.278  13.710  16.750  0.00  0.00     0.145 A 
HETATM    2  C   UNK N   1      35.189  13.911  18.124  0.00  0.00     0.182 A 
HETATM    3  C   UNK N   1      35.253  12.810  18.970  0.00  0.00     0.185 A 
HETATM    4  C   UNK N   1      35.461  11.369  17.090  0.00  0.00     0.330 A 
HETATM    5  F   UNK N   1      35.048  15.164  18.622  0.00  0.00    -0.200 F 
HETATM    6  N   UNK N   1      35.388  11.567  18.446  0.00  0.00    -0.286 N 
ATOM      7  HN  UNK N   1      35.436  10.763  19.072  1.00  0.00     0.172 HD
HETATM    8  N   UNK N   1      35.401  12.456  16.225  0.00  0.00    -0.277 N 
HETATM    9  O   UNK N   1      35.601  10.236  16.669  0.00  0.00    -0.246 OA
ENDROOT
BRANCH   8  10
HETATM   10  C   UNK N   1      35.524  12.341  14.752  0.00  0.00     0.263 C 
HETATM   11  C   UNK N   1      36.959  12.394  14.263  0.00  0.00     0.198 C 
HETATM   12  C   UNK N   1      36.694  12.645  12.826  0.00  0.00     0.179 C 
HETATM   13  C   UNK N   1      35.630  13.702  12.959  0.00  0.00     0.151 C 
HETATM   14  C   UNK N   1      34.824  13.793  11.678  0.00  0.00     0.042 C 
HETATM   15  O   UNK N   1      34.804  13.331  14.041  0.00  0.00    -0.356 OA
BRANCH  11  16
HETATM   16  O   UNK N   1      37.597  11.165  14.434  0.00  0.00    -0.388 OA
HETATM   17  H   UNK N   1      38.171  10.722  13.789  0.00  0.00     0.210 HD
ENDBRANCH  11  16
BRANCH  12  18
HETATM   18  O   UNK N   1      37.827  13.124  12.169  0.00  0.00    -0.390 OA
HETATM   19  H   UNK N   1      38.045  13.355  11.252  0.00  0.00     0.210 HD
ENDBRANCH  12  18
ENDBRANCH   8  10
BRANCH   3  20
HETATM   20  O   UNK N   1      35.188  12.974  20.302  0.00  0.00    -0.344 OA
HETATM   21  H   UNK N   1      35.452  12.289  20.883  0.00  0.00     0.219 HD
ENDBRANCH   3  20
TORSDOF 4
ENDMDL
MODEL 3
REMARK VINA RESULT:      -5.8     15.303     17.739
REMARK  4 active torsions:
REMARK  status: ('A' for Active; 'I' for Inactive)
REMARK    1  A    between atoms: C_5  and  O_14 
REMARK    2  A    between atoms: C_6  and  O_15 
REMARK    3  A    between atoms: O_16  and  C_7 
REMARK    4  A    between atoms: C_8  and  N_13 
ROOT
HETATM    1  C   UNK N   1      29.720  22.472  -4.891  0.00  0.00     0.145 A 
HETATM    2  C   UNK N   1      30.356  21.255  -5.107  0.00  0.00     0.182 A 
HETATM    3  C   UNK N   1      31.096  20.690  -4.075  0.00  0.00     0.185 A 
HETATM    4  C   UNK N   1      30.576  22.543  -2.679  0.00  0.00     0.330 A 
HETATM    5  F   UNK N   1      30.249  20.633  -6.307  0.00  0.00    -0.200 F 
HETATM    6  N   UNK N   1      31.193  21.335  -2.886  0.00  0.00    -0.286 N 
ATOM      7  HN  UNK N   1      31.736  20.914  -2.132  1.00  0.00     0.172 HD
HETATM    8  N   UNK N   1      29.829  23.126  -3.697  0.00  0.00    -0.277 N 
HETATM    9  O   UNK N   1      30.677  23.074  -1.588  0.00  0.00    -0.246 OA
ENDROOT
BRANCH   8  10
HETATM   10  C   UNK N   1      29.088  24.400  -3.544  0.00  0.00     0.263 C 
HETATM   11  C   UNK N   1      27.584  24.237  -3.646  0.00  0.00     0.198 C 
HETATM   12  C   UNK N   1      27.219  25.659  -3.844  0.00  0.00     0.179 C 
HETATM   13  C   UNK N   1      28.266  26.038  -4.856  0.00  0.00     0.151 C 
HETATM   14  C   UNK N   1      28.453  27.543  -4.875  0.00  0.00     0.042 C 
HETATM   15  O   UNK N   1      29.464  25.393  -4.481  0.00  0.00    -0.356 OA
BRANCH  11  16
HETATM   16  O   UNK N   1      27.046  23.755  -2.452  0.00  0.00    -0.388 OA
HETATM   17  H   UNK N   1      26.715  24.292  -1.715  0.00  0.00     0.210 HD
ENDBRANCH  11  16
BRANCH  12  18
HETATM   18  O   UNK N   1      25.927  25.794  -4.353  0.00  0.00    -0.390 OA
HETATM   19  H   UNK N   1      25.523  25.723  -5.232  0.00  0.00     0.210 HD
ENDBRANCH  12  18
ENDBRANCH   8  10
BRANCH   3  20
HETATM   20  O   UNK N   1      31.708  19.506  -4.248  0.00  0.00    -0.344 OA
HETATM   21  H   UNK N   1      31.219  18.742  -4.480  0.00  0.00     0.219 HD
ENDBRANCH   3  20
TORSDOF 4
ENDMDL
MODEL 4
REMARK VINA RESULT:      -5.7     13.833     15.948
REMARK  4 active torsions:
REMARK  status: ('A' for Active; 'I' for Inactive)
REMARK    1  A    between atoms: C_5  and  O_14 
REMARK    2  A    between atoms: C_6  and  O_15 
REMARK    3  A    between atoms: O_16  and  C_7 
REMARK    4  A    between atoms: C_8  and  N_13 
ROOT
HETATM    1  C   UNK N   1      21.217  18.901   3.155  0.00  0.00     0.145 A 
HETATM    2  C   UNK N   1      21.140  19.944   2.238  0.00  0.00     0.182 A 
HETATM    3  C   UNK N   1      20.624  19.690   0.973  0.00  0.00     0.185 A 
HETATM    4  C   UNK N   1      20.308  17.406   1.552  0.00  0.00     0.330 A 
HETATM    5  F   UNK N   1      21.560  21.186   2.582  0.00  0.00    -0.200 F 
HETATM    6  N   UNK N   1      20.218  18.437   0.651  0.00  0.00    -0.286 N 
ATOM      7  HN  UNK N   1      19.839  18.258  -0.279  1.00  0.00     0.172 HD
HETATM    8  N   UNK N   1      20.818  17.638   2.825  0.00  0.00    -0.277 N 
HETATM    9  O   UNK N   1      19.913  16.303   1.223  0.00  0.00    -0.246 OA
ENDROOT
BRANCH   8  10
HETATM   10  C   UNK N   1      20.903  16.597   3.876  0.00  0.00     0.263 C 
HETATM   11  C   UNK N   1      19.607  16.409   4.642  0.00  0.00     0.198 C 
HETATM   12  C   UNK N   1      20.139  15.644   5.794  0.00  0.00     0.179 C 
HETATM   13  C   UNK N   1      21.371  16.460   6.077  0.00  0.00     0.151 C 
HETATM   14  C   UNK N   1      22.367  15.641   6.876  0.00  0.00     0.042 C 
HETATM   15  O   UNK N   1      21.921  16.834   4.832  0.00  0.00    -0.356 OA
BRANCH  11  16
HETATM   16  O   UNK N   1      18.701  15.633   3.917  0.00  0.00    -0.388 OA
HETATM   17  H   UNK N   1      17.734  15.704   3.946  0.00  0.00     0.210 HD
ENDBRANCH  11  16
BRANCH  12  18
HETATM   18  O   UNK N   1      19.251  15.648   6.870  0.00  0.00    -0.390 OA
HETATM   19  H   UNK N   1      18.299  15.498   6.977  0.00  0.00     0.210 HD
ENDBRANCH  12  18
ENDBRANCH   8  10
BRANCH   3  20
HETATM   20  O   UNK N   1      20.522  20.681   0.071  0.00  0.00    -0.344 OA
HETATM   21  H   UNK N   1      21.105  21.414   0.094  0.00  0.00     0.219 HD
ENDBRANCH   3  20
TORSDOF 4
ENDMDL
MODEL 5
REMARK VINA RESULT:      -5.7     15.516     17.373
REMARK  4 active torsions:
REMARK  status: ('A' for Active; 'I' for Inactive)
REMARK    1  A    between atoms: C_5  and  O_14 
REMARK    2  A    between atoms: C_6  and  O_15 
REMARK    3  A    between atoms: O_16  and  C_7 
REMARK    4  A    between atoms: C_8  and  N_13 
ROOT
HETATM    1  C   UNK N   1      29.446  25.428  -4.101  0.00  0.00     0.145 A 
HETATM    2  C   UNK N   1      28.929  26.709  -4.258  0.00  0.00     0.182 A 
HETATM    3  C   UNK N   1      27.596  26.941  -3.939  0.00  0.00     0.185 A 
HETATM    4  C   UNK N   1      27.332  24.652  -3.351  0.00  0.00     0.330 A 
HETATM    5  F   UNK N   1      29.720  27.712  -4.713  0.00  0.00    -0.200 F 
HETATM    6  N   UNK N   1      26.824  25.920  -3.493  0.00  0.00    -0.286 N 
ATOM      7  HN  UNK N   1      25.847  26.097  -3.259  1.00  0.00     0.172 HD
HETATM    8  N   UNK N   1      28.663  24.398  -3.663  0.00  0.00    -0.277 N 
HETATM    9  O   UNK N   1      26.604  23.773  -2.929  0.00  0.00    -0.246 OA
ENDROOT
BRANCH   8  10
HETATM   10  C   UNK N   1      29.307  23.074  -3.491  0.00  0.00     0.263 C 
HETATM   11  C   UNK N   1      30.474  23.095  -2.523  0.00  0.00     0.198 C 
HETATM   12  C   UNK N   1      31.085  21.794  -2.885  0.00  0.00     0.179 C 
HETATM   13  C   UNK N   1      31.013  21.903  -4.384  0.00  0.00     0.151 C 
HETATM   14  C   UNK N   1      31.107  20.526  -5.012  0.00  0.00     0.042 C 
HETATM   15  O   UNK N   1      29.778  22.509  -4.701  0.00  0.00    -0.356 OA
BRANCH  11  16
HETATM   16  O   UNK N   1      30.033  23.076  -1.199  0.00  0.00    -0.388 OA
HETATM   17  H   UNK N   1      29.258  22.602  -0.860  0.00  0.00     0.210 HD
ENDBRANCH  11  16
BRANCH  12  18
HETATM   18  O   UNK N   1      32.401  21.699  -2.432  0.00  0.00    -0.390 OA
HETATM   19  H   UNK N   1      32.961  20.984  -2.091  0.00  0.00     0.210 HD
ENDBRANCH  12  18
ENDBRANCH   8  10
BRANCH   3  20
HETATM   20  O   UNK N   1      27.073  28.173  -4.065  0.00  0.00    -0.344 OA
HETATM   21  H   UNK N   1      26.289  28.313  -4.558  0.00  0.00     0.219 HD
ENDBRANCH   3  20
TORSDOF 4
ENDMDL
MODEL 6
REMARK VINA RESULT:      -5.6     11.826     14.308
REMARK  4 active torsions:
REMARK  status: ('A' for Active; 'I' for Inactive)
REMARK    1  A    between atoms: C_5  and  O_14 
REMARK    2  A    between atoms: C_6  and  O_15 
REMARK    3  A    between atoms: O_16  and  C_7 
REMARK    4  A    between atoms: C_8  and  N_13 
ROOT
HETATM    1  C   UNK N   1      21.013  12.914  10.109  0.00  0.00     0.145 A 
HETATM    2  C   UNK N   1      21.212  12.264  11.323  0.00  0.00     0.182 A 
HETATM    3  C   UNK N   1      22.511  12.066  11.776  0.00  0.00     0.185 A 
HETATM    4  C   UNK N   1      23.360  13.124   9.823  0.00  0.00     0.330 A 
HETATM    5  F   UNK N   1      20.149  11.838  12.049  0.00  0.00    -0.200 F 
HETATM    6  N   UNK N   1      23.556  12.496  11.027  0.00  0.00    -0.286 N 
ATOM      7  HN  UNK N   1      24.507  12.348  11.366  1.00  0.00     0.172 HD
HETATM    8  N   UNK N   1      22.069  13.335   9.352  0.00  0.00    -0.277 N 
HETATM    9  O   UNK N   1      24.330  13.508   9.196  0.00  0.00    -0.246 OA
ENDROOT
BRANCH   8  10
HETATM   10  C   UNK N   1      21.763  14.049   8.090  0.00  0.00     0.263 C 
HETATM   11  C   UNK N   1      20.532  14.931   8.181  0.00  0.00     0.198 C 
HETATM   12  C   UNK N   1      20.308  15.151   6.733  0.00  0.00     0.179 C 
HETATM   13  C   UNK N   1      20.508  13.742   6.242  0.00  0.00     0.151 C 
HETATM   14  C   UNK N   1      20.829  13.748   4.760  0.00  0.00     0.042 C 
HETATM   15  O   UNK N   1      21.578  13.190   6.979  0.00  0.00    -0.356 OA
BRANCH  11  16
HETATM   16  O   UNK N   1      20.822  16.138   8.819  0.00  0.00    -0.388 OA
HETATM   17  H   UNK N   1      21.657  16.629   8.764  0.00  0.00     0.210 HD
ENDBRANCH  11  16
BRANCH  12  18
HETATM   18  O   UNK N   1      19.018  15.615   6.475  0.00  0.00    -0.390 OA
HETATM   19  H   UNK N   1      18.634  16.461   6.197  0.00  0.00     0.210 HD
ENDBRANCH  12  18
ENDBRANCH   8  10
BRANCH   3  20
HETATM   20  O   UNK N   1      22.733  11.457  12.952  0.00  0.00    -0.344 OA
HETATM   21  H   UNK N   1      23.458  10.874  13.062  0.00  0.00     0.219 HD
ENDBRANCH   3  20
TORSDOF 4
ENDMDL
MODEL 7
REMARK VINA RESULT:      -5.6      5.956      8.324
REMARK  4 active torsions:
REMARK  status: ('A' for Active; 'I' for Inactive)
REMARK    1  A    between atoms: C_5  and  O_14 
REMARK    2  A    between atoms: C_6  and  O_15 
REMARK    3  A    between atoms: O_16  and  C_7 
REMARK    4  A    between atoms: C_8  and  N_13 
ROOT
HETATM    1  C   UNK N   1      27.790  19.740   6.308  0.00  0.00     0.145 A 
HETATM    2  C   UNK N   1      27.115  20.446   5.318  0.00  0.00     0.182 A 
HETATM    3  C   UNK N   1      26.522  19.744   4.275  0.00  0.00     0.185 A 
HETATM    4  C   UNK N   1      27.300  17.698   5.203  0.00  0.00     0.330 A 
HETATM    5  F   UNK N   1      27.036  21.799   5.379  0.00  0.00    -0.200 F 
HETATM    6  N   UNK N   1      26.621  18.393   4.234  0.00  0.00    -0.286 N 
ATOM      7  HN  UNK N   1      26.183  17.883   3.466  1.00  0.00     0.172 HD
HETATM    8  N   UNK N   1      27.898  18.380   6.257  0.00  0.00    -0.277 N 
HETATM    9  O   UNK N   1      27.344  16.484   5.132  0.00  0.00    -0.246 OA
ENDROOT
BRANCH   8  10
HETATM   10  C   UNK N   1      28.604  17.708   7.373  0.00  0.00     0.263 C 
HETATM   11  C   UNK N   1      28.477  18.441   8.694  0.00  0.00     0.198 C 
HETATM   12  C   UNK N   1      29.563  17.758   9.434  0.00  0.00     0.179 C 
HETATM   13  C   UNK N   1      30.626  17.772   8.368  0.00  0.00     0.151 C 
HETATM   14  C   UNK N   1      31.671  16.712   8.660  0.00  0.00     0.042 C 
HETATM   15  O   UNK N   1      29.987  17.513   7.136  0.00  0.00    -0.356 OA
BRANCH  11  16
HETATM   16  O   UNK N   1      27.242  18.188   9.295  0.00  0.00    -0.388 OA
HETATM   17  H   UNK N   1      26.535  18.835   9.446  0.00  0.00     0.210 HD
ENDBRANCH  11  16
BRANCH  12  18
HETATM   18  O   UNK N   1      29.949  18.477  10.565  0.00  0.00    -0.390 OA
HETATM   19  H   UNK N   1      30.004  18.288  11.515  0.00  0.00     0.210 HD
ENDBRANCH  12  18
ENDBRANCH   8  10
BRANCH   3  20
HETATM   20  O   UNK N   1      25.849  20.398   3.314  0.00  0.00    -0.344 OA
HETATM   21  H   UNK N   1      26.014  21.304   3.143  0.00  0.00     0.219 HD
ENDBRANCH   3  20
TORSDOF 4
ENDMDL
MODEL 8
REMARK VINA RESULT:      -5.6      2.997      5.934
REMARK  4 active torsions:
REMARK  status: ('A' for Active; 'I' for Inactive)
REMARK    1  A    between atoms: C_5  and  O_14 
REMARK    2  A    between atoms: C_6  and  O_15 
REMARK    3  A    between atoms: O_16  and  C_7 
REMARK    4  A    between atoms: C_8  and  N_13 
ROOT
HETATM    1  C   UNK N   1      35.134  13.460  13.087  0.00  0.00     0.145 A 
HETATM    2  C   UNK N   1      35.420  12.801  14.278  0.00  0.00     0.182 A 
HETATM    3  C   UNK N   1      36.634  12.136  14.405  0.00  0.00     0.185 A 
HETATM    4  C   UNK N   1      37.219  12.768  12.189  0.00  0.00     0.330 A 
HETATM    5  F   UNK N   1      34.526  12.817  15.297  0.00  0.00    -0.200 F 
HETATM    6  N   UNK N   1      37.508  12.130  13.369  0.00  0.00    -0.286 N 
ATOM      7  HN  UNK N   1      38.397  11.641  13.469  1.00  0.00     0.172 HD
HETATM    8  N   UNK N   1      36.012  13.442  12.041  0.00  0.00    -0.277 N 
HETATM    9  O   UNK N   1      38.044  12.751  11.295  0.00  0.00    -0.246 OA
ENDROOT
BRANCH   8  10
HETATM   10  C   UNK N   1      35.640  14.201  10.824  0.00  0.00     0.263 C 
HETATM   11  C   UNK N   1      36.092  15.648  10.855  0.00  0.00     0.198 C 
HETATM   12  C   UNK N   1      35.255  16.167   9.748  0.00  0.00     0.179 C 
HETATM   13  C   UNK N   1      33.950  15.508  10.104  0.00  0.00     0.151 C 
HETATM   14  C   UNK N   1      33.045  15.454   8.889  0.00  0.00     0.042 C 
HETATM   15  O   UNK N   1      34.249  14.205  10.558  0.00  0.00    -0.356 OA
BRANCH  11  16
HETATM   16  O   UNK N   1      37.447  15.761  10.538  0.00  0.00    -0.388 OA
HETATM   17  H   UNK N   1      38.053  15.029  10.344  0.00  0.00     0.210 HD
ENDBRANCH  11  16
BRANCH  12  18
HETATM   18  O   UNK N   1      35.163  17.559   9.779  0.00  0.00    -0.390 OA
HETATM   19  H   UNK N   1      35.740  18.280  10.075  0.00  0.00     0.210 HD
ENDBRANCH  12  18
ENDBRANCH   8  10
BRANCH   3  20
HETATM   20  O   UNK N   1      36.945  11.505  15.550  0.00  0.00    -0.344 OA
HETATM   21  H   UNK N   1      36.437  11.639  16.325  0.00  0.00     0.219 HD
ENDBRANCH   3  20
TORSDOF 4
ENDMDL
MODEL 9
REMARK VINA RESULT:      -5.5      2.121      5.511
REMARK  4 active torsions:
REMARK  status: ('A' for Active; 'I' for Inactive)
REMARK    1  A    between atoms: C_5  and  O_14 
REMARK    2  A    between atoms: C_6  and  O_15 
REMARK    3  A    between atoms: O_16  and  C_7 
REMARK    4  A    between atoms: C_8  and  N_13 
ROOT
HETATM    1  C   UNK N   1      34.771  14.273   9.757  0.00  0.00     0.145 A 
HETATM    2  C   UNK N   1      35.583  13.554  10.628  0.00  0.00     0.182 A 
HETATM    3  C   UNK N   1      36.459  14.245  11.457  0.00  0.00     0.185 A 
HETATM    4  C   UNK N   1      35.725  16.305  10.525  0.00  0.00     0.330 A 
HETATM    5  F   UNK N   1      35.512  12.200  10.665  0.00  0.00    -0.200 F 
HETATM    6  N   UNK N   1      36.516  15.598  11.395  0.00  0.00    -0.286 N 
ATOM      7  HN  UNK N   1      37.160  16.099  12.007  1.00  0.00     0.172 HD
HETATM    8  N   UNK N   1      34.840  15.634   9.688  0.00  0.00    -0.277 N 
HETATM    9  O   UNK N   1      35.799  17.520  10.520  0.00  0.00    -0.246 OA
ENDROOT
BRANCH   8  10
HETATM   10  C   UNK N   1      33.913  16.320   8.757  0.00  0.00     0.263 C 
HETATM   11  C   UNK N   1      32.598  15.587   8.570  0.00  0.00     0.198 C 
HETATM   12  C   UNK N   1      32.124  16.289   7.354  0.00  0.00     0.179 C 
HETATM   13  C   UNK N   1      33.403  16.288   6.561  0.00  0.00     0.151 C 
HETATM   14  C   UNK N   1      33.355  17.364   5.493  0.00  0.00     0.042 C 
HETATM   15  O   UNK N   1      34.457  16.535   7.467  0.00  0.00    -0.356 OA
BRANCH  11  16
HETATM   16  O   UNK N   1      31.732  15.822   9.638  0.00  0.00    -0.388 OA
HETATM   17  H   UNK N   1      31.377  16.684   9.910  0.00  0.00     0.210 HD
ENDBRANCH  11  16
BRANCH  12  18
HETATM   18  O   UNK N   1      31.111  15.578   6.710  0.00  0.00    -0.390 OA
HETATM   19  H   UNK N   1      31.081  14.870   6.047  0.00  0.00     0.210 HD
ENDBRANCH  12  18
ENDBRANCH   8  10
BRANCH   3  20
HETATM   20  O   UNK N   1      37.243  13.578  12.321  0.00  0.00    -0.344 OA
HETATM   21  H   UNK N   1      37.062  13.588  13.239  0.00  0.00     0.219 HD
ENDBRANCH   3  20
TORSDOF 4
ENDMDL
