REMARK  3 active torsions:
REMARK  status: ('A' for Active; 'I' for Inactive)
REMARK    1  A    between atoms: C_4  and  C_7 
REMARK    2  A    between atoms: C_9  and  C_29 
REMARK    3  A    between atoms: C_10  and  N_15 
REMARK       I    between atoms: N_18  and  C_21 
ROOT
HETATM    1  C   UNK N   1      -1.286  -3.068   0.046  0.00  0.00     0.059 A 
HETATM    2  C   UNK N   1      -2.429  -2.298   0.200  0.00  0.00     0.048 A 
HETATM    3  C   UNK N   1      -2.356  -0.911   0.283  0.00  0.00     0.022 A 
HETATM    4  C   UNK N   1      -1.057  -0.313   0.261  0.00  0.00     0.129 A 
HETATM    5  N   UNK N   1       0.027  -1.122   0.070  0.00  0.00    -0.284 N 
ATOM      6  HN  UNK N   1       0.953  -0.698   0.014  1.00  0.00     0.188 HD
HETATM    7  N   UNK N   1      -0.082  -2.448  -0.045  0.00  0.00    -0.298 N 
ATOM      8  HN  UNK N   1       0.757  -3.006  -0.205  1.00  0.00     0.187 HD
ENDROOT
BRANCH   4   9
HETATM    9  N   UNK N   1      -0.832   1.076   0.528  0.00  0.00    -0.362 N 
HETATM   10  C   UNK N   1      -1.634   1.765   1.497  0.00  0.00     0.145 C 
HETATM   11  C   UNK N   1      -2.005   3.134   0.969  0.00  0.00     0.161 C 
HETATM   12  N   UNK N   1      -0.943   3.804   0.236  0.00  0.00    -0.214 N 
HETATM   13  C   UNK N   1       0.258   3.120  -0.251  0.00  0.00     0.161 C 
HETATM   14  C   UNK N   1      -1.116   5.187  -0.049  0.00  0.00     0.679 A 
HETATM   15  C   UNK N   1       0.442   1.678   0.244  0.00  0.00     0.145 C 
HETATM   16  N   UNK N   1      -2.294   5.802   0.266  0.00  0.00    -0.202 N 
HETATM   17  N   UNK N   1      -0.105   5.912  -0.600  0.00  0.00    -0.202 N 
HETATM   18  C   UNK N   1      -2.476   7.127   0.036  0.00  0.00     0.107 A 
ATOM     19  HN  UNK N   1      -3.049   5.257   0.682  1.00  0.00     0.183 HD
HETATM   20  C   UNK N   1      -1.446   7.882  -0.516  0.00  0.00     0.035 A 
HETATM   21  C   UNK N   1      -0.248   7.243  -0.832  0.00  0.00     0.107 A 
ATOM     22  HN  UNK N   1       0.772   5.451  -0.841  1.00  0.00     0.183 HD
ENDBRANCH   4   9
BRANCH   3  23
HETATM   23  C   UNK N   1      -3.660  -0.181   0.298  0.00  0.00    -0.019 A 
HETATM   24  C   UNK N   1      -4.831  -0.843   0.701  0.00  0.00     0.029 A 
HETATM   25  C   UNK N   1      -6.063  -0.190   0.635  0.00  0.00     0.088 A 
HETATM   26  N   UNK N   1      -6.137   1.079   0.152  0.00  0.00    -0.375 N 
HETATM   27  C   UNK N   1      -5.029   1.734  -0.281  0.00  0.00     0.088 A 
ATOM     28  HN  UNK N   1      -7.042   1.547   0.114  1.00  0.00     0.164 HD
HETATM   29  C   UNK N   1      -3.781   1.112  -0.225  0.00  0.00     0.029 A 
ENDBRANCH   3  23
BRANCH   1  30
HETATM   30  C   UNK N   1      -1.396  -4.539  -0.021  0.00  0.00    -0.008 A 
HETATM   31  C   UNK N   1      -2.642  -5.162   0.171  0.00  0.00     0.014 A 
HETATM   32  C   UNK N   1      -2.753  -6.553   0.130  0.00  0.00     0.001 A 
HETATM   33  C   UNK N   1      -1.621  -7.334  -0.110  0.00  0.00     0.000 A 
HETATM   34  C   UNK N   1      -0.378  -6.724  -0.306  0.00  0.00     0.001 A 
HETATM   35  C   UNK N   1      -0.264  -5.331  -0.257  0.00  0.00     0.014 A 
ENDBRANCH   1  30
TORSDOF 3
