MODEL 1
REMARK VINA RESULT:      -8.3      0.000      0.000
REMARK  6 active torsions:
REMARK  status: ('A' for Active; 'I' for Inactive)
REMARK    1  A    between atoms: C_2  and  O_3 
REMARK    2  A    between atoms: C_4  and  O_3 
REMARK    3  A    between atoms: C_8  and  C_39 
REMARK    4  A    between atoms: C_12  and  N_13 
REMARK    5  A    between atoms: N_16  and  C_20 
REMARK       I    between atoms: N_23  and  C_26 
REMARK    6  A    between atoms: C_26  and  C_28 
ROOT
HETATM    1  N   UNK N   1      22.377  12.855   6.487  0.00  0.00     0.107 N 
HETATM    2  C   UNK N   1      21.273  13.180   5.560  0.00  0.00     0.304 C 
HETATM    3  C   UNK N   1      21.681  14.196   4.474  0.00  0.00     0.303 C 
HETATM    4  N   UNK N   1      23.143  14.302   4.322  0.00  0.00     0.101 N 
HETATM    5  C   UNK N   1      23.693  12.948   4.356  0.00  0.00     0.308 C 
HETATM    6  C   UNK N   1      23.550  12.347   5.756  0.00  0.00     0.248 C 
HETATM    7  C   UNK N   1      23.487  10.836   5.645  0.00  0.00     0.045 C 
ENDROOT
BRANCH   4   8
HETATM    8  C   UNK N   1      23.512  15.005   3.067  0.00  0.00     0.159 C 
HETATM    9  C   UNK N   1      24.899  14.542   2.551  0.00  0.00     0.061 C 
HETATM   10  C   UNK N   1      25.838  15.707   2.256  0.00  0.00     0.128 C 
HETATM   11  N   UNK N   1      25.918  16.582   3.413  0.00  0.00    -0.348 N 
HETATM   12  C   UNK N   1      24.681  17.118   3.962  0.00  0.00     0.128 C 
HETATM   13  C   UNK N   1      27.152  16.968   3.878  0.00  0.00     0.257 C 
HETATM   14  C   UNK N   1      23.445  16.538   3.261  0.00  0.00     0.061 C 
HETATM   15  O   UNK N   1      28.146  16.589   3.269  0.00  0.00    -0.267 OA
HETATM   16  C   UNK N   1      22.482  14.699   1.987  0.00  0.00     0.049 C 
BRANCH  13  17
HETATM   17  C   UNK N   1      27.368  17.897   5.056  0.00  0.00     0.076 A 
HETATM   18  C   UNK N   1      27.480  17.353   6.362  0.00  0.00     0.024 A 
HETATM   19  N   UNK N   1      27.664  18.168   7.431  0.00  0.00    -0.355 N 
HETATM   20  C   UNK N   1      27.440  15.880   6.609  0.00  0.00     0.069 C 
HETATM   21  C   UNK N   1      27.728  19.512   7.292  0.00  0.00     0.180 A 
ATOM     22  HN  UNK N   1      27.755  17.758   8.361  1.00  0.00     0.166 HD
HETATM   23  N   UNK N   1      27.594  20.071   6.069  0.00  0.00    -0.355 N 
HETATM   24  C   UNK N   1      27.418  19.316   4.955  0.00  0.00     0.024 A 
ATOM     25  HN  UNK N   1      27.625  21.087   5.981  1.00  0.00     0.166 HD
HETATM   26  C   UNK N   1      27.173  20.042   3.687  0.00  0.00     0.069 C 
ENDBRANCH  13  17
ENDBRANCH   4   8
BRANCH   1  27
HETATM   27  C   UNK N   1      22.788  13.980   7.356  0.00  0.00     0.286 C 
HETATM   28  C   UNK N   1      21.628  14.864   7.669  0.00  0.00    -0.016 A 
HETATM   29  C   UNK N   1      21.107  15.854   6.834  0.00  0.00     0.011 A 
HETATM   30  C   UNK N   1      21.057  14.594   8.889  0.00  0.00    -0.046 A 
HETATM   31  C   UNK N   1      19.979  16.567   7.254  0.00  0.00     0.017 A 
HETATM   32  C   UNK N   1      19.368  16.270   8.489  0.00  0.00     0.048 A 
HETATM   33  C   UNK N   1      19.916  15.272   9.315  0.00  0.00     0.023 A 
HETATM   34  C   UNK N   1      21.777  13.547   9.643  0.00  0.00     0.073 C 
HETATM   35  C   UNK N   1      23.063  13.480   8.791  0.00  0.00     0.163 C 
BRANCH  32  36
HETATM   36  C   UNK N   1      18.137  17.006   8.925  0.00  0.00     0.417 C 
HETATM   37  F   UNK N   1      18.486  18.284   9.324  0.00  0.00    -0.166 F 
HETATM   38  F   UNK N   1      17.520  16.362   9.983  0.00  0.00    -0.166 F 
HETATM   39  F   UNK N   1      17.247  17.086   7.870  0.00  0.00    -0.166 F 
ENDBRANCH  32  36
BRANCH  35  40
HETATM   40  O   UNK N   1      24.005  12.441   8.975  0.00  0.00    -0.383 OA
BRANCH  40  41
HETATM   41  C   UNK N   1      24.926  12.804   9.966  0.00  0.00     0.163 C 
HETATM   42  C   UNK N   1      24.622  12.034  11.238  0.00  0.00     0.033 C 
ENDBRANCH  40  41
ENDBRANCH  35  40
ENDBRANCH   1  27
TORSDOF 6
ENDMDL
MODEL 2
REMARK VINA RESULT:      -8.3     10.404     13.438
REMARK  6 active torsions:
REMARK  status: ('A' for Active; 'I' for Inactive)
REMARK    1  A    between atoms: C_2  and  O_3 
REMARK    2  A    between atoms: C_4  and  O_3 
REMARK    3  A    between atoms: C_8  and  C_39 
REMARK    4  A    between atoms: C_12  and  N_13 
REMARK    5  A    between atoms: N_16  and  C_20 
REMARK       I    between atoms: N_23  and  C_26 
REMARK    6  A    between atoms: C_26  and  C_28 
ROOT
HETATM    1  N   UNK N   1      36.989  12.522  11.362  0.00  0.00     0.107 N 
HETATM    2  C   UNK N   1      36.947  11.106  10.940  0.00  0.00     0.304 C 
HETATM    3  C   UNK N   1      35.982  10.861   9.762  0.00  0.00     0.303 C 
HETATM    4  N   UNK N   1      35.643  12.102   9.043  0.00  0.00     0.101 N 
HETATM    5  C   UNK N   1      36.873  12.874   8.883  0.00  0.00     0.308 C 
HETATM    6  C   UNK N   1      37.356  13.399  10.237  0.00  0.00     0.248 C 
HETATM    7  C   UNK N   1      38.859  13.592  10.189  0.00  0.00     0.045 C 
ENDROOT
BRANCH   4   8
HETATM    8  C   UNK N   1      35.008  11.816   7.732  0.00  0.00     0.159 C 
HETATM    9  C   UNK N   1      35.648  12.664   6.602  0.00  0.00     0.061 C 
HETATM   10  C   UNK N   1      34.615  13.414   5.768  0.00  0.00     0.128 C 
HETATM   11  N   UNK N   1      33.742  14.183   6.639  0.00  0.00    -0.348 N 
HETATM   12  C   UNK N   1      33.048  13.487   7.712  0.00  0.00     0.128 C 
HETATM   13  C   UNK N   1      33.509  15.507   6.355  0.00  0.00     0.257 C 
HETATM   14  C   UNK N   1      33.476  12.016   7.812  0.00  0.00     0.061 C 
HETATM   15  O   UNK N   1      34.019  15.983   5.346  0.00  0.00    -0.267 OA
HETATM   16  C   UNK N   1      35.196  10.346   7.381  0.00  0.00     0.049 C 
BRANCH  13  17
HETATM   17  C   UNK N   1      32.600  16.407   7.167  0.00  0.00     0.076 A 
HETATM   18  C   UNK N   1      31.192  16.275   7.038  0.00  0.00     0.024 A 
HETATM   19  N   UNK N   1      30.360  17.077   7.748  0.00  0.00    -0.355 N 
HETATM   20  C   UNK N   1      30.575  15.237   6.158  0.00  0.00     0.069 C 
HETATM   21  C   UNK N   1      30.839  18.030   8.580  0.00  0.00     0.180 A 
ATOM     22  HN  UNK N   1      29.351  16.959   7.653  1.00  0.00     0.166 HD
HETATM   23  N   UNK N   1      32.172  18.210   8.707  0.00  0.00    -0.355 N 
HETATM   24  C   UNK N   1      33.062  17.437   8.034  0.00  0.00     0.024 A 
ATOM     25  HN  UNK N   1      32.519  18.946   9.323  1.00  0.00     0.166 HD
HETATM   26  C   UNK N   1      34.493  17.796   8.166  0.00  0.00     0.069 C 
ENDBRANCH  13  17
ENDBRANCH   4   8
BRANCH   1  27
HETATM   27  C   UNK N   1      35.734  13.008  11.977  0.00  0.00     0.286 C 
HETATM   28  C   UNK N   1      35.510  12.372  13.307  0.00  0.00    -0.016 A 
HETATM   29  C   UNK N   1      34.984  11.097  13.524  0.00  0.00     0.011 A 
HETATM   30  C   UNK N   1      35.914  13.160  14.358  0.00  0.00    -0.046 A 
HETATM   31  C   UNK N   1      34.882  10.623  14.836  0.00  0.00     0.017 A 
HETATM   32  C   UNK N   1      35.328  11.413  15.916  0.00  0.00     0.048 A 
HETATM   33  C   UNK N   1      35.849  12.697  15.671  0.00  0.00     0.023 A 
HETATM   34  C   UNK N   1      36.399  14.488  13.929  0.00  0.00     0.073 C 
HETATM   35  C   UNK N   1      35.903  14.464  12.467  0.00  0.00     0.163 C 
BRANCH  32  36
HETATM   36  C   UNK N   1      35.256  10.893  17.320  0.00  0.00     0.417 C 
HETATM   37  F   UNK N   1      36.484  10.364  17.675  0.00  0.00    -0.166 F 
HETATM   38  F   UNK N   1      34.295   9.904  17.435  0.00  0.00    -0.166 F 
HETATM   39  F   UNK N   1      34.939  11.926  18.181  0.00  0.00    -0.166 F 
ENDBRANCH  32  36
BRANCH  35  40
HETATM   40  O   UNK N   1      36.323  15.444  11.538  0.00  0.00    -0.383 OA
BRANCH  40  41
HETATM   41  C   UNK N   1      35.228  16.220  11.137  0.00  0.00     0.163 C 
HETATM   42  C   UNK N   1      34.083  15.304  10.745  0.00  0.00     0.033 C 
ENDBRANCH  40  41
ENDBRANCH  35  40
ENDBRANCH   1  27
TORSDOF 6
ENDMDL
MODEL 3
REMARK VINA RESULT:      -8.1      3.753      6.054
REMARK  6 active torsions:
REMARK  status: ('A' for Active; 'I' for Inactive)
REMARK    1  A    between atoms: C_2  and  O_3 
REMARK    2  A    between atoms: C_4  and  O_3 
REMARK    3  A    between atoms: C_8  and  C_39 
REMARK    4  A    between atoms: C_12  and  N_13 
REMARK    5  A    between atoms: N_16  and  C_20 
REMARK       I    between atoms: N_23  and  C_26 
REMARK    6  A    between atoms: C_26  and  C_28 
ROOT
HETATM    1  N   UNK N   1      25.847  17.026   5.544  0.00  0.00     0.107 N 
HETATM    2  C   UNK N   1      26.689  16.233   6.466  0.00  0.00     0.304 C 
HETATM    3  C   UNK N   1      27.569  15.200   5.733  0.00  0.00     0.303 C 
HETATM    4  N   UNK N   1      27.709  15.496   4.296  0.00  0.00     0.101 N 
HETATM    5  C   UNK N   1      27.934  16.933   4.158  0.00  0.00     0.308 C 
HETATM    6  C   UNK N   1      26.670  17.711   4.533  0.00  0.00     0.248 C 
HETATM    7  C   UNK N   1      27.061  19.092   5.020  0.00  0.00     0.045 C 
ENDROOT
BRANCH   4   8
HETATM    8  C   UNK N   1      28.813  14.715   3.684  0.00  0.00     0.159 C 
HETATM    9  C   UNK N   1      29.221  13.519   4.584  0.00  0.00     0.061 C 
HETATM   10  C   UNK N   1      30.721  13.464   4.850  0.00  0.00     0.128 C 
HETATM   11  N   UNK N   1      31.179  14.747   5.356  0.00  0.00    -0.348 N 
HETATM   12  C   UNK N   1      30.896  15.941   4.574  0.00  0.00     0.128 C 
HETATM   13  C   UNK N   1      31.960  14.781   6.487  0.00  0.00     0.257 C 
HETATM   14  C   UNK N   1      30.015  15.632   3.356  0.00  0.00     0.061 C 
HETATM   15  O   UNK N   1      32.277  13.716   7.006  0.00  0.00    -0.267 OA
HETATM   16  C   UNK N   1      28.362  14.159   2.339  0.00  0.00     0.049 C 
BRANCH  13  17
HETATM   17  C   UNK N   1      32.523  16.049   7.097  0.00  0.00     0.076 A 
HETATM   18  C   UNK N   1      33.865  16.419   6.822  0.00  0.00     0.024 A 
HETATM   19  N   UNK N   1      34.391  17.545   7.366  0.00  0.00    -0.355 N 
HETATM   20  C   UNK N   1      34.731  15.621   5.903  0.00  0.00     0.069 C 
HETATM   21  C   UNK N   1      33.668  18.333   8.194  0.00  0.00     0.180 A 
ATOM     22  HN  UNK N   1      35.353  17.803   7.146  1.00  0.00     0.166 HD
HETATM   23  N   UNK N   1      32.397  17.998   8.508  0.00  0.00    -0.355 N 
HETATM   24  C   UNK N   1      31.804  16.892   7.992  0.00  0.00     0.024 A 
ATOM     25  HN  UNK N   1      31.870  18.591   9.150  1.00  0.00     0.166 HD
HETATM   26  C   UNK N   1      30.448  16.565   8.491  0.00  0.00     0.069 C 
ENDBRANCH  13  17
ENDBRANCH   4   8
BRANCH   1  27
HETATM   27  C   UNK N   1      24.786  16.245   4.870  0.00  0.00     0.286 C 
HETATM   28  C   UNK N   1      23.941  15.523   5.865  0.00  0.00    -0.016 A 
HETATM   29  C   UNK N   1      24.267  14.318   6.492  0.00  0.00     0.011 A 
HETATM   30  C   UNK N   1      22.774  16.184   6.163  0.00  0.00    -0.046 A 
HETATM   31  C   UNK N   1      23.386  13.793   7.443  0.00  0.00     0.017 A 
HETATM   32  C   UNK N   1      22.204  14.484   7.779  0.00  0.00     0.048 A 
HETATM   33  C   UNK N   1      21.896  15.693   7.129  0.00  0.00     0.023 A 
HETATM   34  C   UNK N   1      22.589  17.414   5.366  0.00  0.00     0.073 C 
HETATM   35  C   UNK N   1      23.695  17.187   4.314  0.00  0.00     0.163 C 
BRANCH  32  36
HETATM   36  C   UNK N   1      21.277  13.943   8.825  0.00  0.00     0.417 C 
HETATM   37  F   UNK N   1      21.829  14.151  10.076  0.00  0.00    -0.166 F 
HETATM   38  F   UNK N   1      21.067  12.586   8.651  0.00  0.00    -0.166 F 
HETATM   39  F   UNK N   1      20.061  14.596   8.750  0.00  0.00    -0.166 F 
ENDBRANCH  32  36
BRANCH  35  40
HETATM   40  O   UNK N   1      24.083  18.220   3.429  0.00  0.00    -0.383 OA
BRANCH  40  41
HETATM   41  C   UNK N   1      23.386  19.395   3.736  0.00  0.00     0.163 C 
HETATM   42  C   UNK N   1      24.040  20.566   3.025  0.00  0.00     0.033 C 
ENDBRANCH  40  41
ENDBRANCH  35  40
ENDBRANCH   1  27
TORSDOF 6
ENDMDL
MODEL 4
REMARK VINA RESULT:      -8.0      5.893      9.058
REMARK  6 active torsions:
REMARK  status: ('A' for Active; 'I' for Inactive)
REMARK    1  A    between atoms: C_2  and  O_3 
REMARK    2  A    between atoms: C_4  and  O_3 
REMARK    3  A    between atoms: C_8  and  C_39 
REMARK    4  A    between atoms: C_12  and  N_13 
REMARK    5  A    between atoms: N_16  and  C_20 
REMARK       I    between atoms: N_23  and  C_26 
REMARK    6  A    between atoms: C_26  and  C_28 
ROOT
HETATM    1  N   UNK N   1      28.935  16.680   5.759  0.00  0.00     0.107 N 
HETATM    2  C   UNK N   1      29.333  15.277   5.514  0.00  0.00     0.304 C 
HETATM    3  C   UNK N   1      30.655  15.158   4.729  0.00  0.00     0.303 C 
HETATM    4  N   UNK N   1      31.443  16.403   4.759  0.00  0.00     0.101 N 
HETATM    5  C   UNK N   1      31.403  16.921   6.125  0.00  0.00     0.308 C 
HETATM    6  C   UNK N   1      29.996  17.414   6.470  0.00  0.00     0.248 C 
HETATM    7  C   UNK N   1      29.788  17.320   7.968  0.00  0.00     0.045 C 
ENDROOT
BRANCH   4   8
HETATM    8  C   UNK N   1      32.839  16.175   4.307  0.00  0.00     0.159 C 
HETATM    9  C   UNK N   1      33.161  14.661   4.221  0.00  0.00     0.061 C 
HETATM   10  C   UNK N   1      34.441  14.286   4.961  0.00  0.00     0.128 C 
HETATM   11  N   UNK N   1      34.386  14.785   6.325  0.00  0.00    -0.348 N 
HETATM   12  C   UNK N   1      34.134  16.203   6.533  0.00  0.00     0.128 C 
HETATM   13  C   UNK N   1      34.686  13.936   7.362  0.00  0.00     0.257 C 
HETATM   14  C   UNK N   1      33.837  16.932   5.215  0.00  0.00     0.061 C 
HETATM   15  O   UNK N   1      35.031  12.790   7.093  0.00  0.00    -0.267 OA
HETATM   16  C   UNK N   1      33.033  16.777   2.921  0.00  0.00     0.049 C 
BRANCH  13  17
HETATM   17  C   UNK N   1      34.692  14.341   8.823  0.00  0.00     0.076 A 
HETATM   18  C   UNK N   1      35.923  14.382   9.529  0.00  0.00     0.024 A 
HETATM   19  N   UNK N   1      35.949  14.733  10.839  0.00  0.00    -0.355 N 
HETATM   20  C   UNK N   1      37.226  14.085   8.862  0.00  0.00     0.069 C 
HETATM   21  C   UNK N   1      34.815  15.033  11.513  0.00  0.00     0.180 A 
ATOM     22  HN  UNK N   1      36.844  14.770  11.328  1.00  0.00     0.166 HD
HETATM   23  N   UNK N   1      33.620  14.974  10.885  0.00  0.00    -0.355 N 
HETATM   24  C   UNK N   1      33.521  14.641   9.573  0.00  0.00     0.024 A 
ATOM     25  HN  UNK N   1      32.771  15.184  11.410  1.00  0.00     0.166 HD
HETATM   26  C   UNK N   1      32.153  14.502   9.021  0.00  0.00     0.069 C 
ENDBRANCH  13  17
ENDBRANCH   4   8
BRANCH   1  27
HETATM   27  C   UNK N   1      28.554  17.423   4.537  0.00  0.00     0.286 C 
HETATM   28  C   UNK N   1      27.556  16.657   3.736  0.00  0.00    -0.016 A 
HETATM   29  C   UNK N   1      27.843  15.605   2.864  0.00  0.00     0.011 A 
HETATM   30  C   UNK N   1      26.261  17.061   3.958  0.00  0.00    -0.046 A 
HETATM   31  C   UNK N   1      26.785  14.953   2.222  0.00  0.00     0.017 A 
HETATM   32  C   UNK N   1      25.452  15.340   2.473  0.00  0.00     0.048 A 
HETATM   33  C   UNK N   1      25.190  16.407   3.351  0.00  0.00     0.023 A 
HETATM   34  C   UNK N   1      26.167  18.215   4.876  0.00  0.00     0.073 C 
HETATM   35  C   UNK N   1      27.655  18.627   4.897  0.00  0.00     0.163 C 
BRANCH  32  36
HETATM   36  C   UNK N   1      24.315  14.619   1.815  0.00  0.00     0.417 C 
HETATM   37  F   UNK N   1      24.325  13.293   2.210  0.00  0.00    -0.166 F 
HETATM   38  F   UNK N   1      24.421  14.674   0.436  0.00  0.00    -0.166 F 
HETATM   39  F   UNK N   1      23.118  15.197   2.194  0.00  0.00    -0.166 F 
ENDBRANCH  32  36
BRANCH  35  40
HETATM   40  O   UNK N   1      28.136  19.573   5.833  0.00  0.00    -0.383 OA
BRANCH  40  41
HETATM   41  C   UNK N   1      27.059  20.177   6.494  0.00  0.00     0.163 C 
HETATM   42  C   UNK N   1      27.050  21.662   6.182  0.00  0.00     0.033 C 
ENDBRANCH  40  41
ENDBRANCH  35  40
ENDBRANCH   1  27
TORSDOF 6
ENDMDL
MODEL 5
REMARK VINA RESULT:      -7.9      6.479      9.747
REMARK  6 active torsions:
REMARK  status: ('A' for Active; 'I' for Inactive)
REMARK    1  A    between atoms: C_2  and  O_3 
REMARK    2  A    between atoms: C_4  and  O_3 
REMARK    3  A    between atoms: C_8  and  C_39 
REMARK    4  A    between atoms: C_12  and  N_13 
REMARK    5  A    between atoms: N_16  and  C_20 
REMARK       I    between atoms: N_23  and  C_26 
REMARK    6  A    between atoms: C_26  and  C_28 
ROOT
HETATM    1  N   UNK N   1      32.090  15.496   5.524  0.00  0.00     0.107 N 
HETATM    2  C   UNK N   1      32.546  14.172   5.054  0.00  0.00     0.304 C 
HETATM    3  C   UNK N   1      31.381  13.193   4.800  0.00  0.00     0.303 C 
HETATM    4  N   UNK N   1      30.085  13.881   4.666  0.00  0.00     0.101 N 
HETATM    5  C   UNK N   1      30.293  15.062   3.831  0.00  0.00     0.308 C 
HETATM    6  C   UNK N   1      31.141  16.099   4.572  0.00  0.00     0.248 C 
HETATM    7  C   UNK N   1      31.881  16.952   3.561  0.00  0.00     0.045 C 
ENDROOT
BRANCH   4   8
HETATM    8  C   UNK N   1      29.050  12.986   4.090  0.00  0.00     0.159 C 
HETATM    9  C   UNK N   1      28.825  13.284   2.585  0.00  0.00     0.061 C 
HETATM   10  C   UNK N   1      27.355  13.492   2.236  0.00  0.00     0.128 C 
HETATM   11  N   UNK N   1      26.779  14.498   3.113  0.00  0.00    -0.348 N 
HETATM   12  C   UNK N   1      26.886  14.305   4.551  0.00  0.00     0.128 C 
HETATM   13  C   UNK N   1      26.054  15.529   2.565  0.00  0.00     0.257 C 
HETATM   14  C   UNK N   1      27.737  13.077   4.903  0.00  0.00     0.061 C 
HETATM   15  O   UNK N   1      25.887  15.540   1.351  0.00  0.00    -0.267 OA
HETATM   16  C   UNK N   1      29.496  11.535   4.221  0.00  0.00     0.049 C 
BRANCH  13  17
HETATM   17  C   UNK N   1      25.381  16.622   3.371  0.00  0.00     0.076 A 
HETATM   18  C   UNK N   1      26.158  17.701   3.869  0.00  0.00     0.024 A 
HETATM   19  N   UNK N   1      25.576  18.683   4.601  0.00  0.00    -0.355 N 
HETATM   20  C   UNK N   1      27.618  17.820   3.579  0.00  0.00     0.069 C 
HETATM   21  C   UNK N   1      24.256  18.659   4.893  0.00  0.00     0.180 A 
ATOM     22  HN  UNK N   1      26.148  19.458   4.939  1.00  0.00     0.166 HD
HETATM   23  N   UNK N   1      23.488  17.632   4.466  0.00  0.00    -0.355 N 
HETATM   24  C   UNK N   1      24.001  16.621   3.721  0.00  0.00     0.024 A 
ATOM     25  HN  UNK N   1      22.497  17.617   4.710  1.00  0.00     0.166 HD
HETATM   26  C   UNK N   1      23.090  15.497   3.403  0.00  0.00     0.069 C 
ENDBRANCH  13  17
ENDBRANCH   4   8
BRANCH   1  27
HETATM   27  C   UNK N   1      31.490  15.485   6.877  0.00  0.00     0.286 C 
HETATM   28  C   UNK N   1      32.541  15.335   7.925  0.00  0.00    -0.016 A 
HETATM   29  C   UNK N   1      33.145  14.137   8.311  0.00  0.00     0.011 A 
HETATM   30  C   UNK N   1      32.917  16.531   8.488  0.00  0.00    -0.046 A 
HETATM   31  C   UNK N   1      34.155  14.171   9.278  0.00  0.00     0.017 A 
HETATM   32  C   UNK N   1      34.569  15.399   9.834  0.00  0.00     0.048 A 
HETATM   33  C   UNK N   1      33.940  16.592   9.433  0.00  0.00     0.023 A 
HETATM   34  C   UNK N   1      32.133  17.677   7.982  0.00  0.00     0.073 C 
HETATM   35  C   UNK N   1      31.007  16.900   7.265  0.00  0.00     0.163 C 
BRANCH  32  36
HETATM   36  C   UNK N   1      35.676  15.443  10.843  0.00  0.00     0.417 C 
HETATM   37  F   UNK N   1      36.772  14.757  10.349  0.00  0.00    -0.166 F 
HETATM   38  F   UNK N   1      35.286  14.860  12.036  0.00  0.00    -0.166 F 
HETATM   39  F   UNK N   1      36.033  16.757  11.084  0.00  0.00    -0.166 F 
ENDBRANCH  32  36
BRANCH  35  40
HETATM   40  O   UNK N   1      30.097  17.562   6.407  0.00  0.00    -0.383 OA
BRANCH  40  41
HETATM   41  C   UNK N   1      28.964  17.956   7.130  0.00  0.00     0.163 C 
HETATM   42  C   UNK N   1      27.946  16.830   7.117  0.00  0.00     0.033 C 
ENDBRANCH  40  41
ENDBRANCH  35  40
ENDBRANCH   1  27
TORSDOF 6
ENDMDL
MODEL 6
REMARK VINA RESULT:      -7.9      4.132      7.134
REMARK  6 active torsions:
REMARK  status: ('A' for Active; 'I' for Inactive)
REMARK    1  A    between atoms: C_2  and  O_3 
REMARK    2  A    between atoms: C_4  and  O_3 
REMARK    3  A    between atoms: C_8  and  C_39 
REMARK    4  A    between atoms: C_12  and  N_13 
REMARK    5  A    between atoms: N_16  and  C_20 
REMARK       I    between atoms: N_23  and  C_26 
REMARK    6  A    between atoms: C_26  and  C_28 
ROOT
HETATM    1  N   UNK N   1      23.029  13.989   1.254  0.00  0.00     0.107 N 
HETATM    2  C   UNK N   1      24.287  14.692   1.581  0.00  0.00     0.304 C 
HETATM    3  C   UNK N   1      25.060  14.028   2.739  0.00  0.00     0.303 C 
HETATM    4  N   UNK N   1      24.628  12.641   2.983  0.00  0.00     0.101 N 
HETATM    5  C   UNK N   1      24.474  11.987   1.686  0.00  0.00     0.308 C 
HETATM    6  C   UNK N   1      23.281  12.576   0.928  0.00  0.00     0.248 C 
HETATM    7  C   UNK N   1      23.508  12.412  -0.562  0.00  0.00     0.045 C 
ENDROOT
BRANCH   4   8
HETATM    8  C   UNK N   1      25.593  11.913   3.846  0.00  0.00     0.159 C 
HETATM    9  C   UNK N   1      25.061  10.504   4.217  0.00  0.00     0.061 C 
HETATM   10  C   UNK N   1      25.107  10.232   5.717  0.00  0.00     0.128 C 
HETATM   11  N   UNK N   1      24.440  11.306   6.434  0.00  0.00    -0.348 N 
HETATM   12  C   UNK N   1      24.883  12.672   6.202  0.00  0.00     0.128 C 
HETATM   13  C   UNK N   1      23.500  10.993   7.387  0.00  0.00     0.257 C 
HETATM   14  C   UNK N   1      25.946  12.750   5.097  0.00  0.00     0.061 C 
HETATM   15  O   UNK N   1      23.288   9.809   7.626  0.00  0.00    -0.267 OA
HETATM   16  C   UNK N   1      26.912  11.737   3.104  0.00  0.00     0.049 C 
BRANCH  13  17
HETATM   17  C   UNK N   1      22.757  12.017   8.221  0.00  0.00     0.076 A 
HETATM   18  C   UNK N   1      21.554  12.582   7.721  0.00  0.00     0.024 A 
HETATM   19  N   UNK N   1      20.879  13.508   8.447  0.00  0.00    -0.355 N 
HETATM   20  C   UNK N   1      20.968  12.161   6.413  0.00  0.00     0.069 C 
HETATM   21  C   UNK N   1      21.332  13.931   9.649  0.00  0.00     0.180 A 
ATOM     22  HN  UNK N   1      20.009  13.893   8.078  1.00  0.00     0.166 HD
HETATM   23  N   UNK N   1      22.490  13.441  10.145  0.00  0.00    -0.355 N 
HETATM   24  C   UNK N   1      23.212  12.506   9.478  0.00  0.00     0.024 A 
ATOM     25  HN  UNK N   1      22.830  13.784  11.044  1.00  0.00     0.166 HD
HETATM   26  C   UNK N   1      24.517  12.125  10.065  0.00  0.00     0.069 C 
ENDBRANCH  13  17
ENDBRANCH   4   8
BRANCH   1  27
HETATM   27  C   UNK N   1      21.996  14.074   2.310  0.00  0.00     0.286 C 
HETATM   28  C   UNK N   1      21.631  15.494   2.587  0.00  0.00    -0.016 A 
HETATM   29  C   UNK N   1      22.354  16.382   3.387  0.00  0.00     0.011 A 
HETATM   30  C   UNK N   1      20.491  15.897   1.934  0.00  0.00    -0.046 A 
HETATM   31  C   UNK N   1      21.905  17.701   3.507  0.00  0.00     0.017 A 
HETATM   32  C   UNK N   1      20.756  18.129   2.811  0.00  0.00     0.048 A 
HETATM   33  C   UNK N   1      20.042  17.213   2.017  0.00  0.00     0.023 A 
HETATM   34  C   UNK N   1      19.846  14.805   1.176  0.00  0.00     0.073 C 
HETATM   35  C   UNK N   1      20.627  13.609   1.764  0.00  0.00     0.163 C 
BRANCH  32  36
HETATM   36  C   UNK N   1      20.294  19.551   2.908  0.00  0.00     0.417 C 
HETATM   37  F   UNK N   1      18.916  19.594   2.781  0.00  0.00    -0.166 F 
HETATM   38  F   UNK N   1      20.857  20.327   1.910  0.00  0.00    -0.166 F 
HETATM   39  F   UNK N   1      20.654  20.073   4.136  0.00  0.00    -0.166 F 
ENDBRANCH  32  36
BRANCH  35  40
HETATM   40  O   UNK N   1      20.533  12.322   1.187  0.00  0.00    -0.383 OA
BRANCH  40  41
HETATM   41  C   UNK N   1      19.261  12.143   0.629  0.00  0.00     0.163 C 
HETATM   42  C   UNK N   1      19.207  10.799  -0.074  0.00  0.00     0.033 C 
ENDBRANCH  40  41
ENDBRANCH  35  40
ENDBRANCH   1  27
TORSDOF 6
ENDMDL
MODEL 7
REMARK VINA RESULT:      -7.9      4.992      8.341
REMARK  6 active torsions:
REMARK  status: ('A' for Active; 'I' for Inactive)
REMARK    1  A    between atoms: C_2  and  O_3 
REMARK    2  A    between atoms: C_4  and  O_3 
REMARK    3  A    between atoms: C_8  and  C_39 
REMARK    4  A    between atoms: C_12  and  N_13 
REMARK    5  A    between atoms: N_16  and  C_20 
REMARK       I    between atoms: N_23  and  C_26 
REMARK    6  A    between atoms: C_26  and  C_28 
ROOT
HETATM    1  N   UNK N   1      27.710  16.758   4.227  0.00  0.00     0.107 N 
HETATM    2  C   UNK N   1      28.333  16.343   2.952  0.00  0.00     0.304 C 
HETATM    3  C   UNK N   1      27.712  15.055   2.374  0.00  0.00     0.303 C 
HETATM    4  N   UNK N   1      26.393  14.754   2.957  0.00  0.00     0.101 N 
HETATM    5  C   UNK N   1      25.641  16.005   3.029  0.00  0.00     0.308 C 
HETATM    6  C   UNK N   1      26.257  16.941   4.072  0.00  0.00     0.248 C 
HETATM    7  C   UNK N   1      25.944  18.377   3.700  0.00  0.00     0.045 C 
ENDROOT
BRANCH   4   8
HETATM    8  C   UNK N   1      25.666  13.731   2.164  0.00  0.00     0.159 C 
HETATM    9  C   UNK N   1      25.037  14.351   0.890  0.00  0.00     0.061 C 
HETATM   10  C   UNK N   1      23.557  14.018   0.739  0.00  0.00     0.128 C 
HETATM   11  N   UNK N   1      22.846  14.366   1.958  0.00  0.00    -0.348 N 
HETATM   12  C   UNK N   1      23.316  13.806   3.217  0.00  0.00     0.128 C 
HETATM   13  C   UNK N   1      21.694  15.110   1.873  0.00  0.00     0.257 C 
HETATM   14  C   UNK N   1      24.615  13.007   3.039  0.00  0.00     0.061 C 
HETATM   15  O   UNK N   1      21.284  15.420   0.760  0.00  0.00    -0.267 OA
HETATM   16  C   UNK N   1      26.634  12.639   1.727  0.00  0.00     0.049 C 
BRANCH  13  17
HETATM   17  C   UNK N   1      20.849  15.513   3.065  0.00  0.00     0.076 A 
HETATM   18  C   UNK N   1      19.673  14.778   3.366  0.00  0.00     0.024 A 
HETATM   19  N   UNK N   1      18.897  15.128   4.423  0.00  0.00    -0.355 N 
HETATM   20  C   UNK N   1      19.265  13.581   2.571  0.00  0.00     0.069 C 
HETATM   21  C   UNK N   1      19.205  16.189   5.204  0.00  0.00     0.180 A 
ATOM     22  HN  UNK N   1      18.063  14.580   4.633  1.00  0.00     0.166 HD
HETATM   23  N   UNK N   1      20.299  16.934   4.931  0.00  0.00    -0.355 N 
HETATM   24  C   UNK N   1      21.125  16.635   3.897  0.00  0.00     0.024 A 
ATOM     25  HN  UNK N   1      20.508  17.743   5.517  1.00  0.00     0.166 HD
HETATM   26  C   UNK N   1      22.229  17.585   3.627  0.00  0.00     0.069 C 
ENDBRANCH  13  17
ENDBRANCH   4   8
BRANCH   1  27
HETATM   27  C   UNK N   1      27.974  15.840   5.356  0.00  0.00     0.286 C 
HETATM   28  C   UNK N   1      29.306  16.116   5.969  0.00  0.00    -0.016 A 
HETATM   29  C   UNK N   1      30.538  15.678   5.478  0.00  0.00     0.011 A 
HETATM   30  C   UNK N   1      29.232  16.906   7.091  0.00  0.00    -0.046 A 
HETATM   31  C   UNK N   1      31.706  16.065   6.142  0.00  0.00     0.017 A 
HETATM   32  C   UNK N   1      31.638  16.904   7.273  0.00  0.00     0.048 A 
HETATM   33  C   UNK N   1      30.384  17.328   7.752  0.00  0.00     0.023 A 
HETATM   34  C   UNK N   1      27.842  17.229   7.477  0.00  0.00     0.073 C 
HETATM   35  C   UNK N   1      27.102  16.218   6.574  0.00  0.00     0.163 C 
BRANCH  32  36
HETATM   36  C   UNK N   1      32.890  17.352   7.965  0.00  0.00     0.417 C 
HETATM   37  F   UNK N   1      33.957  17.246   7.092  0.00  0.00    -0.166 F 
HETATM   38  F   UNK N   1      33.148  16.574   9.080  0.00  0.00    -0.166 F 
HETATM   39  F   UNK N   1      32.755  18.669   8.361  0.00  0.00    -0.166 F 
ENDBRANCH  32  36
BRANCH  35  40
HETATM   40  O   UNK N   1      25.699  16.284   6.404  0.00  0.00    -0.383 OA
BRANCH  40  41
HETATM   41  C   UNK N   1      25.118  15.065   6.777  0.00  0.00     0.163 C 
HETATM   42  C   UNK N   1      23.614  15.151   6.593  0.00  0.00     0.033 C 
ENDBRANCH  40  41
ENDBRANCH  35  40
ENDBRANCH   1  27
TORSDOF 6
ENDMDL
MODEL 8
REMARK VINA RESULT:      -7.9     11.169     14.111
REMARK  6 active torsions:
REMARK  status: ('A' for Active; 'I' for Inactive)
REMARK    1  A    between atoms: C_2  and  O_3 
REMARK    2  A    between atoms: C_4  and  O_3 
REMARK    3  A    between atoms: C_8  and  C_39 
REMARK    4  A    between atoms: C_12  and  N_13 
REMARK    5  A    between atoms: N_16  and  C_20 
REMARK       I    between atoms: N_23  and  C_26 
REMARK    6  A    between atoms: C_26  and  C_28 
ROOT
HETATM    1  N   UNK N   1      36.680  11.800  12.614  0.00  0.00     0.107 N 
HETATM    2  C   UNK N   1      36.653  10.323  12.661  0.00  0.00     0.304 C 
HETATM    3  C   UNK N   1      35.548   9.716  11.772  0.00  0.00     0.303 C 
HETATM    4  N   UNK N   1      35.049  10.668  10.764  0.00  0.00     0.101 N 
HETATM    5  C   UNK N   1      36.204  11.358  10.193  0.00  0.00     0.308 C 
HETATM    6  C   UNK N   1      36.842  12.283  11.232  0.00  0.00     0.248 C 
HETATM    7  C   UNK N   1      38.312  12.460  10.906  0.00  0.00     0.045 C 
ENDROOT
BRANCH   4   8
HETATM    8  C   UNK N   1      34.255   9.983   9.713  0.00  0.00     0.159 C 
HETATM    9  C   UNK N   1      35.106   9.726   8.443  0.00  0.00     0.061 C 
HETATM   10  C   UNK N   1      34.431  10.221   7.169  0.00  0.00     0.128 C 
HETATM   11  N   UNK N   1      34.040  11.612   7.327  0.00  0.00    -0.348 N 
HETATM   12  C   UNK N   1      33.199  11.970   8.459  0.00  0.00     0.128 C 
HETATM   13  C   UNK N   1      34.373  12.517   6.348  0.00  0.00     0.257 C 
HETATM   14  C   UNK N   1      32.966  10.778   9.399  0.00  0.00     0.061 C 
HETATM   15  O   UNK N   1      34.957  12.106   5.352  0.00  0.00    -0.267 OA
HETATM   16  C   UNK N   1      33.769   8.636  10.235  0.00  0.00     0.049 C 
BRANCH  13  17
HETATM   17  C   UNK N   1      33.999  13.986   6.381  0.00  0.00     0.076 A 
HETATM   18  C   UNK N   1      34.827  14.900   7.085  0.00  0.00     0.024 A 
HETATM   19  N   UNK N   1      34.505  16.217   7.135  0.00  0.00    -0.355 N 
HETATM   20  C   UNK N   1      36.089  14.465   7.757  0.00  0.00     0.069 C 
HETATM   21  C   UNK N   1      33.389  16.694   6.539  0.00  0.00     0.180 A 
ATOM     22  HN  UNK N   1      35.119  16.861   7.634  1.00  0.00     0.166 HD
HETATM   23  N   UNK N   1      32.558  15.852   5.886  0.00  0.00    -0.355 N 
HETATM   24  C   UNK N   1      32.823  14.525   5.788  0.00  0.00     0.024 A 
ATOM     25  HN  UNK N   1      31.710  16.223   5.458  1.00  0.00     0.166 HD
HETATM   26  C   UNK N   1      31.788  13.683   5.145  0.00  0.00     0.069 C 
ENDBRANCH  13  17
ENDBRANCH   4   8
BRANCH   1  27
HETATM   27  C   UNK N   1      35.498  12.448  13.227  0.00  0.00     0.286 C 
HETATM   28  C   UNK N   1      35.333  12.022  14.647  0.00  0.00    -0.016 A 
HETATM   29  C   UNK N   1      34.756  10.826  15.079  0.00  0.00     0.011 A 
HETATM   30  C   UNK N   1      35.851  12.924  15.545  0.00  0.00    -0.046 A 
HETATM   31  C   UNK N   1      34.720  10.551  16.450  0.00  0.00     0.017 A 
HETATM   32  C   UNK N   1      35.282  11.456  17.374  0.00  0.00     0.048 A 
HETATM   33  C   UNK N   1      35.852  12.657  16.913  0.00  0.00     0.023 A 
HETATM   34  C   UNK N   1      36.376  14.144  14.898  0.00  0.00     0.073 C 
HETATM   35  C   UNK N   1      35.779  13.944  13.488  0.00  0.00     0.163 C 
BRANCH  32  36
HETATM   36  C   UNK N   1      35.279  11.146  18.840  0.00  0.00     0.417 C 
HETATM   37  F   UNK N   1      34.960  12.291  19.549  0.00  0.00    -0.166 F 
HETATM   38  F   UNK N   1      36.520  10.697  19.256  0.00  0.00    -0.166 F 
HETATM   39  F   UNK N   1      34.339  10.169  19.106  0.00  0.00    -0.166 F 
ENDBRANCH  32  36
BRANCH  35  40
HETATM   40  O   UNK N   1      36.186  14.754  12.402  0.00  0.00    -0.383 OA
BRANCH  40  41
HETATM   41  C   UNK N   1      35.064  15.174  11.676  0.00  0.00     0.163 C 
HETATM   42  C   UNK N   1      35.402  16.449  10.926  0.00  0.00     0.033 C 
ENDBRANCH  40  41
ENDBRANCH  35  40
ENDBRANCH   1  27
TORSDOF 6
ENDMDL
MODEL 9
REMARK VINA RESULT:      -7.9      5.238      9.017
REMARK  6 active torsions:
REMARK  status: ('A' for Active; 'I' for Inactive)
REMARK    1  A    between atoms: C_2  and  O_3 
REMARK    2  A    between atoms: C_4  and  O_3 
REMARK    3  A    between atoms: C_8  and  C_39 
REMARK    4  A    between atoms: C_12  and  N_13 
REMARK    5  A    between atoms: N_16  and  C_20 
REMARK       I    between atoms: N_23  and  C_26 
REMARK    6  A    between atoms: C_26  and  C_28 
ROOT
HETATM    1  N   UNK N   1      29.133  17.862   5.146  0.00  0.00     0.107 N 
HETATM    2  C   UNK N   1      30.025  17.180   4.186  0.00  0.00     0.304 C 
HETATM    3  C   UNK N   1      29.422  15.873   3.631  0.00  0.00     0.303 C 
HETATM    4  N   UNK N   1      27.963  15.798   3.828  0.00  0.00     0.101 N 
HETATM    5  C   UNK N   1      27.401  17.106   3.499  0.00  0.00     0.308 C 
HETATM    6  C   UNK N   1      27.821  18.147   4.540  0.00  0.00     0.248 C 
HETATM    7  C   UNK N   1      27.825  19.520   3.898  0.00  0.00     0.045 C 
ENDROOT
BRANCH   4   8
HETATM    8  C   UNK N   1      27.356  14.724   3.002  0.00  0.00     0.159 C 
HETATM    9  C   UNK N   1      26.399  15.312   1.932  0.00  0.00     0.061 C 
HETATM   10  C   UNK N   1      25.024  14.652   1.942  0.00  0.00     0.128 C 
HETATM   11  N   UNK N   1      24.473  14.682   3.286  0.00  0.00    -0.348 N 
HETATM   12  C   UNK N   1      25.261  14.116   4.371  0.00  0.00     0.128 C 
HETATM   13  C   UNK N   1      23.187  15.131   3.473  0.00  0.00     0.257 C 
HETATM   14  C   UNK N   1      26.654  13.677   3.898  0.00  0.00     0.061 C 
HETATM   15  O   UNK N   1      22.536  15.455   2.486  0.00  0.00    -0.267 OA
HETATM   16  C   UNK N   1      28.452  13.952   2.278  0.00  0.00     0.049 C 
BRANCH  13  17
HETATM   17  C   UNK N   1      22.489  15.185   4.817  0.00  0.00     0.076 A 
HETATM   18  C   UNK N   1      22.579  16.364   5.603  0.00  0.00     0.024 A 
HETATM   19  N   UNK N   1      21.969  16.429   6.813  0.00  0.00    -0.355 N 
HETATM   20  C   UNK N   1      23.303  17.579   5.122  0.00  0.00     0.069 C 
HETATM   21  C   UNK N   1      21.280  15.379   7.314  0.00  0.00     0.180 A 
ATOM     22  HN  UNK N   1      22.033  17.290   7.358  1.00  0.00     0.166 HD
HETATM   23  N   UNK N   1      21.198  14.228   6.611  0.00  0.00    -0.355 N 
HETATM   24  C   UNK N   1      21.774  14.096   5.390  0.00  0.00     0.024 A 
ATOM     25  HN  UNK N   1      20.691  13.437   7.010  1.00  0.00     0.166 HD
HETATM   26  C   UNK N   1      21.712  12.755   4.763  0.00  0.00     0.069 C 
ENDBRANCH  13  17
ENDBRANCH   4   8
BRANCH   1  27
HETATM   27  C   UNK N   1      28.940  17.130   6.418  0.00  0.00     0.286 C 
HETATM   28  C   UNK N   1      30.251  16.782   7.038  0.00  0.00    -0.016 A 
HETATM   29  C   UNK N   1      31.064  15.705   6.678  0.00  0.00     0.011 A 
HETATM   30  C   UNK N   1      30.638  17.666   8.016  0.00  0.00    -0.046 A 
HETATM   31  C   UNK N   1      32.294  15.543   7.325  0.00  0.00     0.017 A 
HETATM   32  C   UNK N   1      32.712  16.467   8.304  0.00  0.00     0.048 A 
HETATM   33  C   UNK N   1      31.872  17.540   8.653  0.00  0.00     0.023 A 
HETATM   34  C   UNK N   1      29.625  18.709   8.283  0.00  0.00     0.073 C 
HETATM   35  C   UNK N   1      28.435  18.088   7.520  0.00  0.00     0.163 C 
BRANCH  32  36
HETATM   36  C   UNK N   1      34.046  16.317   8.971  0.00  0.00     0.417 C 
HETATM   37  F   UNK N   1      34.593  17.570   9.185  0.00  0.00    -0.166 F 
HETATM   38  F   UNK N   1      34.915  15.579   8.187  0.00  0.00    -0.166 F 
HETATM   39  F   UNK N   1      33.887  15.677  10.186  0.00  0.00    -0.166 F 
ENDBRANCH  32  36
BRANCH  35  40
HETATM   40  O   UNK N   1      27.256  18.832   7.279  0.00  0.00    -0.383 OA
BRANCH  40  41
HETATM   41  C   UNK N   1      27.487  20.188   7.546  0.00  0.00     0.163 C 
HETATM   42  C   UNK N   1      26.433  21.022   6.842  0.00  0.00     0.033 C 
ENDBRANCH  40  41
ENDBRANCH  35  40
ENDBRANCH   1  27
TORSDOF 6
ENDMDL
