MODEL 1
REMARK VINA RESULT:      -6.6      0.000      0.000
REMARK  3 active torsions:
REMARK  status: ('A' for Active; 'I' for Inactive)
REMARK    1  A    between atoms: C_6  and  C_7 
REMARK    2  A    between atoms: C_7  and  C_9 
REMARK    3  A    between atoms: C_13  and  N_14 
ROOT
HETATM    1  C   UNK N   1      29.986  17.526   7.286  0.00  0.00     0.056 A 
HETATM    2  C   UNK N   1      31.000  17.353   6.268  0.00  0.00    -0.028 A 
HETATM    3  C   UNK N   1      32.309  17.356   6.757  0.00  0.00    -0.008 A 
HETATM    4  S   UNK N   1      32.235  17.573   8.385  0.00  0.00    -0.076 SA
HETATM    5  C   UNK N   1      30.593  17.665   8.569  0.00  0.00     0.083 A 
HETATM    6  C   UNK N   1      33.550  17.209   5.931  0.00  0.00     0.047 C 
HETATM    7  C   UNK N   1      33.219  16.866   4.473  0.00  0.00     0.005 C 
HETATM    8  C   UNK N   1      31.974  17.601   3.976  0.00  0.00     0.005 C 
HETATM    9  C   UNK N   1      30.745  17.189   4.793  0.00  0.00     0.041 C 
ENDROOT
BRANCH   1  10
HETATM   10  C   UNK N   1      28.508  17.520   6.927  0.00  0.00     0.195 C 
HETATM   11  O   UNK N   1      27.779  16.794   7.590  0.00  0.00    -0.287 OA
BRANCH  10  12
HETATM   12  C   UNK N   1      27.831  18.328   5.861  0.00  0.00     0.015 A 
HETATM   13  C   UNK N   1      27.857  19.724   5.822  0.00  0.00     0.017 A 
HETATM   14  C   UNK N   1      27.191  20.434   4.819  0.00  0.00     0.025 A 
HETATM   15  C   UNK N   1      26.490  19.748   3.828  0.00  0.00     0.034 A 
HETATM   16  C   UNK N   1      26.471  18.353   3.832  0.00  0.00     0.025 A 
HETATM   17 Cl   UNK N   1      25.630  20.637   2.593  0.00  0.00    -0.084 Cl
HETATM   18  C   UNK N   1      27.141  17.649   4.838  0.00  0.00     0.017 A 
ENDBRANCH  10  12
ENDBRANCH   1  10
BRANCH   5  19
HETATM   19  N   UNK N   1      29.986  17.815   9.826  0.00  0.00    -0.393 N 
HETATM   20  H   UNK N   1      29.993  18.691  10.275  0.00  0.00     0.156 HD
HETATM   21  H   UNK N   1      29.554  17.044  10.259  0.00  0.00     0.156 HD
ENDBRANCH   5  19
TORSDOF 3
ENDMDL
MODEL 2
REMARK VINA RESULT:      -6.6      4.875      7.341
REMARK  3 active torsions:
REMARK  status: ('A' for Active; 'I' for Inactive)
REMARK    1  A    between atoms: C_6  and  C_7 
REMARK    2  A    between atoms: C_7  and  C_9 
REMARK    3  A    between atoms: C_13  and  N_14 
ROOT
HETATM    1  C   UNK N   1      32.556  17.530   7.567  0.00  0.00     0.056 A 
HETATM    2  C   UNK N   1      32.492  17.314   6.138  0.00  0.00    -0.028 A 
HETATM    3  C   UNK N   1      31.195  17.159   5.640  0.00  0.00    -0.008 A 
HETATM    4  S   UNK N   1      30.155  17.275   6.907  0.00  0.00    -0.076 SA
HETATM    5  C   UNK N   1      31.245  17.528   8.127  0.00  0.00     0.083 A 
HETATM    6  C   UNK N   1      30.834  16.912   4.207  0.00  0.00     0.047 C 
HETATM    7  C   UNK N   1      32.058  17.026   3.289  0.00  0.00     0.005 C 
HETATM    8  C   UNK N   1      33.319  16.456   3.938  0.00  0.00     0.005 C 
HETATM    9  C   UNK N   1      33.672  17.238   5.207  0.00  0.00     0.041 C 
ENDROOT
BRANCH   1  10
HETATM   10  C   UNK N   1      33.890  17.743   8.267  0.00  0.00     0.195 C 
HETATM   11  O   UNK N   1      34.354  18.875   8.246  0.00  0.00    -0.287 OA
BRANCH  10  12
HETATM   12  C   UNK N   1      34.698  16.720   9.008  0.00  0.00     0.015 A 
HETATM   13  C   UNK N   1      35.216  16.930  10.288  0.00  0.00     0.017 A 
HETATM   14  C   UNK N   1      35.983  15.954  10.929  0.00  0.00     0.025 A 
HETATM   15  C   UNK N   1      36.237  14.739  10.294  0.00  0.00     0.034 A 
HETATM   16  C   UNK N   1      35.708  14.496   9.026  0.00  0.00     0.025 A 
HETATM   17 Cl   UNK N   1      37.224  13.530  11.083  0.00  0.00    -0.084 Cl
HETATM   18  C   UNK N   1      34.940  15.477   8.391  0.00  0.00     0.017 A 
ENDBRANCH  10  12
ENDBRANCH   1  10
BRANCH   5  19
HETATM   19  N   UNK N   1      30.847  17.736   9.457  0.00  0.00    -0.393 N 
HETATM   20  H   UNK N   1      30.670  16.966  10.044  0.00  0.00     0.156 HD
HETATM   21  H   UNK N   1      30.744  18.652   9.802  0.00  0.00     0.156 HD
ENDBRANCH   5  19
TORSDOF 3
ENDMDL
MODEL 3
REMARK VINA RESULT:      -6.4      4.858      7.534
REMARK  3 active torsions:
REMARK  status: ('A' for Active; 'I' for Inactive)
REMARK    1  A    between atoms: C_6  and  C_7 
REMARK    2  A    between atoms: C_7  and  C_9 
REMARK    3  A    between atoms: C_13  and  N_14 
ROOT
HETATM    1  C   UNK N   1      32.167  17.271   6.765  0.00  0.00     0.056 A 
HETATM    2  C   UNK N   1      31.005  17.560   7.577  0.00  0.00    -0.028 A 
HETATM    3  C   UNK N   1      29.794  17.507   6.882  0.00  0.00    -0.008 A 
HETATM    4  S   UNK N   1      30.129  17.127   5.318  0.00  0.00    -0.076 SA
HETATM    5  C   UNK N   1      31.776  17.001   5.421  0.00  0.00     0.083 A 
HETATM    6  C   UNK N   1      28.440  17.773   7.466  0.00  0.00     0.047 C 
HETATM    7  C   UNK N   1      28.506  17.939   8.989  0.00  0.00     0.005 C 
HETATM    8  C   UNK N   1      29.763  18.687   9.434  0.00  0.00     0.005 C 
HETATM    9  C   UNK N   1      31.020  17.905   9.042  0.00  0.00     0.041 C 
ENDROOT
BRANCH   1  10
HETATM   10  C   UNK N   1      33.562  17.260   7.371  0.00  0.00     0.195 C 
HETATM   11  O   UNK N   1      34.415  17.938   6.813  0.00  0.00    -0.287 OA
BRANCH  10  12
HETATM   12  C   UNK N   1      34.012  16.526   8.599  0.00  0.00     0.015 A 
HETATM   13  C   UNK N   1      33.620  15.220   8.899  0.00  0.00     0.017 A 
HETATM   14  C   UNK N   1      34.047  14.585  10.068  0.00  0.00     0.025 A 
HETATM   15  C   UNK N   1      34.887  15.255  10.957  0.00  0.00     0.034 A 
HETATM   16  C   UNK N   1      35.312  16.552  10.666  0.00  0.00     0.025 A 
HETATM   17 Cl   UNK N   1      35.395  14.473  12.436  0.00  0.00    -0.084 Cl
HETATM   18  C   UNK N   1      34.882  17.180   9.493  0.00  0.00     0.017 A 
ENDBRANCH  10  12
ENDBRANCH   1  10
BRANCH   5  19
HETATM   19  N   UNK N   1      32.570  16.643   4.320  0.00  0.00    -0.393 N 
HETATM   20  H   UNK N   1      32.347  15.843   3.791  0.00  0.00     0.156 HD
HETATM   21  H   UNK N   1      33.351  17.191   4.077  0.00  0.00     0.156 HD
ENDBRANCH   5  19
TORSDOF 3
ENDMDL
MODEL 4
REMARK VINA RESULT:      -6.3     12.087     14.017
REMARK  3 active torsions:
REMARK  status: ('A' for Active; 'I' for Inactive)
REMARK    1  A    between atoms: C_6  and  C_7 
REMARK    2  A    between atoms: C_7  and  C_9 
REMARK    3  A    between atoms: C_13  and  N_14 
ROOT
HETATM    1  C   UNK N   1      35.462  12.778  14.683  0.00  0.00     0.056 A 
HETATM    2  C   UNK N   1      35.139  11.736  13.733  0.00  0.00    -0.028 A 
HETATM    3  C   UNK N   1      35.845  11.819  12.530  0.00  0.00    -0.008 A 
HETATM    4  S   UNK N   1      36.830  13.132  12.616  0.00  0.00    -0.076 SA
HETATM    5  C   UNK N   1      36.444  13.657  14.138  0.00  0.00     0.083 A 
HETATM    6  C   UNK N   1      35.704  10.884  11.368  0.00  0.00     0.047 C 
HETATM    7  C   UNK N   1      34.808   9.687  11.713  0.00  0.00     0.005 C 
HETATM    8  C   UNK N   1      33.633  10.086  12.606  0.00  0.00     0.005 C 
HETATM    9  C   UNK N   1      34.137  10.633  13.945  0.00  0.00     0.041 C 
ENDROOT
BRANCH   1  10
HETATM   10  C   UNK N   1      34.803  12.820  16.054  0.00  0.00     0.195 C 
HETATM   11  O   UNK N   1      33.765  13.462  16.151  0.00  0.00    -0.287 OA
BRANCH  10  12
HETATM   12  C   UNK N   1      35.271  12.141  17.305  0.00  0.00     0.015 A 
HETATM   13  C   UNK N   1      35.130  12.696  18.579  0.00  0.00     0.017 A 
HETATM   14  C   UNK N   1      35.603  12.033  19.715  0.00  0.00     0.025 A 
HETATM   15  C   UNK N   1      36.222  10.790  19.589  0.00  0.00     0.034 A 
HETATM   16  C   UNK N   1      36.351  10.204  18.329  0.00  0.00     0.025 A 
HETATM   17 Cl   UNK N   1      36.843   9.976  21.007  0.00  0.00    -0.084 Cl
HETATM   18  C   UNK N   1      35.874  10.873  17.198  0.00  0.00     0.017 A 
ENDBRANCH  10  12
ENDBRANCH   1  10
BRANCH   5  19
HETATM   19  N   UNK N   1      37.064  14.770  14.727  0.00  0.00    -0.393 N 
HETATM   20  H   UNK N   1      36.728  15.677  14.539  0.00  0.00     0.156 HD
HETATM   21  H   UNK N   1      37.834  14.645  15.326  0.00  0.00     0.156 HD
ENDBRANCH   5  19
TORSDOF 3
ENDMDL
MODEL 5
REMARK VINA RESULT:      -6.2      2.224      2.900
REMARK  3 active torsions:
REMARK  status: ('A' for Active; 'I' for Inactive)
REMARK    1  A    between atoms: C_6  and  C_7 
REMARK    2  A    between atoms: C_7  and  C_9 
REMARK    3  A    between atoms: C_13  and  N_14 
ROOT
HETATM    1  C   UNK N   1      30.439  17.115   5.087  0.00  0.00     0.056 A 
HETATM    2  C   UNK N   1      31.334  17.318   6.206  0.00  0.00    -0.028 A 
HETATM    3  C   UNK N   1      32.687  17.354   5.856  0.00  0.00    -0.008 A 
HETATM    4  S   UNK N   1      32.791  17.137   4.230  0.00  0.00    -0.076 SA
HETATM    5  C   UNK N   1      31.181  16.996   3.875  0.00  0.00     0.083 A 
HETATM    6  C   UNK N   1      33.829  17.538   6.808  0.00  0.00     0.047 C 
HETATM    7  C   UNK N   1      33.337  17.869   8.223  0.00  0.00     0.005 C 
HETATM    8  C   UNK N   1      32.069  17.097   8.587  0.00  0.00     0.005 C 
HETATM    9  C   UNK N   1      30.921  17.473   7.644  0.00  0.00     0.041 C 
ENDROOT
BRANCH   1  10
HETATM   10  C   UNK N   1      28.931  17.077   5.287  0.00  0.00     0.195 C 
HETATM   11  O   UNK N   1      28.495  16.227   6.053  0.00  0.00    -0.287 OA
BRANCH  10  12
HETATM   12  C   UNK N   1      27.911  17.983   4.667  0.00  0.00     0.015 A 
HETATM   13  C   UNK N   1      28.033  19.374   4.641  0.00  0.00     0.017 A 
HETATM   14  C   UNK N   1      27.044  20.178   4.070  0.00  0.00     0.025 A 
HETATM   15  C   UNK N   1      25.911  19.593   3.505  0.00  0.00     0.034 A 
HETATM   16  C   UNK N   1      25.779  18.205   3.496  0.00  0.00     0.025 A 
HETATM   17 Cl   UNK N   1      24.657  20.602   2.820  0.00  0.00    -0.084 Cl
HETATM   18  C   UNK N   1      26.774  17.406   4.068  0.00  0.00     0.017 A 
ENDBRANCH  10  12
ENDBRANCH   1  10
BRANCH   5  19
HETATM   19  N   UNK N   1      30.715  16.829   2.561  0.00  0.00    -0.393 N 
HETATM   20  H   UNK N   1      29.749  16.750   2.388  0.00  0.00     0.156 HD
HETATM   21  H   UNK N   1      31.355  16.791   1.814  0.00  0.00     0.156 HD
ENDBRANCH   5  19
TORSDOF 3
ENDMDL
MODEL 6
REMARK VINA RESULT:      -6.2     11.684     13.816
REMARK  3 active torsions:
REMARK  status: ('A' for Active; 'I' for Inactive)
REMARK    1  A    between atoms: C_6  and  C_7 
REMARK    2  A    between atoms: C_7  and  C_9 
REMARK    3  A    between atoms: C_13  and  N_14 
ROOT
HETATM    1  C   UNK N   1      27.052  25.197  -4.821  0.00  0.00     0.056 A 
HETATM    2  C   UNK N   1      27.602  26.527  -4.975  0.00  0.00    -0.028 A 
HETATM    3  C   UNK N   1      27.079  27.240  -6.057  0.00  0.00    -0.008 A 
HETATM    4  S   UNK N   1      25.983  26.275  -6.811  0.00  0.00    -0.076 SA
HETATM    5  C   UNK N   1      26.091  24.938  -5.841  0.00  0.00     0.083 A 
HETATM    6  C   UNK N   1      27.472  28.628  -6.460  0.00  0.00     0.047 C 
HETATM    7  C   UNK N   1      28.406  29.272  -5.426  0.00  0.00     0.005 C 
HETATM    8  C   UNK N   1      29.396  28.266  -4.839  0.00  0.00     0.005 C 
HETATM    9  C   UNK N   1      28.652  27.151  -4.096  0.00  0.00     0.041 C 
ENDROOT
BRANCH   1  10
HETATM   10  C   UNK N   1      27.493  24.296  -3.677  0.00  0.00     0.195 C 
HETATM   11  O   UNK N   1      26.701  24.137  -2.758  0.00  0.00    -0.287 OA
BRANCH  10  12
HETATM   12  C   UNK N   1      28.791  23.554  -3.557  0.00  0.00     0.015 A 
HETATM   13  C   UNK N   1      29.418  23.299  -2.336  0.00  0.00     0.017 A 
HETATM   14  C   UNK N   1      30.640  22.622  -2.276  0.00  0.00     0.025 A 
HETATM   15  C   UNK N   1      31.249  22.181  -3.450  0.00  0.00     0.034 A 
HETATM   16  C   UNK N   1      30.628  22.402  -4.679  0.00  0.00     0.025 A 
HETATM   17 Cl   UNK N   1      32.794  21.363  -3.378  0.00  0.00    -0.084 Cl
HETATM   18  C   UNK N   1      29.406  23.079  -4.731  0.00  0.00     0.017 A 
ENDBRANCH  10  12
ENDBRANCH   1  10
BRANCH   5  19
HETATM   19  N   UNK N   1      25.297  23.798  -6.044  0.00  0.00    -0.393 N 
HETATM   20  H   UNK N   1      25.038  23.236  -5.279  0.00  0.00     0.156 HD
HETATM   21  H   UNK N   1      25.000  23.561  -6.953  0.00  0.00     0.156 HD
ENDBRANCH   5  19
TORSDOF 3
ENDMDL
MODEL 7
REMARK VINA RESULT:      -6.1     11.894     13.609
REMARK  3 active torsions:
REMARK  status: ('A' for Active; 'I' for Inactive)
REMARK    1  A    between atoms: C_6  and  C_7 
REMARK    2  A    between atoms: C_7  and  C_9 
REMARK    3  A    between atoms: C_13  and  N_14 
ROOT
HETATM    1  C   UNK N   1      27.205  23.992  -5.297  0.00  0.00     0.056 A 
HETATM    2  C   UNK N   1      28.463  23.326  -5.035  0.00  0.00    -0.028 A 
HETATM    3  C   UNK N   1      28.874  22.461  -6.052  0.00  0.00    -0.008 A 
HETATM    4  S   UNK N   1      27.733  22.498  -7.234  0.00  0.00    -0.076 SA
HETATM    5  C   UNK N   1      26.683  23.585  -6.559  0.00  0.00     0.083 A 
HETATM    6  C   UNK N   1      30.125  21.635  -6.042  0.00  0.00     0.047 C 
HETATM    7  C   UNK N   1      31.021  21.983  -4.847  0.00  0.00     0.005 C 
HETATM    8  C   UNK N   1      30.210  22.275  -3.584  0.00  0.00     0.005 C 
HETATM    9  C   UNK N   1      29.304  23.492  -3.797  0.00  0.00     0.041 C 
ENDROOT
BRANCH   1  10
HETATM   10  C   UNK N   1      26.625  24.988  -4.304  0.00  0.00     0.195 C 
HETATM   11  O   UNK N   1      26.079  24.528  -3.310  0.00  0.00    -0.287 OA
BRANCH  10  12
HETATM   12  C   UNK N   1      26.667  26.485  -4.392  0.00  0.00     0.015 A 
HETATM   13  C   UNK N   1      27.169  27.175  -5.497  0.00  0.00     0.017 A 
HETATM   14  C   UNK N   1      27.207  28.572  -5.523  0.00  0.00     0.025 A 
HETATM   15  C   UNK N   1      26.731  29.302  -4.435  0.00  0.00     0.034 A 
HETATM   16  C   UNK N   1      26.201  28.634  -3.330  0.00  0.00     0.025 A 
HETATM   17 Cl   UNK N   1      26.810  31.049  -4.454  0.00  0.00    -0.084 Cl
HETATM   18  C   UNK N   1      26.165  27.237  -3.312  0.00  0.00     0.017 A 
ENDBRANCH  10  12
ENDBRANCH   1  10
BRANCH   5  19
HETATM   19  N   UNK N   1      25.516  24.006  -7.216  0.00  0.00    -0.393 N 
HETATM   20  H   UNK N   1      24.633  23.756  -6.859  0.00  0.00     0.156 HD
HETATM   21  H   UNK N   1      25.580  24.551  -8.033  0.00  0.00     0.156 HD
ENDBRANCH   5  19
TORSDOF 3
ENDMDL
MODEL 8
REMARK VINA RESULT:      -6.1     13.894     16.141
REMARK  3 active torsions:
REMARK  status: ('A' for Active; 'I' for Inactive)
REMARK    1  A    between atoms: C_6  and  C_7 
REMARK    2  A    between atoms: C_7  and  C_9 
REMARK    3  A    between atoms: C_13  and  N_14 
ROOT
HETATM    1  C   UNK N   1      35.220  11.186  18.506  0.00  0.00     0.056 A 
HETATM    2  C   UNK N   1      35.016  11.259  17.075  0.00  0.00    -0.028 A 
HETATM    3  C   UNK N   1      35.000  12.560  16.565  0.00  0.00    -0.008 A 
HETATM    4  S   UNK N   1      35.221  13.595  17.823  0.00  0.00    -0.076 SA
HETATM    5  C   UNK N   1      35.354  12.495  19.053  0.00  0.00     0.083 A 
HETATM    6  C   UNK N   1      34.796  12.932  15.128  0.00  0.00     0.047 C 
HETATM    7  C   UNK N   1      34.783  11.694  14.222  0.00  0.00     0.005 C 
HETATM    8  C   UNK N   1      34.081  10.506  14.880  0.00  0.00     0.005 C 
HETATM    9  C   UNK N   1      34.818  10.085  16.155  0.00  0.00     0.041 C 
ENDROOT
BRANCH   1  10
HETATM   10  C   UNK N   1      35.290   9.844  19.219  0.00  0.00     0.195 C 
HETATM   11  O   UNK N   1      36.404   9.420  19.497  0.00  0.00    -0.287 OA
BRANCH  10  12
HETATM   12  C   UNK N   1      34.138   8.984  19.646  0.00  0.00     0.015 A 
HETATM   13  C   UNK N   1      33.186   9.385  20.585  0.00  0.00     0.017 A 
HETATM   14  C   UNK N   1      32.142   8.538  20.967  0.00  0.00     0.025 A 
HETATM   15  C   UNK N   1      32.033   7.268  20.401  0.00  0.00     0.034 A 
HETATM   16  C   UNK N   1      32.958   6.855  19.442  0.00  0.00     0.025 A 
HETATM   17 Cl   UNK N   1      30.746   6.196  20.904  0.00  0.00    -0.084 Cl
HETATM   18  C   UNK N   1      33.999   7.709  19.064  0.00  0.00     0.017 A 
ENDBRANCH  10  12
ENDBRANCH   1  10
BRANCH   5  19
HETATM   19  N   UNK N   1      35.600  12.882  20.381  0.00  0.00    -0.393 N 
HETATM   20  H   UNK N   1      34.939  12.681  21.082  0.00  0.00     0.156 HD
HETATM   21  H   UNK N   1      36.433  13.354  20.610  0.00  0.00     0.156 HD
ENDBRANCH   5  19
TORSDOF 3
ENDMDL
MODEL 9
REMARK VINA RESULT:      -5.8      8.081      9.878
REMARK  3 active torsions:
REMARK  status: ('A' for Active; 'I' for Inactive)
REMARK    1  A    between atoms: C_6  and  C_7 
REMARK    2  A    between atoms: C_7  and  C_9 
REMARK    3  A    between atoms: C_13  and  N_14 
ROOT
HETATM    1  C   UNK N   1      21.304  15.146   7.228  0.00  0.00     0.056 A 
HETATM    2  C   UNK N   1      22.417  15.521   6.383  0.00  0.00    -0.028 A 
HETATM    3  C   UNK N   1      22.399  16.857   5.973  0.00  0.00    -0.008 A 
HETATM    4  S   UNK N   1      21.060  17.561   6.617  0.00  0.00    -0.076 SA
HETATM    5  C   UNK N   1      20.442  16.262   7.435  0.00  0.00     0.083 A 
HETATM    6  C   UNK N   1      23.415  17.512   5.088  0.00  0.00     0.047 C 
HETATM    7  C   UNK N   1      24.606  16.585   4.814  0.00  0.00     0.005 C 
HETATM    8  C   UNK N   1      24.175  15.128   4.646  0.00  0.00     0.005 C 
HETATM    9  C   UNK N   1      23.525  14.608   5.932  0.00  0.00     0.041 C 
ENDROOT
BRANCH   1  10
HETATM   10  C   UNK N   1      21.184  13.735   7.783  0.00  0.00     0.195 C 
HETATM   11  O   UNK N   1      20.608  12.911   7.085  0.00  0.00    -0.287 OA
BRANCH  10  12
HETATM   12  C   UNK N   1      21.716  13.226   9.090  0.00  0.00     0.015 A 
HETATM   13  C   UNK N   1      23.074  13.020   9.338  0.00  0.00     0.017 A 
HETATM   14  C   UNK N   1      23.520  12.523  10.565  0.00  0.00     0.025 A 
HETATM   15  C   UNK N   1      22.602  12.231  11.573  0.00  0.00     0.034 A 
HETATM   16  C   UNK N   1      21.242  12.453  11.357  0.00  0.00     0.025 A 
HETATM   17 Cl   UNK N   1      23.157  11.578  13.097  0.00  0.00    -0.084 Cl
HETATM   18  C   UNK N   1      20.803  12.952  10.127  0.00  0.00     0.017 A 
ENDBRANCH  10  12
ENDBRANCH   1  10
BRANCH   5  19
HETATM   19  N   UNK N   1      19.276  16.352   8.212  0.00  0.00    -0.393 N 
HETATM   20  H   UNK N   1      18.888  15.541   8.613  0.00  0.00     0.156 HD
HETATM   21  H   UNK N   1      18.847  17.226   8.356  0.00  0.00     0.156 HD
ENDBRANCH   5  19
TORSDOF 3
ENDMDL
