MODEL 1
REMARK VINA RESULT:      -7.7      0.000      0.000
REMARK  21 active torsions:
REMARK  status: ('A' for Active; 'I' for Inactive)
REMARK    1  A    between atoms: C_2  and  C_3 
REMARK    2  A    between atoms: C_5  and  C_3 
REMARK    3  A    between atoms: C_9  and  C_69 
REMARK    4  A    between atoms: C_13  and  C_65 
REMARK    5  A    between atoms: C_17  and  C_38 
REMARK    6  A    between atoms: C_26  and  C_30 
REMARK    7  A    between atoms: C_30  and  C_31 
REMARK    8  A    between atoms: C_34  and  O_37 
REMARK       I    between atoms: C_38  and  N_40 
REMARK    9  A    between atoms: N_40  and  C_41 
REMARK   10  A    between atoms: N_40  and  C_49 
REMARK   11  A    between atoms: C_41  and  C_42 
REMARK   12  A    between atoms: C_49  and  C_50 
REMARK       I    between atoms: C_50  and  N_52 
REMARK   13  A    between atoms: C_53  and  N_52 
REMARK   14  A    between atoms: C_53  and  C_54 
REMARK   15  A    between atoms: C_53  and  C_58 
REMARK   16  A    between atoms: C_54  and  C_55 
REMARK       I    between atoms: C_58  and  N_60 
REMARK   17  A    between atoms: N_60  and  C_61 
REMARK   18  A    between atoms: C_61  and  C_62 
REMARK       I    between atoms: C_62  and  N_64 
REMARK   19  A    between atoms: C_65  and  C_66 
REMARK       I    between atoms: C_66  and  N_68 
REMARK   20  A    between atoms: C_69  and  C_70 
REMARK   21  A    between atoms: C_70  and  C_71 
REMARK       I    between atoms: C_71  and  N_73 
ROOT
HETATM    1  C   UNK N   1      31.855  15.574   4.177  0.00  0.00     0.180 C 
HETATM    2  C   UNK N   1      31.595  17.071   3.987  0.00  0.00     0.241 C 
HETATM    3  O   UNK N   1      32.502  17.787   3.594  0.00  0.00    -0.271 OA
HETATM    4  N   UNK N   1      30.395  17.660   4.223  0.00  0.00    -0.346 N 
HETATM    5  C   UNK N   1      29.214  17.096   4.830  0.00  0.00     0.177 C 
HETATM    6  C   UNK N   1      28.534  15.955   4.154  0.00  0.00     0.241 C 
HETATM    7  O   UNK N   1      28.449  15.926   2.936  0.00  0.00    -0.271 OA
HETATM    8  N   UNK N   1      27.883  15.065   4.942  0.00  0.00    -0.346 N 
HETATM    9  C   UNK N   1      26.817  14.137   4.624  0.00  0.00     0.185 C 
HETATM   10  C   UNK N   1      26.085  14.379   3.297  0.00  0.00     0.241 C 
HETATM   11  O   UNK N   1      26.044  15.498   2.817  0.00  0.00    -0.271 OA
HETATM   12  N   UNK N   1      25.413  13.387   2.651  0.00  0.00    -0.345 N 
HETATM   13  C   UNK N   1      24.843  12.236   3.313  0.00  0.00     0.186 C 
HETATM   14  C   UNK N   1      24.483  11.177   2.274  0.00  0.00     0.108 C 
HETATM   15  S   UNK N   1      23.858   9.611   2.981  0.00  0.00    -0.167 SA
HETATM   16  C   UNK N   1      25.313   9.165   3.999  0.00  0.00     0.074 C 
HETATM   17  C   UNK N   1      26.639   9.353   3.283  0.00  0.00     0.019 C 
HETATM   18  C   UNK N   1      27.355  10.509   3.964  0.00  0.00     0.103 C 
HETATM   19  C   UNK N   1      28.029  11.408   2.978  0.00  0.00     0.218 C 
HETATM   20  O   UNK N   1      27.441  11.762   1.969  0.00  0.00    -0.274 OA
HETATM   21  N   UNK N   1      29.286  11.847   3.219  0.00  0.00    -0.347 N 
HETATM   22  C   UNK N   1      29.953  12.787   2.339  0.00  0.00     0.180 C 
HETATM   23  C   UNK N   1      31.026  13.469   3.132  0.00  0.00     0.241 C 
HETATM   24  O   UNK N   1      31.926  12.804   3.628  0.00  0.00    -0.271 OA
HETATM   25  N   UNK N   1      30.979  14.816   3.302  0.00  0.00    -0.346 N 
HETATM   26  H   UNK N   1      30.321  18.601   3.939  0.00  0.00     0.163 HD
HETATM   27  H   UNK N   1      28.184  15.044   5.880  0.00  0.00     0.163 HD
HETATM   28  H   UNK N   1      25.309  13.457   1.674  0.00  0.00     0.163 HD
HETATM   29  H   UNK N   1      29.762  11.517   4.015  0.00  0.00     0.163 HD
HETATM   30  H   UNK N   1      30.301  15.316   2.793  0.00  0.00     0.163 HD
ENDROOT
BRANCH  13  31
HETATM   31  C   UNK N   1      23.690  12.856   4.050  0.00  0.00     0.244 C 
HETATM   32  O   UNK N   1      23.062  13.737   3.507  0.00  0.00    -0.271 OA
HETATM   33  N   UNK N   1      23.170  12.182   5.127  0.00  0.00    -0.337 N 
BRANCH  33  34
HETATM   34  C   UNK N   1      24.020  11.449   6.033  0.00  0.00     0.165 C 
BRANCH  34  35
HETATM   35  C   UNK N   1      23.651  11.815   7.459  0.00  0.00    -0.040 A 
HETATM   36  C   UNK N   1      23.712  13.154   7.895  0.00  0.00     0.012 A 
HETATM   37  C   UNK N   1      23.409  13.495   9.209  0.00  0.00     0.043 A 
HETATM   38  C   UNK N   1      23.036  12.503  10.111  0.00  0.00     0.116 A 
HETATM   39  C   UNK N   1      22.968  11.168   9.695  0.00  0.00     0.043 A 
HETATM   40  F   UNK N   1      22.739  12.839  11.390  0.00  0.00    -0.206 F 
HETATM   41  C   UNK N   1      23.277  10.823   8.371  0.00  0.00     0.012 A 
ENDBRANCH  34  35
ENDBRANCH  33  34
BRANCH  33  42
HETATM   42  C   UNK N   1      21.745  11.930   5.157  0.00  0.00     0.228 C 
BRANCH  42  43
HETATM   43  C   UNK N   1      21.028  12.891   5.987  0.00  0.00     0.236 C 
HETATM   44  O   UNK N   1      20.412  12.498   6.967  0.00  0.00    -0.272 OA
HETATM   45  N   UNK N   1      21.055  14.206   5.652  0.00  0.00    -0.346 N 
HETATM   46  H   UNK N   1      21.658  14.500   4.931  0.00  0.00     0.163 HD
BRANCH  45  47
HETATM   47  C   UNK N   1      20.231  15.192   6.319  0.00  0.00     0.177 C 
BRANCH  47  48
HETATM   48  C   UNK N   1      21.149  16.025   7.228  0.00  0.00     0.038 C 
BRANCH  48  49
HETATM   49  C   UNK N   1      20.700  16.286   8.653  0.00  0.00    -0.020 C 
HETATM   50  C   UNK N   1      20.070  15.022   9.197  0.00  0.00     0.009 C 
HETATM   51  C   UNK N   1      19.694  17.416   8.692  0.00  0.00     0.009 C 
ENDBRANCH  48  49
ENDBRANCH  47  48
BRANCH  47  52
HETATM   52  C   UNK N   1      19.242  15.861   5.349  0.00  0.00     0.240 C 
HETATM   53  O   UNK N   1      18.072  15.509   5.401  0.00  0.00    -0.271 OA
HETATM   54  N   UNK N   1      19.539  16.870   4.480  0.00  0.00    -0.351 N 
HETATM   55  H   UNK N   1      18.746  17.187   3.990  0.00  0.00     0.163 HD
BRANCH  54  56
HETATM   56  C   UNK N   1      20.746  17.590   4.101  0.00  0.00     0.225 C 
BRANCH  56  57
HETATM   57  C   UNK N   1      21.826  16.849   3.403  0.00  0.00     0.233 C 
HETATM   58  O   UNK N   1      22.996  17.061   3.672  0.00  0.00    -0.272 OA
HETATM   59  N   UNK N   1      21.505  15.976   2.426  0.00  0.00    -0.369 N 
HETATM   60  H   UNK N   1      21.150  15.080   2.628  0.00  0.00     0.159 HD
HETATM   61  H   UNK N   1      21.629  16.242   1.487  0.00  0.00     0.159 HD
ENDBRANCH  56  57
ENDBRANCH  54  56
ENDBRANCH  47  52
ENDBRANCH  45  47
ENDBRANCH  42  43
ENDBRANCH  33  42
ENDBRANCH  13  31
BRANCH   9  62
HETATM   62  C   UNK N   1      25.882  14.155   5.837  0.00  0.00     0.137 C 
BRANCH  62  63
HETATM   63  C   UNK N   1      25.735  15.479   6.555  0.00  0.00     0.217 C 
HETATM   64  O   UNK N   1      26.361  15.719   7.575  0.00  0.00    -0.274 OA
HETATM   65  N   UNK N   1      24.890  16.406   6.064  0.00  0.00    -0.370 N 
HETATM   66  H   UNK N   1      24.698  16.548   5.109  0.00  0.00     0.159 HD
HETATM   67  H   UNK N   1      24.430  16.988   6.710  0.00  0.00     0.159 HD
ENDBRANCH  62  63
ENDBRANCH   9  62
BRANCH   5  68
HETATM   68  C   UNK N   1      29.274  17.029   6.351  0.00  0.00     0.044 C 
BRANCH  68  69
HETATM   69  C   UNK N   1      28.730  18.315   6.960  0.00  0.00     0.105 C 
BRANCH  69  70
HETATM   70  C   UNK N   1      28.731  18.278   8.460  0.00  0.00     0.215 C 
HETATM   71  O   UNK N   1      29.782  18.183   9.076  0.00  0.00    -0.274 OA
HETATM   72  N   UNK N   1      27.564  18.312   9.130  0.00  0.00    -0.370 N 
HETATM   73  H   UNK N   1      27.225  19.053   9.683  0.00  0.00     0.159 HD
HETATM   74  H   UNK N   1      26.991  17.514   9.061  0.00  0.00     0.159 HD
ENDBRANCH  69  70
ENDBRANCH  68  69
ENDBRANCH   5  68
BRANCH  22  75
HETATM   75  C   UNK N   1      30.617  12.150   1.099  0.00  0.00     0.073 C 
BRANCH  75  76
HETATM   76  C   UNK N   1      30.384  10.706   0.746  0.00  0.00    -0.056 A 
HETATM   77  C   UNK N   1      31.143   9.692   1.343  0.00  0.00     0.010 A 
HETATM   78  C   UNK N   1      31.027   8.370   0.919  0.00  0.00     0.037 A 
HETATM   79  C   UNK N   1      30.187   8.055  -0.148  0.00  0.00     0.065 A 
HETATM   80  C   UNK N   1      29.449   9.063  -0.777  0.00  0.00     0.037 A 
HETATM   81  C   UNK N   1      29.548  10.388  -0.332  0.00  0.00     0.010 A 
BRANCH  79  82
HETATM   82  O   UNK N   1      30.100   6.786  -0.575  0.00  0.00    -0.361 OA
HETATM   83  H   UNK N   1      30.208   6.569  -1.479  0.00  0.00     0.217 HD
ENDBRANCH  79  82
ENDBRANCH  75  76
ENDBRANCH  22  75
BRANCH   1  84
HETATM   84  C   UNK N   1      33.339  15.176   3.961  0.00  0.00     0.013 C 
HETATM   85  C   UNK N   1      34.231  15.742   5.048  0.00  0.00     0.012 C 
BRANCH  84  86
HETATM   86  C   UNK N   1      33.889  15.532   2.582  0.00  0.00     0.002 C 
HETATM   87  C   UNK N   1      34.580  14.346   1.949  0.00  0.00     0.005 C 
ENDBRANCH  84  86
ENDBRANCH   1  84
TORSDOF 21
ENDMDL
MODEL 2
REMARK VINA RESULT:      -7.7      2.245      3.353
REMARK  21 active torsions:
REMARK  status: ('A' for Active; 'I' for Inactive)
REMARK    1  A    between atoms: C_2  and  C_3 
REMARK    2  A    between atoms: C_5  and  C_3 
REMARK    3  A    between atoms: C_9  and  C_69 
REMARK    4  A    between atoms: C_13  and  C_65 
REMARK    5  A    between atoms: C_17  and  C_38 
REMARK    6  A    between atoms: C_26  and  C_30 
REMARK    7  A    between atoms: C_30  and  C_31 
REMARK    8  A    between atoms: C_34  and  O_37 
REMARK       I    between atoms: C_38  and  N_40 
REMARK    9  A    between atoms: N_40  and  C_41 
REMARK   10  A    between atoms: N_40  and  C_49 
REMARK   11  A    between atoms: C_41  and  C_42 
REMARK   12  A    between atoms: C_49  and  C_50 
REMARK       I    between atoms: C_50  and  N_52 
REMARK   13  A    between atoms: C_53  and  N_52 
REMARK   14  A    between atoms: C_53  and  C_54 
REMARK   15  A    between atoms: C_53  and  C_58 
REMARK   16  A    between atoms: C_54  and  C_55 
REMARK       I    between atoms: C_58  and  N_60 
REMARK   17  A    between atoms: N_60  and  C_61 
REMARK   18  A    between atoms: C_61  and  C_62 
REMARK       I    between atoms: C_62  and  N_64 
REMARK   19  A    between atoms: C_65  and  C_66 
REMARK       I    between atoms: C_66  and  N_68 
REMARK   20  A    between atoms: C_69  and  C_70 
REMARK   21  A    between atoms: C_70  and  C_71 
REMARK       I    between atoms: C_71  and  N_73 
ROOT
HETATM    1  C   UNK N   1      33.133  15.304   6.375  0.00  0.00     0.180 C 
HETATM    2  C   UNK N   1      33.152  16.808   6.087  0.00  0.00     0.241 C 
HETATM    3  O   UNK N   1      34.223  17.390   6.033  0.00  0.00    -0.271 OA
HETATM    4  N   UNK N   1      32.033  17.546   5.873  0.00  0.00    -0.346 N 
HETATM    5  C   UNK N   1      30.651  17.160   6.027  0.00  0.00     0.177 C 
HETATM    6  C   UNK N   1      30.110  16.069   5.168  0.00  0.00     0.241 C 
HETATM    7  O   UNK N   1      30.455  15.979   4.000  0.00  0.00    -0.271 OA
HETATM    8  N   UNK N   1      29.114  15.307   5.683  0.00  0.00    -0.346 N 
HETATM    9  C   UNK N   1      28.117  14.494   5.019  0.00  0.00     0.185 C 
HETATM   10  C   UNK N   1      27.936  14.742   3.515  0.00  0.00     0.241 C 
HETATM   11  O   UNK N   1      28.212  15.829   3.039  0.00  0.00    -0.271 OA
HETATM   12  N   UNK N   1      27.411  13.800   2.684  0.00  0.00    -0.345 N 
HETATM   13  C   UNK N   1      26.501  12.764   3.115  0.00  0.00     0.186 C 
HETATM   14  C   UNK N   1      26.395  11.696   2.029  0.00  0.00     0.108 C 
HETATM   15  S   UNK N   1      25.364  10.257   2.487  0.00  0.00    -0.167 SA
HETATM   16  C   UNK N   1      26.298   9.704   3.961  0.00  0.00     0.074 C 
HETATM   17  C   UNK N   1      27.804   9.694   3.761  0.00  0.00     0.019 C 
HETATM   18  C   UNK N   1      28.378  10.795   4.638  0.00  0.00     0.103 C 
HETATM   19  C   UNK N   1      29.466  11.551   3.946  0.00  0.00     0.218 C 
HETATM   20  O   UNK N   1      29.321  11.913   2.789  0.00  0.00    -0.274 OA
HETATM   21  N   UNK N   1      30.604  11.854   4.612  0.00  0.00    -0.347 N 
HETATM   22  C   UNK N   1      31.654  12.657   4.016  0.00  0.00     0.180 C 
HETATM   23  C   UNK N   1      32.458  13.254   5.130  0.00  0.00     0.241 C 
HETATM   24  O   UNK N   1      33.032  12.518   5.922  0.00  0.00    -0.271 OA
HETATM   25  N   UNK N   1      32.529  14.604   5.256  0.00  0.00    -0.346 N 
HETATM   26  H   UNK N   1      32.185  18.471   5.570  0.00  0.00     0.163 HD
HETATM   27  H   UNK N   1      29.061  15.305   6.667  0.00  0.00     0.163 HD
HETATM   28  H   UNK N   1      27.668  13.826   1.734  0.00  0.00     0.163 HD
HETATM   29  H   UNK N   1      30.723  11.517   5.530  0.00  0.00     0.163 HD
HETATM   30  H   UNK N   1      32.145  15.150   4.532  0.00  0.00     0.163 HD
ENDROOT
BRANCH  13  31
HETATM   31  C   UNK N   1      25.253  13.556   3.386  0.00  0.00     0.244 C 
HETATM   32  O   UNK N   1      24.989  14.486   2.658  0.00  0.00    -0.271 OA
HETATM   33  N   UNK N   1      24.295  12.999   4.195  0.00  0.00    -0.337 N 
BRANCH  33  34
HETATM   34  C   UNK N   1      24.652  12.202   5.343  0.00  0.00     0.165 C 
BRANCH  34  35
HETATM   35  C   UNK N   1      23.654  12.463   6.455  0.00  0.00    -0.040 A 
HETATM   36  C   UNK N   1      22.422  11.779   6.488  0.00  0.00     0.012 A 
HETATM   37  C   UNK N   1      21.485  12.036   7.485  0.00  0.00     0.043 A 
HETATM   38  C   UNK N   1      21.765  12.980   8.467  0.00  0.00     0.116 A 
HETATM   39  C   UNK N   1      22.984  13.668   8.451  0.00  0.00     0.043 A 
HETATM   40  F   UNK N   1      20.852  13.227   9.438  0.00  0.00    -0.206 F 
HETATM   41  C   UNK N   1      23.928  13.412   7.445  0.00  0.00     0.012 A 
ENDBRANCH  34  35
ENDBRANCH  33  34
BRANCH  33  42
HETATM   42  C   UNK N   1      22.935  12.931   3.702  0.00  0.00     0.228 C 
BRANCH  42  43
HETATM   43  C   UNK N   1      22.212  14.183   3.891  0.00  0.00     0.236 C 
HETATM   44  O   UNK N   1      21.177  14.379   3.272  0.00  0.00    -0.272 OA
HETATM   45  N   UNK N   1      22.708  15.111   4.749  0.00  0.00    -0.346 N 
HETATM   46  H   UNK N   1      23.475  14.871   5.317  0.00  0.00     0.163 HD
BRANCH  45  47
HETATM   47  C   UNK N   1      22.148  16.442   4.859  0.00  0.00     0.177 C 
BRANCH  47  48
HETATM   48  C   UNK N   1      21.759  16.661   6.329  0.00  0.00     0.038 C 
BRANCH  48  49
HETATM   49  C   UNK N   1      20.572  15.892   6.878  0.00  0.00    -0.020 C 
HETATM   50  C   UNK N   1      19.415  16.043   5.915  0.00  0.00     0.009 C 
HETATM   51  C   UNK N   1      20.178  16.428   8.238  0.00  0.00     0.009 C 
ENDBRANCH  48  49
ENDBRANCH  47  48
BRANCH  47  52
HETATM   52  C   UNK N   1      22.980  17.479   4.086  0.00  0.00     0.240 C 
HETATM   53  O   UNK N   1      24.192  17.318   4.050  0.00  0.00    -0.271 OA
HETATM   54  N   UNK N   1      22.481  18.529   3.372  0.00  0.00    -0.351 N 
HETATM   55  H   UNK N   1      23.187  19.038   2.912  0.00  0.00     0.163 HD
BRANCH  54  56
HETATM   56  C   UNK N   1      21.156  19.079   3.128  0.00  0.00     0.225 C 
BRANCH  56  57
HETATM   57  C   UNK N   1      21.009  20.159   2.120  0.00  0.00     0.233 C 
HETATM   58  O   UNK N   1      21.016  19.898   0.929  0.00  0.00    -0.272 OA
HETATM   59  N   UNK N   1      20.921  21.440   2.530  0.00  0.00    -0.369 N 
HETATM   60  H   UNK N   1      20.090  21.809   2.907  0.00  0.00     0.159 HD
HETATM   61  H   UNK N   1      21.711  22.023   2.450  0.00  0.00     0.159 HD
ENDBRANCH  56  57
ENDBRANCH  54  56
ENDBRANCH  47  52
ENDBRANCH  45  47
ENDBRANCH  42  43
ENDBRANCH  33  42
ENDBRANCH  13  31
BRANCH   9  62
HETATM   62  C   UNK N   1      26.827  14.690   5.820  0.00  0.00     0.137 C 
BRANCH  62  63
HETATM   63  C   UNK N   1      26.707  15.982   6.598  0.00  0.00     0.217 C 
HETATM   64  O   UNK N   1      26.861  16.009   7.808  0.00  0.00    -0.274 OA
HETATM   65  N   UNK N   1      26.416  17.123   5.943  0.00  0.00    -0.370 N 
HETATM   66  H   UNK N   1      26.701  17.338   5.026  0.00  0.00     0.159 HD
HETATM   67  H   UNK N   1      25.875  17.794   6.419  0.00  0.00     0.159 HD
ENDBRANCH  62  63
ENDBRANCH   9  62
BRANCH   5  68
HETATM   68  C   UNK N   1      30.164  17.174   7.471  0.00  0.00     0.044 C 
BRANCH  68  69
HETATM   69  C   UNK N   1      29.464  18.491   7.781  0.00  0.00     0.105 C 
BRANCH  69  70
HETATM   70  C   UNK N   1      28.873  18.508   9.160  0.00  0.00     0.215 C 
HETATM   71  O   UNK N   1      29.584  18.684  10.137  0.00  0.00    -0.274 OA
HETATM   72  N   UNK N   1      27.554  18.292   9.324  0.00  0.00    -0.370 N 
HETATM   73  H   UNK N   1      26.881  18.951   9.608  0.00  0.00     0.159 HD
HETATM   74  H   UNK N   1      27.230  17.380   9.142  0.00  0.00     0.159 HD
ENDBRANCH  69  70
ENDBRANCH  68  69
ENDBRANCH   5  68
BRANCH  22  75
HETATM   75  C   UNK N   1      32.622  11.877   3.100  0.00  0.00     0.073 C 
BRANCH  75  76
HETATM   76  C   UNK N   1      33.973  12.435   2.742  0.00  0.00    -0.056 A 
HETATM   77  C   UNK N   1      34.090  13.520   1.864  0.00  0.00     0.010 A 
HETATM   78  C   UNK N   1      35.340  13.949   1.423  0.00  0.00     0.037 A 
HETATM   79  C   UNK N   1      36.487  13.261   1.812  0.00  0.00     0.065 A 
HETATM   80  C   UNK N   1      36.383  12.153   2.661  0.00  0.00     0.037 A 
HETATM   81  C   UNK N   1      35.127  11.739   3.125  0.00  0.00     0.010 A 
BRANCH  79  82
HETATM   82  O   UNK N   1      37.687  13.657   1.361  0.00  0.00    -0.361 OA
HETATM   83  H   UNK N   1      37.764  14.306   0.690  0.00  0.00     0.217 HD
ENDBRANCH  79  82
ENDBRANCH  75  76
ENDBRANCH  22  75
BRANCH   1  84
HETATM   84  C   UNK N   1      34.532  14.725   6.706  0.00  0.00     0.013 C 
HETATM   85  C   UNK N   1      35.055  15.251   8.028  0.00  0.00     0.012 C 
BRANCH  84  86
HETATM   86  C   UNK N   1      35.571  14.926   5.605  0.00  0.00     0.002 C 
HETATM   87  C   UNK N   1      36.816  14.113   5.876  0.00  0.00     0.005 C 
ENDBRANCH  84  86
ENDBRANCH   1  84
TORSDOF 21
ENDMDL
MODEL 3
REMARK VINA RESULT:      -7.6      2.783      3.871
REMARK  21 active torsions:
REMARK  status: ('A' for Active; 'I' for Inactive)
REMARK    1  A    between atoms: C_2  and  C_3 
REMARK    2  A    between atoms: C_5  and  C_3 
REMARK    3  A    between atoms: C_9  and  C_69 
REMARK    4  A    between atoms: C_13  and  C_65 
REMARK    5  A    between atoms: C_17  and  C_38 
REMARK    6  A    between atoms: C_26  and  C_30 
REMARK    7  A    between atoms: C_30  and  C_31 
REMARK    8  A    between atoms: C_34  and  O_37 
REMARK       I    between atoms: C_38  and  N_40 
REMARK    9  A    between atoms: N_40  and  C_41 
REMARK   10  A    between atoms: N_40  and  C_49 
REMARK   11  A    between atoms: C_41  and  C_42 
REMARK   12  A    between atoms: C_49  and  C_50 
REMARK       I    between atoms: C_50  and  N_52 
REMARK   13  A    between atoms: C_53  and  N_52 
REMARK   14  A    between atoms: C_53  and  C_54 
REMARK   15  A    between atoms: C_53  and  C_58 
REMARK   16  A    between atoms: C_54  and  C_55 
REMARK       I    between atoms: C_58  and  N_60 
REMARK   17  A    between atoms: N_60  and  C_61 
REMARK   18  A    between atoms: C_61  and  C_62 
REMARK       I    between atoms: C_62  and  N_64 
REMARK   19  A    between atoms: C_65  and  C_66 
REMARK       I    between atoms: C_66  and  N_68 
REMARK   20  A    between atoms: C_69  and  C_70 
REMARK   21  A    between atoms: C_70  and  C_71 
REMARK       I    between atoms: C_71  and  N_73 
ROOT
HETATM    1  C   UNK N   1      31.567  14.847   3.658  0.00  0.00     0.180 C 
HETATM    2  C   UNK N   1      31.517  16.245   3.034  0.00  0.00     0.241 C 
HETATM    3  O   UNK N   1      32.537  16.726   2.569  0.00  0.00    -0.271 OA
HETATM    4  N   UNK N   1      30.385  16.991   2.955  0.00  0.00    -0.346 N 
HETATM    5  C   UNK N   1      29.094  16.742   3.549  0.00  0.00     0.177 C 
HETATM    6  C   UNK N   1      28.335  15.527   3.138  0.00  0.00     0.241 C 
HETATM    7  O   UNK N   1      28.353  15.158   1.974  0.00  0.00    -0.271 OA
HETATM    8  N   UNK N   1      27.512  14.967   4.058  0.00  0.00    -0.346 N 
HETATM    9  C   UNK N   1      26.368  14.096   3.884  0.00  0.00     0.185 C 
HETATM   10  C   UNK N   1      25.789  14.017   2.464  0.00  0.00     0.241 C 
HETATM   11  O   UNK N   1      25.932  14.950   1.694  0.00  0.00    -0.271 OA
HETATM   12  N   UNK N   1      25.055  12.951   2.041  0.00  0.00    -0.345 N 
HETATM   13  C   UNK N   1      24.289  12.100   2.922  0.00  0.00     0.186 C 
HETATM   14  C   UNK N   1      23.888  10.828   2.179  0.00  0.00     0.108 C 
HETATM   15  S   UNK N   1      23.012   9.599   3.210  0.00  0.00    -0.167 SA
HETATM   16  C   UNK N   1      24.306   9.325   4.477  0.00  0.00     0.074 C 
HETATM   17  C   UNK N   1      25.702   9.169   3.898  0.00  0.00     0.019 C 
HETATM   18  C   UNK N   1      26.497  10.396   4.316  0.00  0.00     0.103 C 
HETATM   19  C   UNK N   1      27.362  10.905   3.207  0.00  0.00     0.218 C 
HETATM   20  O   UNK N   1      26.912  11.010   2.077  0.00  0.00    -0.274 OA
HETATM   21  N   UNK N   1      28.638  11.270   3.465  0.00  0.00    -0.347 N 
HETATM   22  C   UNK N   1      29.493  11.849   2.446  0.00  0.00     0.180 C 
HETATM   23  C   UNK N   1      30.571  12.622   3.141  0.00  0.00     0.241 C 
HETATM   24  O   UNK N   1      31.334  12.043   3.905  0.00  0.00    -0.271 OA
HETATM   25  N   UNK N   1      30.681  13.959   2.928  0.00  0.00    -0.346 N 
HETATM   26  H   UNK N   1      30.455  17.813   2.417  0.00  0.00     0.163 HD
HETATM   27  H   UNK N   1      27.725  15.187   4.994  0.00  0.00     0.163 HD
HETATM   28  H   UNK N   1      25.046  12.748   1.077  0.00  0.00     0.163 HD
HETATM   29  H   UNK N   1      28.999  11.138   4.372  0.00  0.00     0.163 HD
HETATM   30  H   UNK N   1      30.118  14.355   2.224  0.00  0.00     0.163 HD
ENDROOT
BRANCH  13  31
HETATM   31  C   UNK N   1      23.165  13.015   3.318  0.00  0.00     0.244 C 
HETATM   32  O   UNK N   1      22.984  13.233   4.495  0.00  0.00    -0.271 OA
HETATM   33  N   UNK N   1      22.628  13.836   2.359  0.00  0.00    -0.337 N 
BRANCH  33  34
HETATM   34  C   UNK N   1      22.467  13.391   0.996  0.00  0.00     0.165 C 
BRANCH  34  35
HETATM   35  C   UNK N   1      21.016  13.013   0.769  0.00  0.00    -0.040 A 
HETATM   36  C   UNK N   1      20.626  11.659   0.724  0.00  0.00     0.012 A 
HETATM   37  C   UNK N   1      19.303  11.300   0.483  0.00  0.00     0.043 A 
HETATM   38  C   UNK N   1      18.345  12.290   0.286  0.00  0.00     0.116 A 
HETATM   39  C   UNK N   1      18.714  13.641   0.331  0.00  0.00     0.043 A 
HETATM   40  F   UNK N   1      17.057  11.939   0.054  0.00  0.00    -0.206 F 
HETATM   41  C   UNK N   1      20.048  14.002   0.569  0.00  0.00     0.012 A 
ENDBRANCH  34  35
ENDBRANCH  33  34
BRANCH  33  42
HETATM   42  C   UNK N   1      22.538  15.253   2.639  0.00  0.00     0.228 C 
BRANCH  42  43
HETATM   43  C   UNK N   1      21.649  15.544   3.757  0.00  0.00     0.236 C 
HETATM   44  O   UNK N   1      20.495  15.140   3.729  0.00  0.00    -0.272 OA
HETATM   45  N   UNK N   1      22.119  16.262   4.809  0.00  0.00    -0.346 N 
HETATM   46  H   UNK N   1      23.081  16.466   4.853  0.00  0.00     0.163 HD
BRANCH  45  47
HETATM   47  C   UNK N   1      21.255  16.739   5.869  0.00  0.00     0.177 C 
BRANCH  47  48
HETATM   48  C   UNK N   1      21.562  15.908   7.125  0.00  0.00     0.038 C 
BRANCH  48  49
HETATM   49  C   UNK N   1      20.496  14.955   7.632  0.00  0.00    -0.020 C 
HETATM   50  C   UNK N   1      20.574  14.907   9.142  0.00  0.00     0.009 C 
HETATM   51  C   UNK N   1      20.712  13.569   7.063  0.00  0.00     0.009 C 
ENDBRANCH  48  49
ENDBRANCH  47  48
BRANCH  47  52
HETATM   52  C   UNK N   1      21.203  18.275   5.917  0.00  0.00     0.240 C 
HETATM   53  O   UNK N   1      21.098  18.804   7.014  0.00  0.00    -0.271 OA
HETATM   54  N   UNK N   1      21.336  19.110   4.846  0.00  0.00    -0.351 N 
HETATM   55  H   UNK N   1      21.323  20.059   5.107  0.00  0.00     0.163 HD
BRANCH  54  56
HETATM   56  C   UNK N   1      21.488  18.935   3.409  0.00  0.00     0.225 C 
BRANCH  56  57
HETATM   57  C   UNK N   1      21.376  20.128   2.532  0.00  0.00     0.233 C 
HETATM   58  O   UNK N   1      22.064  21.113   2.737  0.00  0.00    -0.272 OA
HETATM   59  N   UNK N   1      20.465  20.134   1.537  0.00  0.00    -0.369 N 
HETATM   60  H   UNK N   1      20.613  19.646   0.695  0.00  0.00     0.159 HD
HETATM   61  H   UNK N   1      19.630  20.641   1.657  0.00  0.00     0.159 HD
ENDBRANCH  56  57
ENDBRANCH  54  56
ENDBRANCH  47  52
ENDBRANCH  45  47
ENDBRANCH  42  43
ENDBRANCH  33  42
ENDBRANCH  13  31
BRANCH   9  62
HETATM   62  C   UNK N   1      25.342  14.552   4.926  0.00  0.00     0.137 C 
BRANCH  62  63
HETATM   63  C   UNK N   1      25.514  15.952   5.472  0.00  0.00     0.217 C 
HETATM   64  O   UNK N   1      25.325  16.933   4.772  0.00  0.00    -0.274 OA
HETATM   65  N   UNK N   1      25.894  16.118   6.754  0.00  0.00    -0.370 N 
HETATM   66  H   UNK N   1      25.651  15.522   7.499  0.00  0.00     0.159 HD
HETATM   67  H   UNK N   1      26.459  16.897   6.963  0.00  0.00     0.159 HD
ENDBRANCH  62  63
ENDBRANCH   9  62
BRANCH   5  68
HETATM   68  C   UNK N   1      29.014  17.109   5.027  0.00  0.00     0.044 C 
BRANCH  68  69
HETATM   69  C   UNK N   1      28.743  18.599   5.188  0.00  0.00     0.105 C 
BRANCH  69  70
HETATM   70  C   UNK N   1      27.763  18.881   6.288  0.00  0.00     0.215 C 
HETATM   71  O   UNK N   1      27.989  18.512   7.430  0.00  0.00    -0.274 OA
HETATM   72  N   UNK N   1      26.608  19.513   6.007  0.00  0.00    -0.370 N 
HETATM   73  H   UNK N   1      26.357  20.426   6.277  0.00  0.00     0.159 HD
HETATM   74  H   UNK N   1      25.946  19.011   5.478  0.00  0.00     0.159 HD
ENDBRANCH  69  70
ENDBRANCH  68  69
ENDBRANCH   5  68
BRANCH  22  75
HETATM   75  C   UNK N   1      30.175  10.822   1.516  0.00  0.00     0.073 C 
BRANCH  75  76
HETATM   76  C   UNK N   1      30.599  11.196   0.122  0.00  0.00    -0.056 A 
HETATM   77  C   UNK N   1      29.860  10.772  -0.990  0.00  0.00     0.010 A 
HETATM   78  C   UNK N   1      30.323  10.998  -2.284  0.00  0.00     0.037 A 
HETATM   79  C   UNK N   1      31.562  11.603  -2.481  0.00  0.00     0.065 A 
HETATM   80  C   UNK N   1      32.328  12.001  -1.380  0.00  0.00     0.037 A 
HETATM   81  C   UNK N   1      31.849  11.796  -0.079  0.00  0.00     0.010 A 
BRANCH  79  82
HETATM   82  O   UNK N   1      32.021  11.792  -3.728  0.00  0.00    -0.361 OA
HETATM   83  H   UNK N   1      32.717  12.393  -3.903  0.00  0.00     0.217 HD
ENDBRANCH  79  82
ENDBRANCH  75  76
ENDBRANCH  22  75
BRANCH   1  84
HETATM   84  C   UNK N   1      33.001  14.262   3.737  0.00  0.00     0.013 C 
HETATM   85  C   UNK N   1      33.858  15.020   4.731  0.00  0.00     0.012 C 
BRANCH  84  86
HETATM   86  C   UNK N   1      33.713  14.161   2.389  0.00  0.00     0.002 C 
HETATM   87  C   UNK N   1      34.504  12.877   2.287  0.00  0.00     0.005 C 
ENDBRANCH  84  86
ENDBRANCH   1  84
TORSDOF 21
ENDMDL
MODEL 4
REMARK VINA RESULT:      -7.5      2.421      3.288
REMARK  21 active torsions:
REMARK  status: ('A' for Active; 'I' for Inactive)
REMARK    1  A    between atoms: C_2  and  C_3 
REMARK    2  A    between atoms: C_5  and  C_3 
REMARK    3  A    between atoms: C_9  and  C_69 
REMARK    4  A    between atoms: C_13  and  C_65 
REMARK    5  A    between atoms: C_17  and  C_38 
REMARK    6  A    between atoms: C_26  and  C_30 
REMARK    7  A    between atoms: C_30  and  C_31 
REMARK    8  A    between atoms: C_34  and  O_37 
REMARK       I    between atoms: C_38  and  N_40 
REMARK    9  A    between atoms: N_40  and  C_41 
REMARK   10  A    between atoms: N_40  and  C_49 
REMARK   11  A    between atoms: C_41  and  C_42 
REMARK   12  A    between atoms: C_49  and  C_50 
REMARK       I    between atoms: C_50  and  N_52 
REMARK   13  A    between atoms: C_53  and  N_52 
REMARK   14  A    between atoms: C_53  and  C_54 
REMARK   15  A    between atoms: C_53  and  C_58 
REMARK   16  A    between atoms: C_54  and  C_55 
REMARK       I    between atoms: C_58  and  N_60 
REMARK   17  A    between atoms: N_60  and  C_61 
REMARK   18  A    between atoms: C_61  and  C_62 
REMARK       I    between atoms: C_62  and  N_64 
REMARK   19  A    between atoms: C_65  and  C_66 
REMARK       I    between atoms: C_66  and  N_68 
REMARK   20  A    between atoms: C_69  and  C_70 
REMARK   21  A    between atoms: C_70  and  C_71 
REMARK       I    between atoms: C_71  and  N_73 
ROOT
HETATM    1  C   UNK N   1      33.062  15.065   6.999  0.00  0.00     0.180 C 
HETATM    2  C   UNK N   1      33.187  16.571   6.750  0.00  0.00     0.241 C 
HETATM    3  O   UNK N   1      34.280  17.103   6.851  0.00  0.00    -0.271 OA
HETATM    4  N   UNK N   1      32.139  17.364   6.407  0.00  0.00    -0.346 N 
HETATM    5  C   UNK N   1      30.734  17.040   6.367  0.00  0.00     0.177 C 
HETATM    6  C   UNK N   1      30.264  15.990   5.419  0.00  0.00     0.241 C 
HETATM    7  O   UNK N   1      30.758  15.904   4.306  0.00  0.00    -0.271 OA
HETATM    8  N   UNK N   1      29.176  15.267   5.781  0.00  0.00    -0.346 N 
HETATM    9  C   UNK N   1      28.242  14.513   4.972  0.00  0.00     0.185 C 
HETATM   10  C   UNK N   1      28.274  14.794   3.464  0.00  0.00     0.241 C 
HETATM   11  O   UNK N   1      28.658  15.875   3.053  0.00  0.00    -0.271 OA
HETATM   12  N   UNK N   1      27.824  13.891   2.550  0.00  0.00    -0.345 N 
HETATM   13  C   UNK N   1      26.819  12.892   2.832  0.00  0.00     0.186 C 
HETATM   14  C   UNK N   1      26.812  11.849   1.718  0.00  0.00     0.108 C 
HETATM   15  S   UNK N   1      25.667  10.451   2.003  0.00  0.00    -0.167 SA
HETATM   16  C   UNK N   1      26.371   9.831   3.575  0.00  0.00     0.074 C 
HETATM   17  C   UNK N   1      27.888   9.754   3.576  0.00  0.00     0.019 C 
HETATM   18  C   UNK N   1      28.387  10.813   4.546  0.00  0.00     0.103 C 
HETATM   19  C   UNK N   1      29.591  11.528   4.021  0.00  0.00     0.218 C 
HETATM   20  O   UNK N   1      29.617  11.916   2.863  0.00  0.00    -0.274 OA
HETATM   21  N   UNK N   1      30.641  11.766   4.839  0.00  0.00    -0.347 N 
HETATM   22  C   UNK N   1      31.796  12.530   4.405  0.00  0.00     0.180 C 
HETATM   23  C   UNK N   1      32.470  13.070   5.629  0.00  0.00     0.241 C 
HETATM   24  O   UNK N   1      32.900  12.295   6.474  0.00  0.00    -0.271 OA
HETATM   25  N   UNK N   1      32.584  14.413   5.794  0.00  0.00    -0.346 N 
HETATM   26  H   UNK N   1      32.371  18.286   6.147  0.00  0.00     0.163 HD
HETATM   27  H   UNK N   1      28.992  15.252   6.749  0.00  0.00     0.163 HD
HETATM   28  H   UNK N   1      28.205  13.921   1.643  0.00  0.00     0.163 HD
HETATM   29  H   UNK N   1      30.622  11.409   5.756  0.00  0.00     0.163 HD
HETATM   30  H   UNK N   1      32.323  14.988   5.038  0.00  0.00     0.163 HD
ENDROOT
BRANCH  13  31
HETATM   31  C   UNK N   1      25.582  13.737   2.954  0.00  0.00     0.244 C 
HETATM   32  O   UNK N   1      25.444  14.671   2.196  0.00  0.00    -0.271 OA
HETATM   33  N   UNK N   1      24.514  13.226   3.647  0.00  0.00    -0.337 N 
BRANCH  33  34
HETATM   34  C   UNK N   1      24.702  12.426   4.832  0.00  0.00     0.165 C 
BRANCH  34  35
HETATM   35  C   UNK N   1      23.583  12.723   5.812  0.00  0.00    -0.040 A 
HETATM   36  C   UNK N   1      23.690  13.795   6.720  0.00  0.00     0.012 A 
HETATM   37  C   UNK N   1      22.683  14.055   7.645  0.00  0.00     0.043 A 
HETATM   38  C   UNK N   1      21.549  13.250   7.676  0.00  0.00     0.116 A 
HETATM   39  C   UNK N   1      21.425  12.182   6.778  0.00  0.00     0.043 A 
HETATM   40  F   UNK N   1      20.570  13.506   8.576  0.00  0.00    -0.206 F 
HETATM   41  C   UNK N   1      22.441  11.916   5.849  0.00  0.00     0.012 A 
ENDBRANCH  34  35
ENDBRANCH  33  34
BRANCH  33  42
HETATM   42  C   UNK N   1      23.219  13.210   3.000  0.00  0.00     0.228 C 
BRANCH  42  43
HETATM   43  C   UNK N   1      22.627  14.540   2.908  0.00  0.00     0.236 C 
HETATM   44  O   UNK N   1      22.401  15.023   1.808  0.00  0.00    -0.272 OA
HETATM   45  N   UNK N   1      22.343  15.219   4.049  0.00  0.00    -0.346 N 
HETATM   46  H   UNK N   1      22.426  14.753   4.912  0.00  0.00     0.163 HD
BRANCH  45  47
HETATM   47  C   UNK N   1      21.920  16.604   4.040  0.00  0.00     0.177 C 
BRANCH  47  48
HETATM   48  C   UNK N   1      20.438  16.638   4.445  0.00  0.00     0.038 C 
BRANCH  48  49
HETATM   49  C   UNK N   1      19.959  15.652   5.492  0.00  0.00    -0.020 C 
HETATM   50  C   UNK N   1      18.707  14.976   4.978  0.00  0.00     0.009 C 
HETATM   51  C   UNK N   1      19.657  16.367   6.792  0.00  0.00     0.009 C 
ENDBRANCH  48  49
ENDBRANCH  47  48
BRANCH  47  52
HETATM   52  C   UNK N   1      22.956  17.522   4.710  0.00  0.00     0.240 C 
HETATM   53  O   UNK N   1      23.585  17.070   5.657  0.00  0.00    -0.271 OA
HETATM   54  N   UNK N   1      23.292  18.779   4.297  0.00  0.00    -0.351 N 
HETATM   55  H   UNK N   1      24.015  19.169   4.838  0.00  0.00     0.163 HD
BRANCH  54  56
HETATM   56  C   UNK N   1      22.835  19.682   3.251  0.00  0.00     0.225 C 
BRANCH  56  57
HETATM   57  C   UNK N   1      21.383  19.968   3.143  0.00  0.00     0.233 C 
HETATM   58  O   UNK N   1      20.711  20.147   4.145  0.00  0.00    -0.272 OA
HETATM   59  N   UNK N   1      20.798  19.975   1.928  0.00  0.00    -0.369 N 
HETATM   60  H   UNK N   1      20.898  20.734   1.309  0.00  0.00     0.159 HD
HETATM   61  H   UNK N   1      20.257  19.200   1.653  0.00  0.00     0.159 HD
ENDBRANCH  56  57
ENDBRANCH  54  56
ENDBRANCH  47  52
ENDBRANCH  45  47
ENDBRANCH  42  43
ENDBRANCH  33  42
ENDBRANCH  13  31
BRANCH   9  62
HETATM   62  C   UNK N   1      26.866  14.756   5.600  0.00  0.00     0.137 C 
BRANCH  62  63
HETATM   63  C   UNK N   1      26.717  16.011   6.430  0.00  0.00     0.217 C 
HETATM   64  O   UNK N   1      26.784  15.976   7.648  0.00  0.00    -0.274 OA
HETATM   65  N   UNK N   1      26.497  17.189   5.814  0.00  0.00    -0.370 N 
HETATM   66  H   UNK N   1      26.852  17.441   4.932  0.00  0.00     0.159 HD
HETATM   67  H   UNK N   1      25.938  17.849   6.284  0.00  0.00     0.159 HD
ENDBRANCH  62  63
ENDBRANCH   9  62
BRANCH   5  68
HETATM   68  C   UNK N   1      30.060  17.053   7.734  0.00  0.00     0.044 C 
BRANCH  68  69
HETATM   69  C   UNK N   1      29.846  18.486   8.205  0.00  0.00     0.105 C 
BRANCH  69  70
HETATM   70  C   UNK N   1      28.401  18.887   8.163  0.00  0.00     0.215 C 
HETATM   71  O   UNK N   1      27.980  19.592   7.258  0.00  0.00    -0.274 OA
HETATM   72  N   UNK N   1      27.571  18.500   9.149  0.00  0.00    -0.370 N 
HETATM   73  H   UNK N   1      26.837  17.848   9.078  0.00  0.00     0.159 HD
HETATM   74  H   UNK N   1      27.711  18.912  10.033  0.00  0.00     0.159 HD
ENDBRANCH  69  70
ENDBRANCH  68  69
ENDBRANCH   5  68
BRANCH  22  75
HETATM   75  C   UNK N   1      32.842  11.721   3.609  0.00  0.00     0.073 C 
BRANCH  75  76
HETATM   76  C   UNK N   1      33.288  12.160   2.241  0.00  0.00    -0.056 A 
HETATM   77  C   UNK N   1      32.710  11.612   1.089  0.00  0.00     0.010 A 
HETATM   78  C   UNK N   1      33.214  11.912  -0.175  0.00  0.00     0.037 A 
HETATM   79  C   UNK N   1      34.341  12.722  -0.298  0.00  0.00     0.065 A 
HETATM   80  C   UNK N   1      34.951  13.248   0.846  0.00  0.00     0.037 A 
HETATM   81  C   UNK N   1      34.427  12.966   2.115  0.00  0.00     0.010 A 
BRANCH  79  82
HETATM   82  O   UNK N   1      34.843  12.985  -1.514  0.00  0.00    -0.361 OA
HETATM   83  H   UNK N   1      34.742  13.828  -1.910  0.00  0.00     0.217 HD
ENDBRANCH  79  82
ENDBRANCH  75  76
ENDBRANCH  22  75
BRANCH   1  84
HETATM   84  C   UNK N   1      34.378  14.416   7.499  0.00  0.00     0.013 C 
HETATM   85  C   UNK N   1      34.673  14.790   8.938  0.00  0.00     0.012 C 
BRANCH  84  86
HETATM   86  C   UNK N   1      35.592  14.698   6.617  0.00  0.00     0.002 C 
HETATM   87  C   UNK N   1      36.200  13.414   6.100  0.00  0.00     0.005 C 
ENDBRANCH  84  86
ENDBRANCH   1  84
TORSDOF 21
ENDMDL
MODEL 5
REMARK VINA RESULT:      -7.4      2.048      2.653
REMARK  21 active torsions:
REMARK  status: ('A' for Active; 'I' for Inactive)
REMARK    1  A    between atoms: C_2  and  C_3 
REMARK    2  A    between atoms: C_5  and  C_3 
REMARK    3  A    between atoms: C_9  and  C_69 
REMARK    4  A    between atoms: C_13  and  C_65 
REMARK    5  A    between atoms: C_17  and  C_38 
REMARK    6  A    between atoms: C_26  and  C_30 
REMARK    7  A    between atoms: C_30  and  C_31 
REMARK    8  A    between atoms: C_34  and  O_37 
REMARK       I    between atoms: C_38  and  N_40 
REMARK    9  A    between atoms: N_40  and  C_41 
REMARK   10  A    between atoms: N_40  and  C_49 
REMARK   11  A    between atoms: C_41  and  C_42 
REMARK   12  A    between atoms: C_49  and  C_50 
REMARK       I    between atoms: C_50  and  N_52 
REMARK   13  A    between atoms: C_53  and  N_52 
REMARK   14  A    between atoms: C_53  and  C_54 
REMARK   15  A    between atoms: C_53  and  C_58 
REMARK   16  A    between atoms: C_54  and  C_55 
REMARK       I    between atoms: C_58  and  N_60 
REMARK   17  A    between atoms: N_60  and  C_61 
REMARK   18  A    between atoms: C_61  and  C_62 
REMARK       I    between atoms: C_62  and  N_64 
REMARK   19  A    between atoms: C_65  and  C_66 
REMARK       I    between atoms: C_66  and  N_68 
REMARK   20  A    between atoms: C_69  and  C_70 
REMARK   21  A    between atoms: C_70  and  C_71 
REMARK       I    between atoms: C_71  and  N_73 
ROOT
HETATM    1  C   UNK N   1      31.682  14.742   3.633  0.00  0.00     0.180 C 
HETATM    2  C   UNK N   1      31.687  16.156   3.044  0.00  0.00     0.241 C 
HETATM    3  O   UNK N   1      32.733  16.622   2.624  0.00  0.00    -0.271 OA
HETATM    4  N   UNK N   1      30.578  16.933   2.948  0.00  0.00    -0.346 N 
HETATM    5  C   UNK N   1      29.262  16.703   3.493  0.00  0.00     0.177 C 
HETATM    6  C   UNK N   1      28.487  15.518   3.027  0.00  0.00     0.241 C 
HETATM    7  O   UNK N   1      28.533  15.178   1.855  0.00  0.00    -0.271 OA
HETATM    8  N   UNK N   1      27.620  14.957   3.905  0.00  0.00    -0.346 N 
HETATM    9  C   UNK N   1      26.461  14.120   3.672  0.00  0.00     0.185 C 
HETATM   10  C   UNK N   1      25.928  14.091   2.232  0.00  0.00     0.241 C 
HETATM   11  O   UNK N   1      26.119  15.039   1.492  0.00  0.00    -0.271 OA
HETATM   12  N   UNK N   1      25.182  13.055   1.759  0.00  0.00    -0.345 N 
HETATM   13  C   UNK N   1      24.366  12.203   2.593  0.00  0.00     0.186 C 
HETATM   14  C   UNK N   1      23.958  10.961   1.805  0.00  0.00     0.108 C 
HETATM   15  S   UNK N   1      23.018   9.729   2.776  0.00  0.00    -0.167 SA
HETATM   16  C   UNK N   1      24.262   9.390   4.075  0.00  0.00     0.074 C 
HETATM   17  C   UNK N   1      25.672   9.213   3.538  0.00  0.00     0.019 C 
HETATM   18  C   UNK N   1      26.483  10.409   4.012  0.00  0.00     0.103 C 
HETATM   19  C   UNK N   1      27.397  10.922   2.946  0.00  0.00     0.218 C 
HETATM   20  O   UNK N   1      26.987  11.067   1.805  0.00  0.00    -0.274 OA
HETATM   21  N   UNK N   1      28.673  11.248   3.254  0.00  0.00    -0.347 N 
HETATM   22  C   UNK N   1      29.575  11.830   2.278  0.00  0.00     0.180 C 
HETATM   23  C   UNK N   1      30.649  12.557   3.027  0.00  0.00     0.241 C 
HETATM   24  O   UNK N   1      31.371  11.940   3.800  0.00  0.00    -0.271 OA
HETATM   25  N   UNK N   1      30.799  13.895   2.852  0.00  0.00    -0.346 N 
HETATM   26  H   UNK N   1      30.685  17.766   2.433  0.00  0.00     0.163 HD
HETATM   27  H   UNK N   1      27.808  15.148   4.852  0.00  0.00     0.163 HD
HETATM   28  H   UNK N   1      25.199  12.877   0.791  0.00  0.00     0.163 HD
HETATM   29  H   UNK N   1      29.000  11.084   4.168  0.00  0.00     0.163 HD
HETATM   30  H   UNK N   1      30.269  14.324   2.141  0.00  0.00     0.163 HD
ENDROOT
BRANCH  13  31
HETATM   31  C   UNK N   1      23.252  13.136   2.976  0.00  0.00     0.244 C 
HETATM   32  O   UNK N   1      22.836  13.911   2.145  0.00  0.00    -0.271 OA
HETATM   33  N   UNK N   1      22.519  12.844   4.098  0.00  0.00    -0.337 N 
BRANCH  33  34
HETATM   34  C   UNK N   1      23.137  12.279   5.272  0.00  0.00     0.165 C 
BRANCH  34  35
HETATM   35  C   UNK N   1      22.531  12.921   6.506  0.00  0.00    -0.040 A 
HETATM   36  C   UNK N   1      21.799  12.149   7.430  0.00  0.00     0.012 A 
HETATM   37  C   UNK N   1      21.211  12.734   8.547  0.00  0.00     0.043 A 
HETATM   38  C   UNK N   1      21.347  14.102   8.762  0.00  0.00     0.116 A 
HETATM   39  C   UNK N   1      22.073  14.884   7.855  0.00  0.00     0.043 A 
HETATM   40  F   UNK N   1      20.775  14.669   9.851  0.00  0.00    -0.206 F 
HETATM   41  C   UNK N   1      22.663  14.296   6.727  0.00  0.00     0.012 A 
ENDBRANCH  34  35
ENDBRANCH  33  34
BRANCH  33  42
HETATM   42  C   UNK N   1      21.077  12.788   3.981  0.00  0.00     0.228 C 
BRANCH  42  43
HETATM   43  C   UNK N   1      20.455  14.097   4.148  0.00  0.00     0.236 C 
HETATM   44  O   UNK N   1      19.621  14.259   5.026  0.00  0.00    -0.272 OA
HETATM   45  N   UNK N   1      20.812  15.111   3.319  0.00  0.00    -0.346 N 
HETATM   46  H   UNK N   1      21.570  14.977   2.704  0.00  0.00     0.163 HD
BRANCH  45  47
HETATM   47  C   UNK N   1      20.118  16.382   3.306  0.00  0.00     0.177 C 
BRANCH  47  48
HETATM   48  C   UNK N   1      20.672  17.223   4.467  0.00  0.00     0.038 C 
BRANCH  48  49
HETATM   49  C   UNK N   1      22.176  17.284   4.653  0.00  0.00    -0.020 C 
HETATM   50  C   UNK N   1      22.468  17.924   5.993  0.00  0.00     0.009 C 
HETATM   51  C   UNK N   1      22.813  18.099   3.548  0.00  0.00     0.009 C 
ENDBRANCH  48  49
ENDBRANCH  47  48
BRANCH  47  52
HETATM   52  C   UNK N   1      20.002  16.955   1.884  0.00  0.00     0.240 C 
HETATM   53  O   UNK N   1      19.974  16.162   0.954  0.00  0.00    -0.271 OA
HETATM   54  N   UNK N   1      19.852  18.275   1.568  0.00  0.00    -0.351 N 
HETATM   55  H   UNK N   1      19.745  18.417   0.600  0.00  0.00     0.163 HD
BRANCH  54  56
HETATM   56  C   UNK N   1      19.816  19.522   2.316  0.00  0.00     0.225 C 
BRANCH  56  57
HETATM   57  C   UNK N   1      20.629  20.665   1.832  0.00  0.00     0.233 C 
HETATM   58  O   UNK N   1      21.433  21.210   2.571  0.00  0.00    -0.272 OA
HETATM   59  N   UNK N   1      20.434  21.135   0.583  0.00  0.00    -0.369 N 
HETATM   60  H   UNK N   1      20.790  20.669  -0.208  0.00  0.00     0.159 HD
HETATM   61  H   UNK N   1      19.922  21.966   0.459  0.00  0.00     0.159 HD
ENDBRANCH  56  57
ENDBRANCH  54  56
ENDBRANCH  47  52
ENDBRANCH  45  47
ENDBRANCH  42  43
ENDBRANCH  33  42
ENDBRANCH  13  31
BRANCH   9  62
HETATM   62  C   UNK N   1      25.414  14.576   4.691  0.00  0.00     0.137 C 
BRANCH  62  63
HETATM   63  C   UNK N   1      25.638  15.930   5.327  0.00  0.00     0.217 C 
HETATM   64  O   UNK N   1      25.676  16.947   4.653  0.00  0.00    -0.274 OA
HETATM   65  N   UNK N   1      25.808  16.014   6.661  0.00  0.00    -0.370 N 
HETATM   66  H   UNK N   1      25.379  15.428   7.324  0.00  0.00     0.159 HD
HETATM   67  H   UNK N   1      26.408  16.718   6.998  0.00  0.00     0.159 HD
ENDBRANCH  62  63
ENDBRANCH   9  62
BRANCH   5  68
HETATM   68  C   UNK N   1      29.143  17.034   4.976  0.00  0.00     0.044 C 
BRANCH  68  69
HETATM   69  C   UNK N   1      28.696  18.479   5.161  0.00  0.00     0.105 C 
BRANCH  69  70
HETATM   70  C   UNK N   1      28.001  18.694   6.473  0.00  0.00     0.215 C 
HETATM   71  O   UNK N   1      28.164  17.911   7.397  0.00  0.00    -0.274 OA
HETATM   72  N   UNK N   1      27.162  19.737   6.621  0.00  0.00    -0.370 N 
HETATM   73  H   UNK N   1      27.309  20.534   7.179  0.00  0.00     0.159 HD
HETATM   74  H   UNK N   1      26.314  19.697   6.121  0.00  0.00     0.159 HD
ENDBRANCH  69  70
ENDBRANCH  68  69
ENDBRANCH   5  68
BRANCH  22  75
HETATM   75  C   UNK N   1      30.261  10.809   1.344  0.00  0.00     0.073 C 
BRANCH  75  76
HETATM   76  C   UNK N   1      30.721  11.201  -0.033  0.00  0.00    -0.056 A 
HETATM   77  C   UNK N   1      29.976  10.849  -1.165  0.00  0.00     0.010 A 
HETATM   78  C   UNK N   1      30.467  11.088  -2.446  0.00  0.00     0.037 A 
HETATM   79  C   UNK N   1      31.738  11.634  -2.612  0.00  0.00     0.065 A 
HETATM   80  C   UNK N   1      32.510  11.959  -1.490  0.00  0.00     0.037 A 
HETATM   81  C   UNK N   1      32.003  11.741  -0.202  0.00  0.00     0.010 A 
BRANCH  79  82
HETATM   82  O   UNK N   1      32.222  11.836  -3.847  0.00  0.00    -0.361 OA
HETATM   83  H   UNK N   1      31.659  11.828  -4.596  0.00  0.00     0.217 HD
ENDBRANCH  79  82
ENDBRANCH  75  76
ENDBRANCH  22  75
BRANCH   1  84
HETATM   84  C   UNK N   1      33.098  14.119   3.743  0.00  0.00     0.013 C 
HETATM   85  C   UNK N   1      33.970  14.886   4.716  0.00  0.00     0.012 C 
BRANCH  84  86
HETATM   86  C   UNK N   1      33.815  13.950   2.405  0.00  0.00     0.002 C 
HETATM   87  C   UNK N   1      35.292  13.700   2.607  0.00  0.00     0.005 C 
ENDBRANCH  84  86
ENDBRANCH   1  84
TORSDOF 21
ENDMDL
MODEL 6
REMARK VINA RESULT:      -7.3      1.897      2.572
REMARK  21 active torsions:
REMARK  status: ('A' for Active; 'I' for Inactive)
REMARK    1  A    between atoms: C_2  and  C_3 
REMARK    2  A    between atoms: C_5  and  C_3 
REMARK    3  A    between atoms: C_9  and  C_69 
REMARK    4  A    between atoms: C_13  and  C_65 
REMARK    5  A    between atoms: C_17  and  C_38 
REMARK    6  A    between atoms: C_26  and  C_30 
REMARK    7  A    between atoms: C_30  and  C_31 
REMARK    8  A    between atoms: C_34  and  O_37 
REMARK       I    between atoms: C_38  and  N_40 
REMARK    9  A    between atoms: N_40  and  C_41 
REMARK   10  A    between atoms: N_40  and  C_49 
REMARK   11  A    between atoms: C_41  and  C_42 
REMARK   12  A    between atoms: C_49  and  C_50 
REMARK       I    between atoms: C_50  and  N_52 
REMARK   13  A    between atoms: C_53  and  N_52 
REMARK   14  A    between atoms: C_53  and  C_54 
REMARK   15  A    between atoms: C_53  and  C_58 
REMARK   16  A    between atoms: C_54  and  C_55 
REMARK       I    between atoms: C_58  and  N_60 
REMARK   17  A    between atoms: N_60  and  C_61 
REMARK   18  A    between atoms: C_61  and  C_62 
REMARK       I    between atoms: C_62  and  N_64 
REMARK   19  A    between atoms: C_65  and  C_66 
REMARK       I    between atoms: C_66  and  N_68 
REMARK   20  A    between atoms: C_69  and  C_70 
REMARK   21  A    between atoms: C_70  and  C_71 
REMARK       I    between atoms: C_71  and  N_73 
ROOT
HETATM    1  C   UNK N   1      33.130  15.294   6.453  0.00  0.00     0.180 C 
HETATM    2  C   UNK N   1      33.126  16.823   6.354  0.00  0.00     0.241 C 
HETATM    3  O   UNK N   1      34.187  17.424   6.394  0.00  0.00    -0.271 OA
HETATM    4  N   UNK N   1      31.997  17.562   6.212  0.00  0.00    -0.346 N 
HETATM    5  C   UNK N   1      30.620  17.136   6.289  0.00  0.00     0.177 C 
HETATM    6  C   UNK N   1      30.115  16.152   5.290  0.00  0.00     0.241 C 
HETATM    7  O   UNK N   1      30.482  16.215   4.128  0.00  0.00    -0.271 OA
HETATM    8  N   UNK N   1      29.126  15.316   5.688  0.00  0.00    -0.346 N 
HETATM    9  C   UNK N   1      28.156  14.575   4.908  0.00  0.00     0.185 C 
HETATM   10  C   UNK N   1      27.997  15.006   3.443  0.00  0.00     0.241 C 
HETATM   11  O   UNK N   1      28.259  16.148   3.111  0.00  0.00    -0.271 OA
HETATM   12  N   UNK N   1      27.505  14.166   2.491  0.00  0.00    -0.345 N 
HETATM   13  C   UNK N   1      26.607  13.069   2.771  0.00  0.00     0.186 C 
HETATM   14  C   UNK N   1      26.540  12.144   1.559  0.00  0.00     0.108 C 
HETATM   15  S   UNK N   1      25.530  10.641   1.813  0.00  0.00    -0.167 SA
HETATM   16  C   UNK N   1      26.448   9.924   3.226  0.00  0.00     0.074 C 
HETATM   17  C   UNK N   1      27.957   9.965   3.056  0.00  0.00     0.019 C 
HETATM   18  C   UNK N   1      28.494  10.958   4.075  0.00  0.00     0.103 C 
HETATM   19  C   UNK N   1      29.580  11.812   3.503  0.00  0.00     0.218 C 
HETATM   20  O   UNK N   1      29.448  12.314   2.397  0.00  0.00    -0.274 OA
HETATM   21  N   UNK N   1      30.699  12.048   4.224  0.00  0.00    -0.347 N 
HETATM   22  C   UNK N   1      31.744  12.938   3.754  0.00  0.00     0.180 C 
HETATM   23  C   UNK N   1      32.517  13.405   4.949  0.00  0.00     0.241 C 
HETATM   24  O   UNK N   1      33.092  12.585   5.655  0.00  0.00    -0.271 OA
HETATM   25  N   UNK N   1      32.560  14.730   5.243  0.00  0.00    -0.346 N 
HETATM   26  H   UNK N   1      32.136  18.520   6.030  0.00  0.00     0.163 HD
HETATM   27  H   UNK N   1      29.055  15.190   6.662  0.00  0.00     0.163 HD
HETATM   28  H   UNK N   1      27.777  14.314   1.557  0.00  0.00     0.163 HD
HETATM   29  H   UNK N   1      30.809  11.602   5.095  0.00  0.00     0.163 HD
HETATM   30  H   UNK N   1      32.178  15.355   4.586  0.00  0.00     0.163 HD
ENDROOT
BRANCH  13  31
HETATM   31  C   UNK N   1      25.340  13.800   3.114  0.00  0.00     0.244 C 
HETATM   32  O   UNK N   1      25.097  14.837   2.540  0.00  0.00    -0.271 OA
HETATM   33  N   UNK N   1      24.353  13.112   3.775  0.00  0.00    -0.337 N 
BRANCH  33  34
HETATM   34  C   UNK N   1      24.669  12.136   4.789  0.00  0.00     0.165 C 
BRANCH  34  35
HETATM   35  C   UNK N   1      23.732  12.328   5.967  0.00  0.00    -0.040 A 
HETATM   36  C   UNK N   1      24.035  13.258   6.981  0.00  0.00     0.012 A 
HETATM   37  C   UNK N   1      23.199  13.418   8.082  0.00  0.00     0.043 A 
HETATM   38  C   UNK N   1      22.043  12.650   8.187  0.00  0.00     0.116 A 
HETATM   39  C   UNK N   1      21.725  11.723   7.188  0.00  0.00     0.043 A 
HETATM   40  F   UNK N   1      21.230  12.809   9.259  0.00  0.00    -0.206 F 
HETATM   41  C   UNK N   1      22.569  11.559   6.079  0.00  0.00     0.012 A 
ENDBRANCH  34  35
ENDBRANCH  33  34
BRANCH  33  42
HETATM   42  C   UNK N   1      23.017  13.122   3.217  0.00  0.00     0.228 C 
BRANCH  42  43
HETATM   43  C   UNK N   1      22.171  14.146   3.819  0.00  0.00     0.236 C 
HETATM   44  O   UNK N   1      20.962  13.975   3.868  0.00  0.00    -0.272 OA
HETATM   45  N   UNK N   1      22.744  15.275   4.309  0.00  0.00    -0.346 N 
HETATM   46  H   UNK N   1      23.727  15.325   4.361  0.00  0.00     0.163 HD
BRANCH  45  47
HETATM   47  C   UNK N   1      21.963  16.408   4.759  0.00  0.00     0.177 C 
BRANCH  47  48
HETATM   48  C   UNK N   1      21.920  16.360   6.295  0.00  0.00     0.038 C 
BRANCH  48  49
HETATM   49  C   UNK N   1      20.703  15.744   6.959  0.00  0.00    -0.020 C 
HETATM   50  C   UNK N   1      19.485  16.069   6.122  0.00  0.00     0.009 C 
HETATM   51  C   UNK N   1      20.527  16.298   8.356  0.00  0.00     0.009 C 
ENDBRANCH  48  49
ENDBRANCH  47  48
BRANCH  47  52
HETATM   52  C   UNK N   1      22.336  17.696   4.007  0.00  0.00     0.240 C 
HETATM   53  O   UNK N   1      23.441  18.176   4.220  0.00  0.00    -0.271 OA
HETATM   54  N   UNK N   1      21.571  18.317   3.063  0.00  0.00    -0.351 N 
HETATM   55  H   UNK N   1      22.023  19.098   2.670  0.00  0.00     0.163 HD
BRANCH  54  56
HETATM   56  C   UNK N   1      20.247  18.104   2.499  0.00  0.00     0.225 C 
BRANCH  56  57
HETATM   57  C   UNK N   1      20.063  17.015   1.507  0.00  0.00     0.233 C 
HETATM   58  O   UNK N   1      20.314  17.202   0.329  0.00  0.00    -0.272 OA
HETATM   59  N   UNK N   1      19.563  15.829   1.911  0.00  0.00    -0.369 N 
HETATM   60  H   UNK N   1      20.114  15.170   2.392  0.00  0.00     0.159 HD
HETATM   61  H   UNK N   1      18.620  15.617   1.720  0.00  0.00     0.159 HD
ENDBRANCH  56  57
ENDBRANCH  54  56
ENDBRANCH  47  52
ENDBRANCH  45  47
ENDBRANCH  42  43
ENDBRANCH  33  42
ENDBRANCH  13  31
BRANCH   9  62
HETATM   62  C   UNK N   1      26.848  14.648   5.701  0.00  0.00     0.137 C 
BRANCH  62  63
HETATM   63  C   UNK N   1      26.561  15.955   6.407  0.00  0.00     0.217 C 
HETATM   64  O   UNK N   1      26.687  16.063   7.616  0.00  0.00    -0.274 OA
HETATM   65  N   UNK N   1      26.149  17.017   5.688  0.00  0.00    -0.370 N 
HETATM   66  H   UNK N   1      26.424  17.217   4.764  0.00  0.00     0.159 HD
HETATM   67  H   UNK N   1      25.523  17.643   6.120  0.00  0.00     0.159 HD
ENDBRANCH  62  63
ENDBRANCH   9  62
BRANCH   5  68
HETATM   68  C   UNK N   1      30.108  16.962   7.714  0.00  0.00     0.044 C 
BRANCH  68  69
HETATM   69  C   UNK N   1      29.798  18.318   8.335  0.00  0.00     0.105 C 
BRANCH  69  70
HETATM   70  C   UNK N   1      28.380  18.743   8.092  0.00  0.00     0.215 C 
HETATM   71  O   UNK N   1      28.061  19.259   7.031  0.00  0.00    -0.274 OA
HETATM   72  N   UNK N   1      27.460  18.588   9.063  0.00  0.00    -0.370 N 
HETATM   73  H   UNK N   1      26.706  17.956   9.062  0.00  0.00     0.159 HD
HETATM   74  H   UNK N   1      27.551  19.168   9.854  0.00  0.00     0.159 HD
ENDBRANCH  69  70
ENDBRANCH  68  69
ENDBRANCH   5  68
BRANCH  22  75
HETATM   75  C   UNK N   1      32.743  12.295   2.768  0.00  0.00     0.073 C 
BRANCH  75  76
HETATM   76  C   UNK N   1      32.700  10.822   2.466  0.00  0.00    -0.056 A 
HETATM   77  C   UNK N   1      32.070  10.345   1.310  0.00  0.00     0.010 A 
HETATM   78  C   UNK N   1      31.907   8.978   1.098  0.00  0.00     0.037 A 
HETATM   79  C   UNK N   1      32.324   8.070   2.069  0.00  0.00     0.065 A 
HETATM   80  C   UNK N   1      32.924   8.533   3.245  0.00  0.00     0.037 A 
HETATM   81  C   UNK N   1      33.111   9.907   3.446  0.00  0.00     0.010 A 
BRANCH  79  82
HETATM   82  O   UNK N   1      32.139   6.755   1.876  0.00  0.00    -0.361 OA
HETATM   83  H   UNK N   1      32.027   6.402   1.016  0.00  0.00     0.217 HD
ENDBRANCH  79  82
ENDBRANCH  75  76
ENDBRANCH  22  75
BRANCH   1  84
HETATM   84  C   UNK N   1      34.535  14.702   6.737  0.00  0.00     0.013 C 
HETATM   85  C   UNK N   1      35.025  15.070   8.123  0.00  0.00     0.012 C 
BRANCH  84  86
HETATM   86  C   UNK N   1      35.588  15.054   5.688  0.00  0.00     0.002 C 
HETATM   87  C   UNK N   1      36.903  14.370   5.986  0.00  0.00     0.005 C 
ENDBRANCH  84  86
ENDBRANCH   1  84
TORSDOF 21
ENDMDL
MODEL 7
REMARK VINA RESULT:      -7.3      2.417      3.941
REMARK  21 active torsions:
REMARK  status: ('A' for Active; 'I' for Inactive)
REMARK    1  A    between atoms: C_2  and  C_3 
REMARK    2  A    between atoms: C_5  and  C_3 
REMARK    3  A    between atoms: C_9  and  C_69 
REMARK    4  A    between atoms: C_13  and  C_65 
REMARK    5  A    between atoms: C_17  and  C_38 
REMARK    6  A    between atoms: C_26  and  C_30 
REMARK    7  A    between atoms: C_30  and  C_31 
REMARK    8  A    between atoms: C_34  and  O_37 
REMARK       I    between atoms: C_38  and  N_40 
REMARK    9  A    between atoms: N_40  and  C_41 
REMARK   10  A    between atoms: N_40  and  C_49 
REMARK   11  A    between atoms: C_41  and  C_42 
REMARK   12  A    between atoms: C_49  and  C_50 
REMARK       I    between atoms: C_50  and  N_52 
REMARK   13  A    between atoms: C_53  and  N_52 
REMARK   14  A    between atoms: C_53  and  C_54 
REMARK   15  A    between atoms: C_53  and  C_58 
REMARK   16  A    between atoms: C_54  and  C_55 
REMARK       I    between atoms: C_58  and  N_60 
REMARK   17  A    between atoms: N_60  and  C_61 
REMARK   18  A    between atoms: C_61  and  C_62 
REMARK       I    between atoms: C_62  and  N_64 
REMARK   19  A    between atoms: C_65  and  C_66 
REMARK       I    between atoms: C_66  and  N_68 
REMARK   20  A    between atoms: C_69  and  C_70 
REMARK   21  A    between atoms: C_70  and  C_71 
REMARK       I    between atoms: C_71  and  N_73 
ROOT
HETATM    1  C   UNK N   1      33.346  15.195   6.691  0.00  0.00     0.180 C 
HETATM    2  C   UNK N   1      33.431  16.696   6.401  0.00  0.00     0.241 C 
HETATM    3  O   UNK N   1      34.520  17.246   6.425  0.00  0.00    -0.271 OA
HETATM    4  N   UNK N   1      32.353  17.465   6.103  0.00  0.00    -0.346 N 
HETATM    5  C   UNK N   1      30.952  17.120   6.155  0.00  0.00     0.177 C 
HETATM    6  C   UNK N   1      30.444  16.041   5.261  0.00  0.00     0.241 C 
HETATM    7  O   UNK N   1      30.872  15.937   4.122  0.00  0.00    -0.271 OA
HETATM    8  N   UNK N   1      29.391  15.312   5.703  0.00  0.00    -0.346 N 
HETATM    9  C   UNK N   1      28.423  14.525   4.969  0.00  0.00     0.185 C 
HETATM   10  C   UNK N   1      28.360  14.771   3.455  0.00  0.00     0.241 C 
HETATM   11  O   UNK N   1      28.702  15.847   2.998  0.00  0.00    -0.271 OA
HETATM   12  N   UNK N   1      27.871  13.841   2.591  0.00  0.00    -0.345 N 
HETATM   13  C   UNK N   1      26.901  12.834   2.955  0.00  0.00     0.186 C 
HETATM   14  C   UNK N   1      26.844  11.765   1.867  0.00  0.00     0.108 C 
HETATM   15  S   UNK N   1      25.741  10.358   2.251  0.00  0.00    -0.167 SA
HETATM   16  C   UNK N   1      26.547   9.785   3.792  0.00  0.00     0.074 C 
HETATM   17  C   UNK N   1      28.062   9.730   3.704  0.00  0.00     0.019 C 
HETATM   18  C   UNK N   1      28.602  10.818   4.618  0.00  0.00     0.103 C 
HETATM   19  C   UNK N   1      29.760  11.539   4.006  0.00  0.00     0.218 C 
HETATM   20  O   UNK N   1      29.711  11.900   2.840  0.00  0.00    -0.274 OA
HETATM   21  N   UNK N   1      30.853  11.811   4.754  0.00  0.00    -0.347 N 
HETATM   22  C   UNK N   1      31.968  12.581   4.235  0.00  0.00     0.180 C 
HETATM   23  C   UNK N   1      32.705  13.160   5.404  0.00  0.00     0.241 C 
HETATM   24  O   UNK N   1      33.197  12.411   6.238  0.00  0.00    -0.271 OA
HETATM   25  N   UNK N   1      32.807  14.508   5.531  0.00  0.00    -0.346 N 
HETATM   26  H   UNK N   1      32.554  18.384   5.810  0.00  0.00     0.163 HD
HETATM   27  H   UNK N   1      29.266  15.316   6.680  0.00  0.00     0.163 HD
HETATM   28  H   UNK N   1      28.197  13.854   1.662  0.00  0.00     0.163 HD
HETATM   29  H   UNK N   1      30.894  11.476   5.679  0.00  0.00     0.163 HD
HETATM   30  H   UNK N   1      32.492  15.061   4.780  0.00  0.00     0.163 HD
ENDROOT
BRANCH  13  31
HETATM   31  C   UNK N   1      25.661  13.663   3.131  0.00  0.00     0.244 C 
HETATM   32  O   UNK N   1      25.483  14.602   2.389  0.00  0.00    -0.271 OA
HETATM   33  N   UNK N   1      24.625  13.134   3.859  0.00  0.00    -0.337 N 
BRANCH  33  34
HETATM   34  C   UNK N   1      24.866  12.324   5.028  0.00  0.00     0.165 C 
BRANCH  34  35
HETATM   35  C   UNK N   1      23.785  12.604   6.054  0.00  0.00    -0.040 A 
HETATM   36  C   UNK N   1      22.694  11.724   6.205  0.00  0.00     0.012 A 
HETATM   37  C   UNK N   1      21.680  11.990   7.120  0.00  0.00     0.043 A 
HETATM   38  C   UNK N   1      21.740  13.139   7.903  0.00  0.00     0.116 A 
HETATM   39  C   UNK N   1      22.818  14.022   7.768  0.00  0.00     0.043 A 
HETATM   40  F   UNK N   1      20.752  13.394   8.795  0.00  0.00    -0.206 F 
HETATM   41  C   UNK N   1      23.839  13.758   6.843  0.00  0.00     0.012 A 
ENDBRANCH  34  35
ENDBRANCH  33  34
BRANCH  33  42
HETATM   42  C   UNK N   1      23.307  13.109   3.261  0.00  0.00     0.228 C 
BRANCH  42  43
HETATM   43  C   UNK N   1      22.767  14.447   3.049  0.00  0.00     0.236 C 
HETATM   44  O   UNK N   1      22.735  14.910   1.919  0.00  0.00    -0.272 OA
HETATM   45  N   UNK N   1      22.314  15.155   4.115  0.00  0.00    -0.346 N 
HETATM   46  H   UNK N   1      22.244  14.706   4.988  0.00  0.00     0.163 HD
BRANCH  45  47
HETATM   47  C   UNK N   1      21.929  16.548   4.013  0.00  0.00     0.177 C 
BRANCH  47  48
HETATM   48  C   UNK N   1      20.431  16.590   3.672  0.00  0.00     0.038 C 
BRANCH  48  49
HETATM   49  C   UNK N   1      19.971  17.540   2.584  0.00  0.00    -0.020 C 
HETATM   50  C   UNK N   1      20.093  16.837   1.250  0.00  0.00     0.009 C 
HETATM   51  C   UNK N   1      20.820  18.793   2.581  0.00  0.00     0.009 C 
ENDBRANCH  48  49
ENDBRANCH  47  48
BRANCH  47  52
HETATM   52  C   UNK N   1      22.516  17.389   5.158  0.00  0.00     0.240 C 
HETATM   53  O   UNK N   1      23.515  18.052   4.920  0.00  0.00    -0.271 OA
HETATM   54  N   UNK N   1      21.978  17.519   6.406  0.00  0.00    -0.351 N 
HETATM   55  H   UNK N   1      22.486  18.147   6.969  0.00  0.00     0.163 HD
BRANCH  54  56
HETATM   56  C   UNK N   1      20.835  16.952   7.106  0.00  0.00     0.225 C 
BRANCH  56  57
HETATM   57  C   UNK N   1      20.122  17.792   8.101  0.00  0.00     0.233 C 
HETATM   58  O   UNK N   1      20.418  18.966   8.245  0.00  0.00    -0.272 OA
HETATM   59  N   UNK N   1      19.180  17.232   8.886  0.00  0.00    -0.369 N 
HETATM   60  H   UNK N   1      18.276  17.031   8.550  0.00  0.00     0.159 HD
HETATM   61  H   UNK N   1      19.401  17.019   9.821  0.00  0.00     0.159 HD
ENDBRANCH  56  57
ENDBRANCH  54  56
ENDBRANCH  47  52
ENDBRANCH  45  47
ENDBRANCH  42  43
ENDBRANCH  33  42
ENDBRANCH  13  31
BRANCH   9  62
HETATM   62  C   UNK N   1      27.083  14.762   5.672  0.00  0.00     0.137 C 
BRANCH  62  63
HETATM   63  C   UNK N   1      26.717  16.203   5.954  0.00  0.00     0.217 C 
HETATM   64  O   UNK N   1      26.880  16.692   7.060  0.00  0.00    -0.274 OA
HETATM   65  N   UNK N   1      26.192  16.957   4.969  0.00  0.00    -0.370 N 
HETATM   66  H   UNK N   1      26.415  16.875   4.014  0.00  0.00     0.159 HD
HETATM   67  H   UNK N   1      25.535  17.644   5.224  0.00  0.00     0.159 HD
ENDBRANCH  62  63
ENDBRANCH   9  62
BRANCH   5  68
HETATM   68  C   UNK N   1      30.361  17.155   7.559  0.00  0.00     0.044 C 
BRANCH  68  69
HETATM   69  C   UNK N   1      29.768  18.528   7.850  0.00  0.00     0.105 C 
BRANCH  69  70
HETATM   70  C   UNK N   1      29.056  18.571   9.170  0.00  0.00     0.215 C 
HETATM   71  O   UNK N   1      29.675  18.780  10.202  0.00  0.00    -0.274 OA
HETATM   72  N   UNK N   1      27.731  18.340   9.221  0.00  0.00    -0.370 N 
HETATM   73  H   UNK N   1      27.027  18.997   9.427  0.00  0.00     0.159 HD
HETATM   74  H   UNK N   1      27.434  17.419   9.035  0.00  0.00     0.159 HD
ENDBRANCH  69  70
ENDBRANCH  68  69
ENDBRANCH   5  68
BRANCH  22  75
HETATM   75  C   UNK N   1      32.978  11.769   3.396  0.00  0.00     0.073 C 
BRANCH  75  76
HETATM   76  C   UNK N   1      34.268  12.382   2.924  0.00  0.00    -0.056 A 
HETATM   77  C   UNK N   1      34.267  13.423   1.987  0.00  0.00     0.010 A 
HETATM   78  C   UNK N   1      35.459  13.898   1.446  0.00  0.00     0.037 A 
HETATM   79  C   UNK N   1      36.667  13.298   1.794  0.00  0.00     0.065 A 
HETATM   80  C   UNK N   1      36.682  12.233   2.703  0.00  0.00     0.037 A 
HETATM   81  C   UNK N   1      35.483  11.774   3.266  0.00  0.00     0.010 A 
BRANCH  79  82
HETATM   82  O   UNK N   1      37.811  13.737   1.248  0.00  0.00    -0.361 OA
HETATM   83  H   UNK N   1      38.414  13.146   0.842  0.00  0.00     0.217 HD
ENDBRANCH  79  82
ENDBRANCH  75  76
ENDBRANCH  22  75
BRANCH   1  84
HETATM   84  C   UNK N   1      34.699  14.576   7.126  0.00  0.00     0.013 C 
HETATM   85  C   UNK N   1      35.120  15.065   8.497  0.00  0.00     0.012 C 
BRANCH  84  86
HETATM   86  C   UNK N   1      35.831  14.774   6.120  0.00  0.00     0.002 C 
HETATM   87  C   UNK N   1      36.825  13.637   6.189  0.00  0.00     0.005 C 
ENDBRANCH  84  86
ENDBRANCH   1  84
TORSDOF 21
ENDMDL
MODEL 8
REMARK VINA RESULT:      -7.3      2.692      4.256
REMARK  21 active torsions:
REMARK  status: ('A' for Active; 'I' for Inactive)
REMARK    1  A    between atoms: C_2  and  C_3 
REMARK    2  A    between atoms: C_5  and  C_3 
REMARK    3  A    between atoms: C_9  and  C_69 
REMARK    4  A    between atoms: C_13  and  C_65 
REMARK    5  A    between atoms: C_17  and  C_38 
REMARK    6  A    between atoms: C_26  and  C_30 
REMARK    7  A    between atoms: C_30  and  C_31 
REMARK    8  A    between atoms: C_34  and  O_37 
REMARK       I    between atoms: C_38  and  N_40 
REMARK    9  A    between atoms: N_40  and  C_41 
REMARK   10  A    between atoms: N_40  and  C_49 
REMARK   11  A    between atoms: C_41  and  C_42 
REMARK   12  A    between atoms: C_49  and  C_50 
REMARK       I    between atoms: C_50  and  N_52 
REMARK   13  A    between atoms: C_53  and  N_52 
REMARK   14  A    between atoms: C_53  and  C_54 
REMARK   15  A    between atoms: C_53  and  C_58 
REMARK   16  A    between atoms: C_54  and  C_55 
REMARK       I    between atoms: C_58  and  N_60 
REMARK   17  A    between atoms: N_60  and  C_61 
REMARK   18  A    between atoms: C_61  and  C_62 
REMARK       I    between atoms: C_62  and  N_64 
REMARK   19  A    between atoms: C_65  and  C_66 
REMARK       I    between atoms: C_66  and  N_68 
REMARK   20  A    between atoms: C_69  and  C_70 
REMARK   21  A    between atoms: C_70  and  C_71 
REMARK       I    between atoms: C_71  and  N_73 
ROOT
HETATM    1  C   UNK N   1      33.435  14.985   8.151  0.00  0.00     0.180 C 
HETATM    2  C   UNK N   1      33.723  16.488   8.102  0.00  0.00     0.241 C 
HETATM    3  O   UNK N   1      34.828  16.893   8.423  0.00  0.00    -0.271 OA
HETATM    4  N   UNK N   1      32.812  17.414   7.708  0.00  0.00    -0.346 N 
HETATM    5  C   UNK N   1      31.407  17.240   7.428  0.00  0.00     0.177 C 
HETATM    6  C   UNK N   1      31.003  16.348   6.305  0.00  0.00     0.241 C 
HETATM    7  O   UNK N   1      31.654  16.330   5.272  0.00  0.00    -0.271 OA
HETATM    8  N   UNK N   1      29.815  15.706   6.418  0.00  0.00    -0.346 N 
HETATM    9  C   UNK N   1      28.957  15.138   5.399  0.00  0.00     0.185 C 
HETATM   10  C   UNK N   1      29.246  15.571   3.955  0.00  0.00     0.241 C 
HETATM   11  O   UNK N   1      29.779  16.644   3.735  0.00  0.00    -0.271 OA
HETATM   12  N   UNK N   1      28.868  14.819   2.885  0.00  0.00    -0.345 N 
HETATM   13  C   UNK N   1      27.751  13.902   2.899  0.00  0.00     0.186 C 
HETATM   14  C   UNK N   1      27.828  12.988   1.680  0.00  0.00     0.108 C 
HETATM   15  S   UNK N   1      26.539  11.692   1.628  0.00  0.00    -0.167 SA
HETATM   16  C   UNK N   1      26.936  10.842   3.201  0.00  0.00     0.074 C 
HETATM   17  C   UNK N   1      28.422  10.612   3.411  0.00  0.00     0.019 C 
HETATM   18  C   UNK N   1      28.854  11.508   4.562  0.00  0.00     0.103 C 
HETATM   19  C   UNK N   1      30.180  12.148   4.305  0.00  0.00     0.218 C 
HETATM   20  O   UNK N   1      30.418  12.651   3.217  0.00  0.00    -0.274 OA
HETATM   21  N   UNK N   1      31.107  12.192   5.288  0.00  0.00    -0.347 N 
HETATM   22  C   UNK N   1      32.375  12.876   5.119  0.00  0.00     0.180 C 
HETATM   23  C   UNK N   1      32.896  13.214   6.483  0.00  0.00     0.241 C 
HETATM   24  O   UNK N   1      33.123  12.315   7.283  0.00  0.00    -0.271 OA
HETATM   25  N   UNK N   1      33.095  14.514   6.820  0.00  0.00    -0.346 N 
HETATM   26  H   UNK N   1      33.158  18.330   7.596  0.00  0.00     0.163 HD
HETATM   27  H   UNK N   1      29.483  15.608   7.340  0.00  0.00     0.163 HD
HETATM   28  H   UNK N   1      29.386  14.904   2.052  0.00  0.00     0.163 HD
HETATM   29  H   UNK N   1      30.916  11.745   6.144  0.00  0.00     0.163 HD
HETATM   30  H   UNK N   1      33.004  15.188   6.109  0.00  0.00     0.163 HD
ENDROOT
BRANCH  13  31
HETATM   31  C   UNK N   1      26.586  14.851   2.940  0.00  0.00     0.244 C 
HETATM   32  O   UNK N   1      26.658  15.883   2.312  0.00  0.00    -0.271 OA
HETATM   33  N   UNK N   1      25.375  14.372   3.373  0.00  0.00    -0.337 N 
BRANCH  33  34
HETATM   34  C   UNK N   1      25.288  13.412   4.446  0.00  0.00     0.165 C 
BRANCH  34  35
HETATM   35  C   UNK N   1      23.968  13.598   5.169  0.00  0.00    -0.040 A 
HETATM   36  C   UNK N   1      23.849  14.535   6.216  0.00  0.00     0.012 A 
HETATM   37  C   UNK N   1      22.651  14.690   6.908  0.00  0.00     0.043 A 
HETATM   38  C   UNK N   1      21.550  13.912   6.563  0.00  0.00     0.116 A 
HETATM   39  C   UNK N   1      21.649  12.978   5.524  0.00  0.00     0.043 A 
HETATM   40  F   UNK N   1      20.385  14.066   7.237  0.00  0.00    -0.206 F 
HETATM   41  C   UNK N   1      22.857  12.819   4.829  0.00  0.00     0.012 A 
ENDBRANCH  34  35
ENDBRANCH  33  34
BRANCH  33  42
HETATM   42  C   UNK N   1      24.215  14.575   2.531  0.00  0.00     0.228 C 
BRANCH  42  43
HETATM   43  C   UNK N   1      23.386  15.686   2.985  0.00  0.00     0.236 C 
HETATM   44  O   UNK N   1      23.896  16.596   3.622  0.00  0.00    -0.272 OA
HETATM   45  N   UNK N   1      22.060  15.685   2.694  0.00  0.00    -0.346 N 
HETATM   46  H   UNK N   1      21.709  15.001   2.079  0.00  0.00     0.163 HD
BRANCH  45  47
HETATM   47  C   UNK N   1      21.143  16.656   3.256  0.00  0.00     0.177 C 
BRANCH  47  48
HETATM   48  C   UNK N   1      20.912  17.742   2.193  0.00  0.00     0.038 C 
BRANCH  48  49
HETATM   49  C   UNK N   1      20.540  19.135   2.663  0.00  0.00    -0.020 C 
HETATM   50  C   UNK N   1      21.005  20.132   1.625  0.00  0.00     0.009 C 
HETATM   51  C   UNK N   1      21.196  19.437   3.994  0.00  0.00     0.009 C 
ENDBRANCH  48  49
ENDBRANCH  47  48
BRANCH  47  52
HETATM   52  C   UNK N   1      19.968  15.980   3.981  0.00  0.00     0.240 C 
HETATM   53  O   UNK N   1      19.654  16.416   5.079  0.00  0.00    -0.271 OA
HETATM   54  N   UNK N   1      19.192  14.977   3.476  0.00  0.00    -0.351 N 
HETATM   55  H   UNK N   1      18.462  14.726   4.087  0.00  0.00     0.163 HD
BRANCH  54  56
HETATM   56  C   UNK N   1      19.185  14.187   2.254  0.00  0.00     0.225 C 
BRANCH  56  57
HETATM   57  C   UNK N   1      19.999  12.947   2.204  0.00  0.00     0.233 C 
HETATM   58  O   UNK N   1      21.101  12.950   1.682  0.00  0.00    -0.272 OA
HETATM   59  N   UNK N   1      19.486  11.799   2.693  0.00  0.00    -0.369 N 
HETATM   60  H   UNK N   1      19.445  11.620   3.660  0.00  0.00     0.159 HD
HETATM   61  H   UNK N   1      19.145  11.122   2.065  0.00  0.00     0.159 HD
ENDBRANCH  56  57
ENDBRANCH  54  56
ENDBRANCH  47  52
ENDBRANCH  45  47
ENDBRANCH  42  43
ENDBRANCH  33  42
ENDBRANCH  13  31
BRANCH   9  62
HETATM   62  C   UNK N   1      27.526  15.453   5.846  0.00  0.00     0.137 C 
BRANCH  62  63
HETATM   63  C   UNK N   1      27.124  16.911   5.838  0.00  0.00     0.217 C 
HETATM   64  O   UNK N   1      27.951  17.797   5.981  0.00  0.00    -0.274 OA
HETATM   65  N   UNK N   1      25.826  17.237   5.681  0.00  0.00    -0.370 N 
HETATM   66  H   UNK N   1      25.177  16.734   5.139  0.00  0.00     0.159 HD
HETATM   67  H   UNK N   1      25.501  18.043   6.144  0.00  0.00     0.159 HD
ENDBRANCH  62  63
ENDBRANCH   9  62
BRANCH   5  68
HETATM   68  C   UNK N   1      30.534  17.179   8.675  0.00  0.00     0.044 C 
BRANCH  68  69
HETATM   69  C   UNK N   1      29.797  18.498   8.872  0.00  0.00     0.105 C 
BRANCH  69  70
HETATM   70  C   UNK N   1      28.336  18.297   9.145  0.00  0.00     0.215 C 
HETATM   71  O   UNK N   1      27.953  17.335   9.794  0.00  0.00    -0.274 OA
HETATM   72  N   UNK N   1      27.437  19.162   8.639  0.00  0.00    -0.370 N 
HETATM   73  H   UNK N   1      26.894  19.808   9.146  0.00  0.00     0.159 HD
HETATM   74  H   UNK N   1      27.308  19.145   7.663  0.00  0.00     0.159 HD
ENDBRANCH  69  70
ENDBRANCH  68  69
ENDBRANCH   5  68
BRANCH  22  75
HETATM   75  C   UNK N   1      33.461  12.052   4.392  0.00  0.00     0.073 C 
BRANCH  75  76
HETATM   76  C   UNK N   1      33.974  12.465   3.039  0.00  0.00    -0.056 A 
HETATM   77  C   UNK N   1      34.587  13.710   2.854  0.00  0.00     0.010 A 
HETATM   78  C   UNK N   1      34.937  14.152   1.581  0.00  0.00     0.037 A 
HETATM   79  C   UNK N   1      34.627  13.374   0.467  0.00  0.00     0.065 A 
HETATM   80  C   UNK N   1      33.982  12.143   0.632  0.00  0.00     0.037 A 
HETATM   81  C   UNK N   1      33.654  11.689   1.917  0.00  0.00     0.010 A 
BRANCH  79  82
HETATM   82  O   UNK N   1      34.937  13.815  -0.762  0.00  0.00    -0.361 OA
HETATM   83  H   UNK N   1      35.805  14.099  -0.971  0.00  0.00     0.217 HD
ENDBRANCH  79  82
ENDBRANCH  75  76
ENDBRANCH  22  75
BRANCH   1  84
HETATM   84  C   UNK N   1      34.598  14.156   8.755  0.00  0.00     0.013 C 
HETATM   85  C   UNK N   1      34.644  14.279  10.265  0.00  0.00     0.012 C 
BRANCH  84  86
HETATM   86  C   UNK N   1      35.967  14.466   8.154  0.00  0.00     0.002 C 
HETATM   87  C   UNK N   1      36.533  13.261   7.438  0.00  0.00     0.005 C 
ENDBRANCH  84  86
ENDBRANCH   1  84
TORSDOF 21
ENDMDL
MODEL 9
REMARK VINA RESULT:      -7.1      2.868      9.419
REMARK  21 active torsions:
REMARK  status: ('A' for Active; 'I' for Inactive)
REMARK    1  A    between atoms: C_2  and  C_3 
REMARK    2  A    between atoms: C_5  and  C_3 
REMARK    3  A    between atoms: C_9  and  C_69 
REMARK    4  A    between atoms: C_13  and  C_65 
REMARK    5  A    between atoms: C_17  and  C_38 
REMARK    6  A    between atoms: C_26  and  C_30 
REMARK    7  A    between atoms: C_30  and  C_31 
REMARK    8  A    between atoms: C_34  and  O_37 
REMARK       I    between atoms: C_38  and  N_40 
REMARK    9  A    between atoms: N_40  and  C_41 
REMARK   10  A    between atoms: N_40  and  C_49 
REMARK   11  A    between atoms: C_41  and  C_42 
REMARK   12  A    between atoms: C_49  and  C_50 
REMARK       I    between atoms: C_50  and  N_52 
REMARK   13  A    between atoms: C_53  and  N_52 
REMARK   14  A    between atoms: C_53  and  C_54 
REMARK   15  A    between atoms: C_53  and  C_58 
REMARK   16  A    between atoms: C_54  and  C_55 
REMARK       I    between atoms: C_58  and  N_60 
REMARK   17  A    between atoms: N_60  and  C_61 
REMARK   18  A    between atoms: C_61  and  C_62 
REMARK       I    between atoms: C_62  and  N_64 
REMARK   19  A    between atoms: C_65  and  C_66 
REMARK       I    between atoms: C_66  and  N_68 
REMARK   20  A    between atoms: C_69  and  C_70 
REMARK   21  A    between atoms: C_70  and  C_71 
REMARK       I    between atoms: C_71  and  N_73 
ROOT
HETATM    1  C   UNK N   1      20.480  16.192   6.374  0.00  0.00     0.180 C 
HETATM    2  C   UNK N   1      21.202  17.490   6.750  0.00  0.00     0.241 C 
HETATM    3  O   UNK N   1      20.767  18.170   7.664  0.00  0.00    -0.271 OA
HETATM    4  N   UNK N   1      22.322  17.933   6.124  0.00  0.00    -0.346 N 
HETATM    5  C   UNK N   1      22.956  17.422   4.932  0.00  0.00     0.177 C 
HETATM    6  C   UNK N   1      23.498  16.034   4.946  0.00  0.00     0.241 C 
HETATM    7  O   UNK N   1      24.048  15.600   5.946  0.00  0.00    -0.271 OA
HETATM    8  N   UNK N   1      23.505  15.358   3.771  0.00  0.00    -0.346 N 
HETATM    9  C   UNK N   1      24.302  14.226   3.346  0.00  0.00     0.185 C 
HETATM   10  C   UNK N   1      25.537  13.911   4.202  0.00  0.00     0.241 C 
HETATM   11  O   UNK N   1      26.077  14.795   4.843  0.00  0.00    -0.271 OA
HETATM   12  N   UNK N   1      26.102  12.673   4.227  0.00  0.00    -0.345 N 
HETATM   13  C   UNK N   1      26.015  11.725   3.139  0.00  0.00     0.186 C 
HETATM   14  C   UNK N   1      26.446  10.346   3.631  0.00  0.00     0.108 C 
HETATM   15  S   UNK N   1      26.272   9.016   2.388  0.00  0.00    -0.167 SA
HETATM   16  C   UNK N   1      24.471   9.151   2.086  0.00  0.00     0.074 C 
HETATM   17  C   UNK N   1      23.649   9.297   3.355  0.00  0.00     0.019 C 
HETATM   18  C   UNK N   1      23.077  10.706   3.356  0.00  0.00     0.103 C 
HETATM   19  C   UNK N   1      23.131  11.330   4.714  0.00  0.00     0.218 C 
HETATM   20  O   UNK N   1      24.146  11.245   5.388  0.00  0.00    -0.274 OA
HETATM   21  N   UNK N   1      22.061  12.010   5.184  0.00  0.00    -0.347 N 
HETATM   22  C   UNK N   1      22.090  12.705   6.456  0.00  0.00     0.180 C 
HETATM   23  C   UNK N   1      21.029  13.763   6.422  0.00  0.00     0.241 C 
HETATM   24  O   UNK N   1      19.859  13.439   6.263  0.00  0.00    -0.271 OA
HETATM   25  N   UNK N   1      21.380  15.068   6.553  0.00  0.00    -0.346 N 
HETATM   26  H   UNK N   1      22.764  18.708   6.541  0.00  0.00     0.163 HD
HETATM   27  H   UNK N   1      22.864  15.687   3.100  0.00  0.00     0.163 HD
HETATM   28  H   UNK N   1      26.600  12.407   5.034  0.00  0.00     0.163 HD
HETATM   29  H   UNK N   1      21.236  12.032   4.647  0.00  0.00     0.163 HD
HETATM   30  H   UNK N   1      22.315  15.267   6.789  0.00  0.00     0.163 HD
ENDROOT
BRANCH  13  31
HETATM   31  C   UNK N   1      26.904  12.367   2.112  0.00  0.00     0.244 C 
HETATM   32  O   UNK N   1      26.430  12.653   1.035  0.00  0.00    -0.271 OA
HETATM   33  N   UNK N   1      28.085  12.925   2.534  0.00  0.00    -0.337 N 
BRANCH  33  34
HETATM   34  C   UNK N   1      28.871  12.317   3.579  0.00  0.00     0.165 C 
BRANCH  34  35
HETATM   35  C   UNK N   1      29.804  11.293   2.961  0.00  0.00    -0.040 A 
HETATM   36  C   UNK N   1      30.433  10.319   3.763  0.00  0.00     0.012 A 
HETATM   37  C   UNK N   1      31.317   9.396   3.211  0.00  0.00     0.043 A 
HETATM   38  C   UNK N   1      31.585   9.430   1.846  0.00  0.00     0.116 A 
HETATM   39  C   UNK N   1      30.967  10.388   1.034  0.00  0.00     0.043 A 
HETATM   40  F   UNK N   1      32.445   8.529   1.311  0.00  0.00    -0.206 F 
HETATM   41  C   UNK N   1      30.079  11.321   1.590  0.00  0.00     0.012 A 
ENDBRANCH  34  35
ENDBRANCH  33  34
BRANCH  33  42
HETATM   42  C   UNK N   1      28.366  14.297   2.165  0.00  0.00     0.228 C 
BRANCH  42  43
HETATM   43  C   UNK N   1      29.151  14.994   3.177  0.00  0.00     0.236 C 
HETATM   44  O   UNK N   1      30.325  14.696   3.340  0.00  0.00    -0.272 OA
HETATM   45  N   UNK N   1      28.558  15.960   3.925  0.00  0.00    -0.346 N 
HETATM   46  H   UNK N   1      27.650  16.256   3.686  0.00  0.00     0.163 HD
BRANCH  45  47
HETATM   47  C   UNK N   1      29.216  16.572   5.062  0.00  0.00     0.177 C 
BRANCH  47  48
HETATM   48  C   UNK N   1      30.221  17.599   4.517  0.00  0.00     0.038 C 
BRANCH  48  49
HETATM   49  C   UNK N   1      31.658  17.518   4.994  0.00  0.00    -0.020 C 
HETATM   50  C   UNK N   1      32.555  17.342   3.788  0.00  0.00     0.009 C 
HETATM   51  C   UNK N   1      31.836  16.349   5.939  0.00  0.00     0.009 C 
ENDBRANCH  48  49
ENDBRANCH  47  48
BRANCH  47  52
HETATM   52  C   UNK N   1      28.216  16.938   6.171  0.00  0.00     0.240 C 
HETATM   53  O   UNK N   1      28.475  16.572   7.309  0.00  0.00    -0.271 OA
HETATM   54  N   UNK N   1      27.096  17.701   6.014  0.00  0.00    -0.351 N 
HETATM   55  H   UNK N   1      26.626  17.856   6.865  0.00  0.00     0.163 HD
BRANCH  54  56
HETATM   56  C   UNK N   1      26.427  18.340   4.891  0.00  0.00     0.225 C 
BRANCH  56  57
HETATM   57  C   UNK N   1      25.976  19.747   5.037  0.00  0.00     0.233 C 
HETATM   58  O   UNK N   1      26.301  20.402   6.014  0.00  0.00    -0.272 OA
HETATM   59  N   UNK N   1      25.158  20.280   4.108  0.00  0.00    -0.369 N 
HETATM   60  H   UNK N   1      25.493  20.578   3.231  0.00  0.00     0.159 HD
HETATM   61  H   UNK N   1      24.199  20.374   4.312  0.00  0.00     0.159 HD
ENDBRANCH  56  57
ENDBRANCH  54  56
ENDBRANCH  47  52
ENDBRANCH  45  47
ENDBRANCH  42  43
ENDBRANCH  33  42
ENDBRANCH  13  31
BRANCH   9  62
HETATM   62  C   UNK N   1      24.643  14.492   1.876  0.00  0.00     0.137 C 
BRANCH  62  63
HETATM   63  C   UNK N   1      23.548  14.210   0.871  0.00  0.00     0.217 C 
HETATM   64  O   UNK N   1      22.526  14.876   0.843  0.00  0.00    -0.274 OA
HETATM   65  N   UNK N   1      23.701  13.197  -0.004  0.00  0.00    -0.370 N 
HETATM   66  H   UNK N   1      24.559  12.906  -0.389  0.00  0.00     0.159 HD
HETATM   67  H   UNK N   1      22.891  12.711  -0.282  0.00  0.00     0.159 HD
ENDBRANCH  62  63
ENDBRANCH   9  62
BRANCH   5  68
HETATM   68  C   UNK N   1      22.280  17.861   3.638  0.00  0.00     0.044 C 
BRANCH  68  69
HETATM   69  C   UNK N   1      21.539  19.175   3.848  0.00  0.00     0.105 C 
BRANCH  69  70
HETATM   70  C   UNK N   1      21.775  20.144   2.727  0.00  0.00     0.215 C 
HETATM   71  O   UNK N   1      22.592  21.043   2.847  0.00  0.00    -0.274 OA
HETATM   72  N   UNK N   1      21.053  20.045   1.595  0.00  0.00    -0.370 N 
HETATM   73  H   UNK N   1      21.383  19.768   0.710  0.00  0.00     0.159 HD
HETATM   74  H   UNK N   1      20.097  20.273   1.658  0.00  0.00     0.159 HD
ENDBRANCH  69  70
ENDBRANCH  68  69
ENDBRANCH   5  68
BRANCH  22  75
HETATM   75  C   UNK N   1      21.824  11.811   7.687  0.00  0.00     0.073 C 
BRANCH  75  76
HETATM   76  C   UNK N   1      22.497  12.081   9.005  0.00  0.00    -0.056 A 
HETATM   77  C   UNK N   1      23.892  12.023   9.123  0.00  0.00     0.010 A 
HETATM   78  C   UNK N   1      24.509  12.135  10.366  0.00  0.00     0.037 A 
HETATM   79  C   UNK N   1      23.733  12.252  11.518  0.00  0.00     0.065 A 
HETATM   80  C   UNK N   1      22.337  12.276  11.420  0.00  0.00     0.037 A 
HETATM   81  C   UNK N   1      21.719  12.189  10.165  0.00  0.00     0.010 A 
BRANCH  79  82
HETATM   82  O   UNK N   1      24.328  12.329  12.718  0.00  0.00    -0.361 OA
HETATM   83  H   UNK N   1      24.998  12.961  12.888  0.00  0.00     0.217 HD
ENDBRANCH  79  82
ENDBRANCH  75  76
ENDBRANCH  22  75
BRANCH   1  84
HETATM   84  C   UNK N   1      19.157  15.978   7.155  0.00  0.00     0.013 C 
HETATM   85  C   UNK N   1      17.947  16.294   6.300  0.00  0.00     0.012 C 
BRANCH  84  86
HETATM   86  C   UNK N   1      19.084  16.732   8.481  0.00  0.00     0.002 C 
HETATM   87  C   UNK N   1      17.652  17.055   8.844  0.00  0.00     0.005 C 
ENDBRANCH  84  86
ENDBRANCH   1  84
TORSDOF 21
ENDMDL
