MODEL 1
REMARK VINA RESULT:      -7.4      0.000      0.000
REMARK  4 active torsions:
REMARK  status: ('A' for Active; 'I' for Inactive)
REMARK    1  A    between atoms: C_8  and  C_23 
REMARK    2  A    between atoms: C_8  and  O_27 
REMARK    3  A    between atoms: C_23  and  C_25 
REMARK    4  A    between atoms: C_25  and  O_26 
ROOT
HETATM    1  C   UNK N   1      27.972  17.936   9.192  0.00  0.00     0.015 C 
HETATM    2  C   UNK N   1      28.889  17.959   7.985  0.00  0.00     0.012 C 
HETATM    3  C   UNK N   1      29.300  16.530   7.644  0.00  0.00     0.014 C 
HETATM    4  C   UNK N   1      30.121  16.443   6.352  0.00  0.00     0.004 C 
HETATM    5  C   UNK N   1      31.569  16.938   6.510  0.00  0.00     0.002 C 
HETATM    6  C   UNK N   1      32.296  16.040   7.510  0.00  0.00     0.009 C 
HETATM    7  C   UNK N   1      33.129  15.051   6.692  0.00  0.00     0.047 C 
HETATM    8  C   UNK N   1      32.778  15.289   5.221  0.00  0.00     0.128 C 
HETATM    9  C   UNK N   1      32.393  16.789   5.204  0.00  0.00     0.005 C 
HETATM   10  C   UNK N   1      31.674  17.301   3.921  0.00  0.00     0.091 C 
HETATM   11  C   UNK N   1      30.204  17.013   3.933  0.00  0.00     0.133 C 
HETATM   12  O   UNK N   1      29.644  16.503   2.975  0.00  0.00    -0.297 OA
HETATM   13  C   UNK N   1      29.499  17.250   5.222  0.00  0.00     0.076 C 
HETATM   14  C   UNK N   1      28.158  17.971   5.439  0.00  0.00     0.008 C 
HETATM   15  C   UNK N   1      28.261  18.676   6.804  0.00  0.00    -0.059 C 
HETATM   16  C   UNK N   1      27.887  19.954   6.964  0.00  0.00     0.059 C 
HETATM   17  C   UNK N   1      27.358  20.732   5.838  0.00  0.00     0.172 C 
HETATM   18  O   UNK N   1      26.867  21.831   6.028  0.00  0.00    -0.289 OA
HETATM   19  C   UNK N   1      27.443  20.180   4.480  0.00  0.00     0.052 C 
HETATM   20  C   UNK N   1      27.826  18.910   4.291  0.00  0.00    -0.008 C 
HETATM   21  C   UNK N   1      27.053  16.930   5.490  0.00  0.00     0.025 C 
HETATM   22  C   UNK N   1      33.642  17.658   5.359  0.00  0.00     0.019 C 
ENDROOT
BRANCH   8  23
HETATM   23  C   UNK N   1      33.911  14.936   4.273  0.00  0.00     0.184 C 
HETATM   24  O   UNK N   1      34.974  14.545   4.727  0.00  0.00    -0.292 OA
BRANCH  23  25
HETATM   25  C   UNK N   1      33.755  15.032   2.782  0.00  0.00     0.245 C 
BRANCH  25  26
HETATM   26  O   UNK N   1      32.714  14.209   2.346  0.00  0.00    -0.393 OA
HETATM   27  H   UNK N   1      31.952  13.729   2.705  0.00  0.00     0.209 HD
ENDBRANCH  25  26
ENDBRANCH  23  25
ENDBRANCH   8  23
BRANCH   8  28
HETATM   28  O   UNK N   1      31.672  14.491   4.909  0.00  0.00    -0.381 OA
HETATM   29  H   UNK N   1      31.074  13.731   4.829  0.00  0.00     0.211 HD
ENDBRANCH   8  28
TORSDOF 4
ENDMDL
MODEL 2
REMARK VINA RESULT:      -6.9      7.426     11.221
REMARK  4 active torsions:
REMARK  status: ('A' for Active; 'I' for Inactive)
REMARK    1  A    between atoms: C_8  and  C_23 
REMARK    2  A    between atoms: C_8  and  O_27 
REMARK    3  A    between atoms: C_23  and  C_25 
REMARK    4  A    between atoms: C_25  and  O_26 
ROOT
HETATM    1  C   UNK N   1      34.554   8.131  11.120  0.00  0.00     0.015 C 
HETATM    2  C   UNK N   1      35.153   9.507  11.335  0.00  0.00     0.012 C 
HETATM    3  C   UNK N   1      34.053  10.556  11.200  0.00  0.00     0.014 C 
HETATM    4  C   UNK N   1      34.540  11.970  11.535  0.00  0.00     0.004 C 
HETATM    5  C   UNK N   1      35.420  12.594  10.438  0.00  0.00     0.002 C 
HETATM    6  C   UNK N   1      34.592  12.744   9.162  0.00  0.00     0.009 C 
HETATM    7  C   UNK N   1      34.143  14.205   9.097  0.00  0.00     0.047 C 
HETATM    8  C   UNK N   1      34.596  14.865  10.402  0.00  0.00     0.128 C 
HETATM    9  C   UNK N   1      35.853  14.043  10.777  0.00  0.00     0.005 C 
HETATM   10  C   UNK N   1      36.397  14.237  12.224  0.00  0.00     0.091 C 
HETATM   11  C   UNK N   1      35.659  13.405  13.229  0.00  0.00     0.133 C 
HETATM   12  O   UNK N   1      35.238  13.886  14.270  0.00  0.00    -0.297 OA
HETATM   13  C   UNK N   1      35.348  12.008  12.824  0.00  0.00     0.076 C 
HETATM   14  C   UNK N   1      35.530  10.728  13.656  0.00  0.00     0.008 C 
HETATM   15  C   UNK N   1      35.888   9.611  12.658  0.00  0.00    -0.059 C 
HETATM   16  C   UNK N   1      36.905   8.765  12.887  0.00  0.00     0.059 C 
HETATM   17  C   UNK N   1      37.715   8.871  14.105  0.00  0.00     0.172 C 
HETATM   18  O   UNK N   1      38.522   8.001  14.383  0.00  0.00    -0.289 OA
HETATM   19  C   UNK N   1      37.556  10.043  14.975  0.00  0.00     0.052 C 
HETATM   20  C   UNK N   1      36.557  10.911  14.762  0.00  0.00    -0.008 C 
HETATM   21  C   UNK N   1      34.210  10.398  14.330  0.00  0.00     0.025 C 
HETATM   22  C   UNK N   1      37.014  14.396   9.844  0.00  0.00     0.019 C 
ENDROOT
BRANCH   8  23
HETATM   23  C   UNK N   1      34.857  16.355  10.258  0.00  0.00     0.184 C 
HETATM   24  O   UNK N   1      35.278  16.986  11.214  0.00  0.00    -0.292 OA
BRANCH  23  25
HETATM   25  C   UNK N   1      34.634  17.077   8.960  0.00  0.00     0.245 C 
BRANCH  25  26
HETATM   26  O   UNK N   1      35.177  18.362   9.017  0.00  0.00    -0.393 OA
HETATM   27  H   UNK N   1      35.915  18.835   9.430  0.00  0.00     0.209 HD
ENDBRANCH  25  26
ENDBRANCH  23  25
ENDBRANCH   8  23
BRANCH   8  28
HETATM   28  O   UNK N   1      33.583  14.682  11.350  0.00  0.00    -0.381 OA
HETATM   29  H   UNK N   1      32.873  14.854  11.988  0.00  0.00     0.211 HD
ENDBRANCH   8  28
TORSDOF 4
ENDMDL
MODEL 3
REMARK VINA RESULT:      -6.9      2.521      6.507
REMARK  4 active torsions:
REMARK  status: ('A' for Active; 'I' for Inactive)
REMARK    1  A    between atoms: C_8  and  C_23 
REMARK    2  A    between atoms: C_8  and  O_27 
REMARK    3  A    between atoms: C_23  and  C_25 
REMARK    4  A    between atoms: C_25  and  O_26 
ROOT
HETATM    1  C   UNK N   1      32.412  14.773   4.863  0.00  0.00     0.015 C 
HETATM    2  C   UNK N   1      31.511  15.952   5.174  0.00  0.00     0.012 C 
HETATM    3  C   UNK N   1      30.078  15.454   5.338  0.00  0.00     0.014 C 
HETATM    4  C   UNK N   1      29.116  16.560   5.789  0.00  0.00     0.004 C 
HETATM    5  C   UNK N   1      28.759  17.556   4.673  0.00  0.00     0.002 C 
HETATM    6  C   UNK N   1      28.024  16.813   3.557  0.00  0.00     0.009 C 
HETATM    7  C   UNK N   1      26.532  17.086   3.753  0.00  0.00     0.047 C 
HETATM    8  C   UNK N   1      26.395  17.875   5.058  0.00  0.00     0.128 C 
HETATM    9  C   UNK N   1      27.743  18.631   5.139  0.00  0.00     0.005 C 
HETATM   10  C   UNK N   1      28.081  19.293   6.508  0.00  0.00     0.091 C 
HETATM   11  C   UNK N   1      28.667  18.320   7.486  0.00  0.00     0.133 C 
HETATM   12  O   UNK N   1      28.251  18.236   8.631  0.00  0.00    -0.297 OA
HETATM   13  C   UNK N   1      29.680  17.373   6.944  0.00  0.00     0.076 C 
HETATM   14  C   UNK N   1      31.036  16.996   7.562  0.00  0.00     0.008 C 
HETATM   15  C   UNK N   1      31.991  16.734   6.383  0.00  0.00    -0.059 C 
HETATM   16  C   UNK N   1      33.226  17.257   6.351  0.00  0.00     0.059 C 
HETATM   17  C   UNK N   1      33.718  18.100   7.446  0.00  0.00     0.172 C 
HETATM   18  O   UNK N   1      34.890  18.430   7.488  0.00  0.00    -0.289 OA
HETATM   19  C   UNK N   1      32.779  18.555   8.479  0.00  0.00     0.052 C 
HETATM   20  C   UNK N   1      31.535  18.059   8.528  0.00  0.00    -0.008 C 
HETATM   21  C   UNK N   1      30.862  15.719   8.365  0.00  0.00     0.025 C 
HETATM   22  C   UNK N   1      27.779  19.762   4.109  0.00  0.00     0.019 C 
ENDROOT
BRANCH   8  23
HETATM   23  C   UNK N   1      25.179  18.785   5.081  0.00  0.00     0.184 C 
HETATM   24  O   UNK N   1      25.324  19.976   5.304  0.00  0.00    -0.292 OA
BRANCH  23  25
HETATM   25  C   UNK N   1      23.795  18.266   4.813  0.00  0.00     0.245 C 
BRANCH  25  26
HETATM   26  O   UNK N   1      23.436  17.316   5.772  0.00  0.00    -0.393 OA
HETATM   27  H   UNK N   1      23.373  17.226   6.735  0.00  0.00     0.209 HD
ENDBRANCH  25  26
ENDBRANCH  23  25
ENDBRANCH   8  23
BRANCH   8  28
HETATM   28  O   UNK N   1      26.280  16.954   6.106  0.00  0.00    -0.381 OA
HETATM   29  H   UNK N   1      25.934  16.451   6.860  0.00  0.00     0.211 HD
ENDBRANCH   8  28
TORSDOF 4
ENDMDL
MODEL 4
REMARK VINA RESULT:      -6.8     13.231     15.198
REMARK  4 active torsions:
REMARK  status: ('A' for Active; 'I' for Inactive)
REMARK    1  A    between atoms: C_8  and  C_23 
REMARK    2  A    between atoms: C_8  and  O_27 
REMARK    3  A    between atoms: C_23  and  C_25 
REMARK    4  A    between atoms: C_25  and  O_26 
ROOT
HETATM    1  C   UNK N   1      30.765  26.324  -3.379  0.00  0.00     0.015 C 
HETATM    2  C   UNK N   1      29.721  26.235  -4.475  0.00  0.00     0.012 C 
HETATM    3  C   UNK N   1      28.872  24.986  -4.255  0.00  0.00     0.014 C 
HETATM    4  C   UNK N   1      27.702  24.885  -5.240  0.00  0.00     0.004 C 
HETATM    5  C   UNK N   1      28.128  24.477  -6.660  0.00  0.00     0.002 C 
HETATM    6  C   UNK N   1      28.739  23.076  -6.615  0.00  0.00     0.009 C 
HETATM    7  C   UNK N   1      27.650  22.105  -7.075  0.00  0.00     0.047 C 
HETATM    8  C   UNK N   1      26.372  22.928  -7.257  0.00  0.00     0.128 C 
HETATM    9  C   UNK N   1      26.921  24.328  -7.623  0.00  0.00     0.005 C 
HETATM   10  C   UNK N   1      25.901  25.504  -7.570  0.00  0.00     0.091 C 
HETATM   11  C   UNK N   1      25.710  26.037  -6.183  0.00  0.00     0.133 C 
HETATM   12  O   UNK N   1      24.597  26.215  -5.714  0.00  0.00    -0.297 OA
HETATM   13  C   UNK N   1      26.944  26.198  -5.366  0.00  0.00     0.076 C 
HETATM   14  C   UNK N   1      27.344  27.404  -4.501  0.00  0.00     0.008 C 
HETATM   15  C   UNK N   1      28.880  27.494  -4.568  0.00  0.00    -0.059 C 
HETATM   16  C   UNK N   1      29.505  28.659  -4.797  0.00  0.00     0.059 C 
HETATM   17  C   UNK N   1      28.746  29.899  -4.988  0.00  0.00     0.172 C 
HETATM   18  O   UNK N   1      29.321  30.972  -5.027  0.00  0.00    -0.289 OA
HETATM   19  C   UNK N   1      27.288  29.831  -5.150  0.00  0.00     0.052 C 
HETATM   20  C   UNK N   1      26.639  28.677  -4.940  0.00  0.00    -0.008 C 
HETATM   21  C   UNK N   1      26.916  27.135  -3.069  0.00  0.00     0.025 C 
HETATM   22  C   UNK N   1      27.480  24.323  -9.048  0.00  0.00     0.019 C 
ENDROOT
BRANCH   8  23
HETATM   23  C   UNK N   1      25.431  22.347  -8.299  0.00  0.00     0.184 C 
HETATM   24  O   UNK N   1      24.347  22.874  -8.489  0.00  0.00    -0.292 OA
BRANCH  23  25
HETATM   25  C   UNK N   1      25.805  21.150  -9.125  0.00  0.00     0.245 C 
BRANCH  25  26
HETATM   26  O   UNK N   1      25.075  21.129 -10.314  0.00  0.00    -0.393 OA
HETATM   27  H   UNK N   1      25.223  21.086 -11.271  0.00  0.00     0.209 HD
ENDBRANCH  25  26
ENDBRANCH  23  25
ENDBRANCH   8  23
BRANCH   8  28
HETATM   28  O   UNK N   1      25.705  22.963  -6.028  0.00  0.00    -0.381 OA
HETATM   29  H   UNK N   1      25.349  22.707  -5.162  0.00  0.00     0.211 HD
ENDBRANCH   8  28
TORSDOF 4
ENDMDL
MODEL 5
REMARK VINA RESULT:      -6.8      4.481      7.251
REMARK  4 active torsions:
REMARK  status: ('A' for Active; 'I' for Inactive)
REMARK    1  A    between atoms: C_8  and  C_23 
REMARK    2  A    between atoms: C_8  and  O_27 
REMARK    3  A    between atoms: C_23  and  C_25 
REMARK    4  A    between atoms: C_25  and  O_26 
ROOT
HETATM    1  C   UNK N   1      34.102  15.220   4.534  0.00  0.00     0.015 C 
HETATM    2  C   UNK N   1      34.020  14.987   6.030  0.00  0.00     0.012 C 
HETATM    3  C   UNK N   1      35.423  15.070   6.624  0.00  0.00     0.014 C 
HETATM    4  C   UNK N   1      35.423  14.982   8.155  0.00  0.00     0.004 C 
HETATM    5  C   UNK N   1      35.163  13.563   8.688  0.00  0.00     0.002 C 
HETATM    6  C   UNK N   1      36.295  12.643   8.232  0.00  0.00     0.009 C 
HETATM    7  C   UNK N   1      37.252  12.499   9.416  0.00  0.00     0.047 C 
HETATM    8  C   UNK N   1      36.745  13.442  10.510  0.00  0.00     0.128 C 
HETATM    9  C   UNK N   1      35.222  13.490  10.236  0.00  0.00     0.005 C 
HETATM   10  C   UNK N   1      34.425  14.610  10.970  0.00  0.00     0.091 C 
HETATM   11  C   UNK N   1      34.506  15.928  10.263  0.00  0.00     0.133 C 
HETATM   12  O   UNK N   1      34.781  16.957  10.861  0.00  0.00    -0.297 OA
HETATM   13  C   UNK N   1      34.375  15.889   8.781  0.00  0.00     0.076 C 
HETATM   14  C   UNK N   1      33.518  16.804   7.891  0.00  0.00     0.008 C 
HETATM   15  C   UNK N   1      33.052  15.941   6.704  0.00  0.00    -0.059 C 
HETATM   16  C   UNK N   1      31.773  15.940   6.297  0.00  0.00     0.059 C 
HETATM   17  C   UNK N   1      30.767  16.771   6.967  0.00  0.00     0.172 C 
HETATM   18  O   UNK N   1      29.653  16.892   6.488  0.00  0.00    -0.289 OA
HETATM   19  C   UNK N   1      31.111  17.438   8.229  0.00  0.00     0.052 C 
HETATM   20  C   UNK N   1      32.377  17.444   8.666  0.00  0.00    -0.008 C 
HETATM   21  C   UNK N   1      34.392  17.936   7.380  0.00  0.00     0.025 C 
HETATM   22  C   UNK N   1      34.567  12.171  10.651  0.00  0.00     0.019 C 
ENDROOT
BRANCH   8  23
HETATM   23  C   UNK N   1      37.101  12.976  11.912  0.00  0.00     0.184 C 
HETATM   24  O   UNK N   1      37.914  12.077  12.058  0.00  0.00    -0.292 OA
BRANCH  23  25
HETATM   25  C   UNK N   1      36.498  13.607  13.134  0.00  0.00     0.245 C 
BRANCH  25  26
HETATM   26  O   UNK N   1      36.896  14.941  13.242  0.00  0.00    -0.393 OA
HETATM   27  H   UNK N   1      37.075  15.605  13.925  0.00  0.00     0.209 HD
ENDBRANCH  25  26
ENDBRANCH  23  25
ENDBRANCH   8  23
BRANCH   8  28
HETATM   28  O   UNK N   1      37.326  14.697  10.299  0.00  0.00    -0.381 OA
HETATM   29  H   UNK N   1      37.978  15.400  10.150  0.00  0.00     0.211 HD
ENDBRANCH   8  28
TORSDOF 4
ENDMDL
MODEL 6
REMARK VINA RESULT:      -6.7      2.961      4.916
REMARK  4 active torsions:
REMARK  status: ('A' for Active; 'I' for Inactive)
REMARK    1  A    between atoms: C_8  and  C_23 
REMARK    2  A    between atoms: C_8  and  O_27 
REMARK    3  A    between atoms: C_23  and  C_25 
REMARK    4  A    between atoms: C_25  and  O_26 
ROOT
HETATM    1  C   UNK N   1      30.097  15.039   2.998  0.00  0.00     0.015 C 
HETATM    2  C   UNK N   1      30.400  15.147   4.480  0.00  0.00     0.012 C 
HETATM    3  C   UNK N   1      31.619  16.043   4.676  0.00  0.00     0.014 C 
HETATM    4  C   UNK N   1      31.918  16.319   6.154  0.00  0.00     0.004 C 
HETATM    5  C   UNK N   1      32.544  15.122   6.888  0.00  0.00     0.002 C 
HETATM    6  C   UNK N   1      33.899  14.802   6.256  0.00  0.00     0.009 C 
HETATM    7  C   UNK N   1      34.965  15.423   7.159  0.00  0.00     0.047 C 
HETATM    8  C   UNK N   1      34.223  16.216   8.238  0.00  0.00     0.128 C 
HETATM    9  C   UNK N   1      32.887  15.445   8.366  0.00  0.00     0.005 C 
HETATM   10  C   UNK N   1      31.751  16.161   9.155  0.00  0.00     0.091 C 
HETATM   11  C   UNK N   1      31.000  17.146   8.311  0.00  0.00     0.133 C 
HETATM   12  O   UNK N   1      30.780  18.283   8.701  0.00  0.00    -0.297 OA
HETATM   13  C   UNK N   1      30.668  16.709   6.928  0.00  0.00     0.076 C 
HETATM   14  C   UNK N   1      29.323  16.852   6.198  0.00  0.00     0.008 C 
HETATM   15  C   UNK N   1      29.199  15.625   5.275  0.00  0.00    -0.059 C 
HETATM   16  C   UNK N   1      28.070  14.902   5.216  0.00  0.00     0.059 C 
HETATM   17  C   UNK N   1      26.903  15.258   6.030  0.00  0.00     0.172 C 
HETATM   18  O   UNK N   1      25.834  14.702   5.848  0.00  0.00    -0.289 OA
HETATM   19  C   UNK N   1      27.041  16.277   7.079  0.00  0.00     0.052 C 
HETATM   20  C   UNK N   1      28.163  17.005   7.168  0.00  0.00    -0.008 C 
HETATM   21  C   UNK N   1      29.363  18.115   5.356  0.00  0.00     0.025 C 
HETATM   22  C   UNK N   1      33.113  14.109   9.078  0.00  0.00     0.019 C 
ENDROOT
BRANCH   8  23
HETATM   23  C   UNK N   1      34.998  16.322   9.541  0.00  0.00     0.184 C 
HETATM   24  O   UNK N   1      34.792  17.265  10.287  0.00  0.00    -0.292 OA
BRANCH  23  25
HETATM   25  C   UNK N   1      36.000  15.282   9.953  0.00  0.00     0.245 C 
BRANCH  25  26
HETATM   26  O   UNK N   1      37.063  15.873  10.638  0.00  0.00    -0.393 OA
HETATM   27  H   UNK N   1      37.220  16.462  11.392  0.00  0.00     0.209 HD
ENDBRANCH  25  26
ENDBRANCH  23  25
ENDBRANCH   8  23
BRANCH   8  28
HETATM   28  O   UNK N   1      34.004  17.508   7.747  0.00  0.00    -0.381 OA
HETATM   29  H   UNK N   1      33.833  18.253   7.148  0.00  0.00     0.211 HD
ENDBRANCH   8  28
TORSDOF 4
ENDMDL
MODEL 7
REMARK VINA RESULT:      -6.7      5.441      8.920
REMARK  4 active torsions:
REMARK  status: ('A' for Active; 'I' for Inactive)
REMARK    1  A    between atoms: C_8  and  C_23 
REMARK    2  A    between atoms: C_8  and  O_27 
REMARK    3  A    between atoms: C_23  and  C_25 
REMARK    4  A    between atoms: C_25  and  O_26 
ROOT
HETATM    1  C   UNK N   1      36.590  14.441  14.152  0.00  0.00     0.015 C 
HETATM    2  C   UNK N   1      35.631  14.196  13.003  0.00  0.00     0.012 C 
HETATM    3  C   UNK N   1      36.284  14.654  11.702  0.00  0.00     0.014 C 
HETATM    4  C   UNK N   1      35.440  14.319  10.467  0.00  0.00     0.004 C 
HETATM    5  C   UNK N   1      34.211  15.229  10.298  0.00  0.00     0.002 C 
HETATM    6  C   UNK N   1      34.681  16.668  10.087  0.00  0.00     0.009 C 
HETATM    7  C   UNK N   1      34.612  16.940   8.583  0.00  0.00     0.047 C 
HETATM    8  C   UNK N   1      34.231  15.617   7.913  0.00  0.00     0.128 C 
HETATM    9  C   UNK N   1      33.406  14.906   9.013  0.00  0.00     0.005 C 
HETATM   10  C   UNK N   1      33.120  13.391   8.789  0.00  0.00     0.091 C 
HETATM   11  C   UNK N   1      34.266  12.523   9.211  0.00  0.00     0.133 C 
HETATM   12  O   UNK N   1      34.702  11.643   8.484  0.00  0.00    -0.297 OA
HETATM   13  C   UNK N   1      34.929  12.887  10.493  0.00  0.00     0.076 C 
HETATM   14  C   UNK N   1      35.336  11.945  11.638  0.00  0.00     0.008 C 
HETATM   15  C   UNK N   1      35.173  12.751  12.940  0.00  0.00    -0.059 C 
HETATM   16  C   UNK N   1      34.549  12.235  14.010  0.00  0.00     0.059 C 
HETATM   17  C   UNK N   1      34.001  10.875  13.983  0.00  0.00     0.172 C 
HETATM   18  O   UNK N   1      33.589  10.358  15.006  0.00  0.00    -0.289 OA
HETATM   19  C   UNK N   1      33.937  10.152  12.706  0.00  0.00     0.052 C 
HETATM   20  C   UNK N   1      34.540  10.650  11.618  0.00  0.00    -0.008 C 
HETATM   21  C   UNK N   1      36.796  11.567  11.457  0.00  0.00     0.025 C 
HETATM   22  C   UNK N   1      32.036  15.572   9.161  0.00  0.00     0.019 C 
ENDROOT
BRANCH   8  23
HETATM   23  C   UNK N   1      33.479  15.805   6.606  0.00  0.00     0.184 C 
HETATM   24  O   UNK N   1      33.258  14.837   5.896  0.00  0.00    -0.292 OA
BRANCH  23  25
HETATM   25  C   UNK N   1      32.975  17.150   6.168  0.00  0.00     0.245 C 
BRANCH  25  26
HETATM   26  O   UNK N   1      33.987  17.865   5.525  0.00  0.00    -0.393 OA
HETATM   27  H   UNK N   1      34.948  17.980   5.563  0.00  0.00     0.209 HD
ENDBRANCH  25  26
ENDBRANCH  23  25
ENDBRANCH   8  23
BRANCH   8  28
HETATM   28  O   UNK N   1      35.412  14.914   7.648  0.00  0.00    -0.381 OA
HETATM   29  H   UNK N   1      36.154  14.294   7.722  0.00  0.00     0.211 HD
ENDBRANCH   8  28
TORSDOF 4
ENDMDL
MODEL 8
REMARK VINA RESULT:      -6.6      4.659      7.316
REMARK  4 active torsions:
REMARK  status: ('A' for Active; 'I' for Inactive)
REMARK    1  A    between atoms: C_8  and  C_23 
REMARK    2  A    between atoms: C_8  and  O_27 
REMARK    3  A    between atoms: C_23  and  C_25 
REMARK    4  A    between atoms: C_25  and  O_26 
ROOT
HETATM    1  C   UNK N   1      34.265  18.688   7.938  0.00  0.00     0.015 C 
HETATM    2  C   UNK N   1      34.518  17.203   8.113  0.00  0.00     0.012 C 
HETATM    3  C   UNK N   1      34.168  16.803   9.543  0.00  0.00     0.014 C 
HETATM    4  C   UNK N   1      34.265  15.291   9.775  0.00  0.00     0.004 C 
HETATM    5  C   UNK N   1      35.711  14.775   9.869  0.00  0.00     0.002 C 
HETATM    6  C   UNK N   1      36.390  15.413  11.081  0.00  0.00     0.009 C 
HETATM    7  C   UNK N   1      36.353  14.375  12.205  0.00  0.00     0.047 C 
HETATM    8  C   UNK N   1      35.534  13.191  11.685  0.00  0.00     0.128 C 
HETATM    9  C   UNK N   1      35.780  13.253  10.158  0.00  0.00     0.005 C 
HETATM   10  C   UNK N   1      34.842  12.380   9.272  0.00  0.00     0.091 C 
HETATM   11  C   UNK N   1      33.528  13.047   8.999  0.00  0.00     0.133 C 
HETATM   12  O   UNK N   1      32.469  12.458   9.153  0.00  0.00    -0.297 OA
HETATM   13  C   UNK N   1      33.583  14.497   8.671  0.00  0.00     0.076 C 
HETATM   14  C   UNK N   1      32.846  15.231   7.538  0.00  0.00     0.008 C 
HETATM   15  C   UNK N   1      33.776  16.371   7.084  0.00  0.00    -0.059 C 
HETATM   16  C   UNK N   1      34.022  16.600   5.785  0.00  0.00     0.059 C 
HETATM   17  C   UNK N   1      33.408  15.772   4.742  0.00  0.00     0.172 C 
HETATM   18  O   UNK N   1      33.503  16.089   3.570  0.00  0.00    -0.289 OA
HETATM   19  C   UNK N   1      32.694  14.547   5.126  0.00  0.00     0.052 C 
HETATM   20  C   UNK N   1      32.445  14.286   6.416  0.00  0.00    -0.008 C 
HETATM   21  C   UNK N   1      31.563  15.818   8.098  0.00  0.00     0.025 C 
HETATM   22  C   UNK N   1      37.205  12.797   9.833  0.00  0.00     0.019 C 
ENDROOT
BRANCH   8  23
HETATM   23  C   UNK N   1      35.930  11.867  12.317  0.00  0.00     0.184 C 
HETATM   24  O   UNK N   1      36.881  11.828  13.081  0.00  0.00    -0.292 OA
BRANCH  23  25
HETATM   25  C   UNK N   1      35.169  10.601  12.048  0.00  0.00     0.245 C 
BRANCH  25  26
HETATM   26  O   UNK N   1      33.809  10.784  12.306  0.00  0.00    -0.393 OA
HETATM   27  H   UNK N   1      33.149  11.494  12.318  0.00  0.00     0.209 HD
ENDBRANCH  25  26
ENDBRANCH  23  25
ENDBRANCH   8  23
BRANCH   8  28
HETATM   28  O   UNK N   1      34.188  13.437  11.979  0.00  0.00    -0.381 OA
HETATM   29  H   UNK N   1      33.245  13.647  11.887  0.00  0.00     0.211 HD
ENDBRANCH   8  28
TORSDOF 4
ENDMDL
MODEL 9
REMARK VINA RESULT:      -6.5     15.349     18.016
REMARK  4 active torsions:
REMARK  status: ('A' for Active; 'I' for Inactive)
REMARK    1  A    between atoms: C_8  and  C_23 
REMARK    2  A    between atoms: C_8  and  O_27 
REMARK    3  A    between atoms: C_23  and  C_25 
REMARK    4  A    between atoms: C_25  and  O_26 
ROOT
HETATM    1  C   UNK N   1      36.218   8.655  16.196  0.00  0.00     0.015 C 
HETATM    2  C   UNK N   1      35.240   8.868  17.335  0.00  0.00     0.012 C 
HETATM    3  C   UNK N   1      35.441   7.771  18.377  0.00  0.00     0.014 C 
HETATM    4  C   UNK N   1      34.587   7.984  19.632  0.00  0.00     0.004 C 
HETATM    5  C   UNK N   1      33.097   7.663  19.422  0.00  0.00     0.002 C 
HETATM    6  C   UNK N   1      32.950   6.180  19.080  0.00  0.00     0.009 C 
HETATM    7  C   UNK N   1      32.528   5.470  20.368  0.00  0.00     0.047 C 
HETATM    8  C   UNK N   1      32.563   6.519  21.482  0.00  0.00     0.128 C 
HETATM    9  C   UNK N   1      32.265   7.832  20.720  0.00  0.00     0.005 C 
HETATM   10  C   UNK N   1      32.534   9.156  21.495  0.00  0.00     0.091 C 
HETATM   11  C   UNK N   1      33.976   9.561  21.454  0.00  0.00     0.133 C 
HETATM   12  O   UNK N   1      34.579   9.880  22.467  0.00  0.00    -0.297 OA
HETATM   13  C   UNK N   1      34.663   9.415  20.142  0.00  0.00     0.076 C 
HETATM   14  C   UNK N   1      35.582  10.432  19.446  0.00  0.00     0.008 C 
HETATM   15  C   UNK N   1      35.354  10.258  17.933  0.00  0.00    -0.059 C 
HETATM   16  C   UNK N   1      35.162  11.314  17.127  0.00  0.00     0.059 C 
HETATM   17  C   UNK N   1      35.167  12.681  17.658  0.00  0.00     0.172 C 
HETATM   18  O   UNK N   1      35.161  13.634  16.900  0.00  0.00    -0.289 OA
HETATM   19  C   UNK N   1      35.163  12.886  19.112  0.00  0.00     0.052 C 
HETATM   20  C   UNK N   1      35.340  11.849  19.942  0.00  0.00    -0.008 C 
HETATM   21  C   UNK N   1      37.023  10.089  19.782  0.00  0.00     0.025 C 
HETATM   22  C   UNK N   1      30.792   7.883  20.306  0.00  0.00     0.019 C 
ENDROOT
BRANCH   8  23
HETATM   23  C   UNK N   1      31.584   6.227  22.607  0.00  0.00     0.184 C 
HETATM   24  O   UNK N   1      30.772   5.325  22.478  0.00  0.00    -0.292 OA
BRANCH  23  25
HETATM   25  C   UNK N   1      31.598   7.005  23.892  0.00  0.00     0.245 C 
BRANCH  25  26
HETATM   26  O   UNK N   1      32.860   6.941  24.487  0.00  0.00    -0.393 OA
HETATM   27  H   UNK N   1      33.455   6.290  24.888  0.00  0.00     0.209 HD
ENDBRANCH  25  26
ENDBRANCH  23  25
ENDBRANCH   8  23
BRANCH   8  28
HETATM   28  O   UNK N   1      33.857   6.537  22.014  0.00  0.00    -0.381 OA
HETATM   29  H   UNK N   1      34.630   6.352  22.570  0.00  0.00     0.211 HD
ENDBRANCH   8  28
TORSDOF 4
ENDMDL
