REMARK  15 active torsions:
REMARK  status: ('A' for Active; 'I' for Inactive)
REMARK    1  A    between atoms: C_2  and  O_3 
REMARK    2  A    between atoms: O_3  and  C_4 
REMARK    3  A    between atoms: C_4  and  O_6 
REMARK    4  A    between atoms: O_6  and  C_7 
REMARK    5  A    between atoms: C_8  and  C_7 
REMARK    6  A    between atoms: C_9  and  O_38 
REMARK    7  A    between atoms: C_10  and  O_37 
REMARK    8  A    between atoms: C_11  and  O_36 
REMARK    9  A    between atoms: C_12  and  O_14 
REMARK   10  A    between atoms: O_14  and  C_15 
REMARK   11  A    between atoms: C_16  and  C_25 
REMARK   12  A    between atoms: N_18  and  C_21 
REMARK   13  A    between atoms: C_25  and  C_26 
REMARK   14  A    between atoms: C_29  and  O_32 
REMARK   15  A    between atoms: O_32  and  C_33 
ROOT
HETATM    1  C   UNK N   1       9.806  -8.039  -1.048  0.00  0.00     0.168 A 
HETATM    2  C   UNK N   1      10.922  -8.557  -0.417  0.00  0.00     0.022 A 
HETATM    3  C   UNK N   1      10.572  -9.881  -0.146  0.00  0.00     0.036 A 
HETATM    4  N   UNK N   1       9.312 -10.093  -0.579  0.00  0.00    -0.290 N 
HETATM    5  N   UNK N   1       8.842  -8.979  -1.133  0.00  0.00    -0.277 N 
ATOM      6  HN  UNK N   1       7.919  -8.857  -1.549  1.00  0.00     0.189 HD
HETATM    7  C   UNK N   1      11.400 -10.954   0.479  0.00  0.00     0.070 C 
ENDROOT
BRANCH   1   8
HETATM    8  O   UNK N   1       9.733  -6.815  -1.622  0.00  0.00    -0.300 OA
BRANCH   8   9
HETATM    9  C   UNK N   1       9.150  -5.691  -1.073  0.00  0.00     0.300 C 
HETATM   10  C   UNK N   1       9.866  -5.177   0.184  0.00  0.00     0.205 C 
HETATM   11  C   UNK N   1       9.129  -3.918   0.587  0.00  0.00     0.183 C 
HETATM   12  C   UNK N   1       7.678  -4.238   0.929  0.00  0.00     0.180 C 
HETATM   13  C   UNK N   1       7.167  -5.513   0.231  0.00  0.00     0.180 C 
HETATM   14  O   UNK N   1       7.726  -5.757  -1.051  0.00  0.00    -0.348 OA
BRANCH  10  15
HETATM   15  O   UNK N   1      11.190  -4.866  -0.133  0.00  0.00    -0.388 OA
HETATM   16  H   UNK N   1      11.836  -5.555  -0.354  0.00  0.00     0.210 HD
ENDBRANCH  10  15
BRANCH  11  17
HETATM   17  O   UNK N   1       9.750  -3.283   1.663  0.00  0.00    -0.390 OA
HETATM   18  H   UNK N   1      10.347  -3.436   2.412  0.00  0.00     0.210 HD
ENDBRANCH  11  17
BRANCH  12  19
HETATM   19  O   UNK N   1       6.881  -3.145   0.590  0.00  0.00    -0.390 OA
HETATM   20  H   UNK N   1       7.263  -2.285   0.355  0.00  0.00     0.210 HD
ENDBRANCH  12  19
BRANCH  13  21
HETATM   21  C   UNK N   1       7.235  -6.743   1.132  0.00  0.00     0.215 C 
BRANCH  21  22
HETATM   22  O   UNK N   1       6.660  -7.837   0.517  0.00  0.00    -0.295 OA
BRANCH  22  23
HETATM   23  C   UNK N   1       5.353  -7.892   0.159  0.00  0.00     0.406 C 
HETATM   24  O   UNK N   1       4.928  -8.896  -0.394  0.00  0.00    -0.230 OA
BRANCH  23  25
HETATM   25  O   UNK N   1       4.530  -6.837   0.396  0.00  0.00    -0.298 OA
BRANCH  25  26
HETATM   26  C   UNK N   1       3.207  -6.834   0.020  0.00  0.00     0.176 C 
HETATM   27  C   UNK N   1       2.582  -5.504   0.384  0.00  0.00     0.034 C 
ENDBRANCH  25  26
ENDBRANCH  23  25
ENDBRANCH  22  23
ENDBRANCH  21  22
ENDBRANCH  13  21
ENDBRANCH   8   9
ENDBRANCH   1   8
BRANCH   2  28
HETATM   28  C   UNK N   1      12.201  -7.778  -0.164  0.00  0.00     0.083 C 
BRANCH  28  29
HETATM   29  C   UNK N   1      13.421  -8.626  -0.073  0.00  0.00    -0.054 A 
HETATM   30  C   UNK N   1      14.271  -8.722  -1.176  0.00  0.00     0.010 A 
HETATM   31  C   UNK N   1      15.312  -9.650  -1.174  0.00  0.00     0.037 A 
HETATM   32  C   UNK N   1      15.486 -10.506  -0.083  0.00  0.00     0.069 A 
HETATM   33  C   UNK N   1      14.684 -10.352   1.059  0.00  0.00     0.037 A 
HETATM   34  C   UNK N   1      13.668  -9.396   1.070  0.00  0.00     0.010 A 
BRANCH  32  35
HETATM   35  O   UNK N   1      16.359 -11.534  -0.201  0.00  0.00    -0.347 OA
BRANCH  35  36
HETATM   36  C   UNK N   1      16.049 -12.848   0.129  0.00  0.00     0.120 C 
HETATM   37  C   UNK N   1      16.405 -13.194   1.558  0.00  0.00     0.040 C 
HETATM   38  C   UNK N   1      14.606 -13.228  -0.205  0.00  0.00     0.040 C 
ENDBRANCH  35  36
ENDBRANCH  32  35
ENDBRANCH  28  29
ENDBRANCH   2  28
BRANCH   4  39
HETATM   39  C   UNK N   1       8.587 -11.370  -0.503  0.00  0.00     0.100 C 
HETATM   40  C   UNK N   1       7.195 -11.275  -1.100  0.00  0.00     0.034 C 
HETATM   41  C   UNK N   1       8.475 -11.852   0.934  0.00  0.00     0.034 C 
ENDBRANCH   4  39
TORSDOF 15
