MODEL 1
REMARK VINA RESULT:      -7.8      0.000      0.000
REMARK  2 active torsions:
REMARK  status: ('A' for Active; 'I' for Inactive)
REMARK    1  A    between atoms: C_6  and  C_23 
REMARK       I    between atoms: C_9  and  N_17 
REMARK    2  A    between atoms: N_13  and  C_14 
REMARK       I    between atoms: C_27  and  N_31 
ROOT
HETATM    1  C   UNK N   1      21.778  12.552  10.331  0.00  0.00     0.089 C 
HETATM    2  C   UNK N   1      21.360  13.454   9.220  0.00  0.00     0.081 A 
HETATM    3  N   UNK N   1      20.636  14.583   9.435  0.00  0.00    -0.341 N 
ATOM      4  HN  UNK N   1      20.299  14.951  10.325  1.00  0.00     0.167 HD
HETATM    5  C   UNK N   1      20.466  15.104   8.207  0.00  0.00     0.107 A 
HETATM    6  C   UNK N   1      19.799  16.263   7.810  0.00  0.00     0.092 A 
HETATM    7  N   UNK N   1      19.791  16.546   6.475  0.00  0.00    -0.188 N 
ATOM      8  HN  UNK N   1      19.312  17.387   6.153  1.00  0.00     0.184 HD
HETATM    9  C   UNK N   1      20.403  15.740   5.548  0.00  0.00     0.682 A 
HETATM   10  N   UNK N   1      21.055  14.604   5.958  0.00  0.00    -0.174 N 
ATOM     11  HN  UNK N   1      21.517  13.994   5.284  1.00  0.00     0.186 HD
HETATM   12  C   UNK N   1      21.069  14.314   7.285  0.00  0.00     0.154 A 
HETATM   13  N   UNK N   1      21.643  13.261   7.897  0.00  0.00    -0.317 N 
HETATM   14  N   UNK N   1      20.374  16.111   4.175  0.00  0.00    -0.213 N 
HETATM   15  C   UNK N   1      19.664  17.329   3.799  0.00  0.00     0.167 C 
HETATM   16  C   UNK N   1      19.927  17.733   2.351  0.00  0.00     0.188 C 
HETATM   17  O   UNK N   1      19.896  16.599   1.535  0.00  0.00    -0.388 OA
HETATM   18  C   UNK N   1      21.098  15.937   1.810  0.00  0.00     0.188 C 
HETATM   19  C   UNK N   1      21.023  15.263   3.184  0.00  0.00     0.167 C 
ENDROOT
BRANCH   6  20
HETATM   20  C   UNK N   1      19.113  17.188   8.742  0.00  0.00     0.025 A 
HETATM   21  C   UNK N   1      19.743  18.309   9.287  0.00  0.00     0.121 A 
HETATM   22  N   UNK N   1      19.066  19.122  10.140  0.00  0.00    -0.201 N 
HETATM   23  C   UNK N   1      17.773  18.861  10.474  0.00  0.00     0.675 A 
ATOM     24  HN  UNK N   1      19.532  19.939  10.535  1.00  0.00     0.183 HD
HETATM   25  N   UNK N   1      17.141  17.778   9.954  0.00  0.00    -0.201 N 
HETATM   26  N   UNK N   1      17.088  19.715  11.360  0.00  0.00    -0.234 N 
HETATM   27  C   UNK N   1      17.784  16.944   9.100  0.00  0.00     0.121 A 
ATOM     28  HN  UNK N   1      16.172  17.590  10.209  1.00  0.00     0.183 HD
HETATM   29  H   UNK N   1      16.153  19.526  11.600  0.00  0.00     0.174 HD
HETATM   30  H   UNK N   1      17.545  20.500  11.739  0.00  0.00     0.174 HD
ENDBRANCH   6  20
BRANCH  13  31
HETATM   31  C   UNK N   1      22.400  12.162   7.271  0.00  0.00     0.085 C 
HETATM   32  C   UNK N   1      23.911  12.088   7.402  0.00  0.00     0.032 C 
HETATM   33  C   UNK N   1      21.667  11.103   6.466  0.00  0.00     0.032 C 
ENDBRANCH  13  31
TORSDOF 2
ENDMDL
MODEL 2
REMARK VINA RESULT:      -7.2     10.687     13.113
REMARK  2 active torsions:
REMARK  status: ('A' for Active; 'I' for Inactive)
REMARK    1  A    between atoms: C_6  and  C_23 
REMARK       I    between atoms: C_9  and  N_17 
REMARK    2  A    between atoms: N_13  and  C_14 
REMARK       I    between atoms: C_27  and  N_31 
ROOT
HETATM    1  C   UNK N   1      28.797  18.309   9.432  0.00  0.00     0.089 C 
HETATM    2  C   UNK N   1      29.803  17.531   8.654  0.00  0.00     0.081 A 
HETATM    3  N   UNK N   1      30.990  17.141   9.189  0.00  0.00    -0.341 N 
ATOM      4  HN  UNK N   1      31.337  17.310  10.133  1.00  0.00     0.167 HD
HETATM    5  C   UNK N   1      31.599  16.478   8.190  0.00  0.00     0.107 A 
HETATM    6  C   UNK N   1      32.846  15.854   8.158  0.00  0.00     0.092 A 
HETATM    7  N   UNK N   1      33.207  15.252   6.988  0.00  0.00    -0.188 N 
ATOM      8  HN  UNK N   1      34.112  14.785   6.934  1.00  0.00     0.184 HD
HETATM    9  C   UNK N   1      32.397  15.250   5.881  0.00  0.00     0.682 A 
HETATM   10  N   UNK N   1      31.173  15.869   5.931  0.00  0.00    -0.174 N 
ATOM     11  HN  UNK N   1      30.557  15.877   5.118  1.00  0.00     0.186 HD
HETATM   12  C   UNK N   1      30.804  16.472   7.091  0.00  0.00     0.154 A 
HETATM   13  N   UNK N   1      29.661  17.131   7.356  0.00  0.00    -0.317 N 
HETATM   14  N   UNK N   1      32.829  14.580   4.703  0.00  0.00    -0.213 N 
HETATM   15  C   UNK N   1      34.141  13.940   4.708  0.00  0.00     0.167 C 
HETATM   16  C   UNK N   1      34.363  13.057   3.484  0.00  0.00     0.188 C 
HETATM   17  O   UNK N   1      33.882  13.707   2.343  0.00  0.00    -0.388 OA
HETATM   18  C   UNK N   1      32.490  13.610   2.447  0.00  0.00     0.188 C 
HETATM   19  C   UNK N   1      31.975  14.571   3.522  0.00  0.00     0.167 C 
ENDROOT
BRANCH   6  20
HETATM   20  C   UNK N   1      33.781  15.808   9.305  0.00  0.00     0.025 A 
HETATM   21  C   UNK N   1      34.614  16.879   9.641  0.00  0.00     0.121 A 
HETATM   22  N   UNK N   1      35.455  16.780  10.704  0.00  0.00    -0.201 N 
HETATM   23  C   UNK N   1      35.500  15.647  11.454  0.00  0.00     0.675 A 
ATOM     24  HN  UNK N   1      36.061  17.565  10.942  1.00  0.00     0.183 HD
HETATM   25  N   UNK N   1      34.699  14.594  11.148  0.00  0.00    -0.201 N 
HETATM   26  N   UNK N   1      36.379  15.562  12.552  0.00  0.00    -0.234 N 
HETATM   27  C   UNK N   1      33.846  14.655  10.095  0.00  0.00     0.121 A 
ATOM     28  HN  UNK N   1      34.738  13.748  11.716  1.00  0.00     0.183 HD
HETATM   29  H   UNK N   1      36.411  14.742  13.095  0.00  0.00     0.174 HD
HETATM   30  H   UNK N   1      36.962  16.323  12.775  0.00  0.00     0.174 HD
ENDBRANCH   6  20
BRANCH  13  31
HETATM   31  C   UNK N   1      28.525  17.360   6.444  0.00  0.00     0.085 C 
HETATM   32  C   UNK N   1      28.542  18.521   5.464  0.00  0.00     0.032 C 
HETATM   33  C   UNK N   1      27.315  16.444   6.497  0.00  0.00     0.032 C 
ENDBRANCH  13  31
TORSDOF 2
ENDMDL
MODEL 3
REMARK VINA RESULT:      -7.2     11.356     13.897
REMARK  2 active torsions:
REMARK  status: ('A' for Active; 'I' for Inactive)
REMARK    1  A    between atoms: C_6  and  C_23 
REMARK       I    between atoms: C_9  and  N_17 
REMARK    2  A    between atoms: N_13  and  C_14 
REMARK       I    between atoms: C_27  and  N_31 
ROOT
HETATM    1  C   UNK N   1      36.084  13.928   4.894  0.00  0.00     0.089 C 
HETATM    2  C   UNK N   1      35.044  14.547   5.764  0.00  0.00     0.081 A 
HETATM    3  N   UNK N   1      35.200  14.665   7.109  0.00  0.00    -0.341 N 
ATOM      4  HN  UNK N   1      35.996  14.369   7.675  1.00  0.00     0.167 HD
HETATM    5  C   UNK N   1      34.068  15.261   7.521  0.00  0.00     0.107 A 
HETATM    6  C   UNK N   1      33.667  15.634   8.804  0.00  0.00     0.092 A 
HETATM    7  N   UNK N   1      32.446  16.231   8.922  0.00  0.00    -0.188 N 
ATOM      8  HN  UNK N   1      32.125  16.517   9.847  1.00  0.00     0.184 HD
HETATM    9  C   UNK N   1      31.632  16.462   7.842  0.00  0.00     0.682 A 
HETATM   10  N   UNK N   1      32.044  16.089   6.586  0.00  0.00    -0.174 N 
ATOM     11  HN  UNK N   1      31.453  16.254   5.772  1.00  0.00     0.186 HD
HETATM   12  C   UNK N   1      33.258  15.494   6.459  0.00  0.00     0.154 A 
HETATM   13  N   UNK N   1      33.850  15.052   5.333  0.00  0.00    -0.317 N 
HETATM   14  N   UNK N   1      30.382  17.112   8.037  0.00  0.00    -0.213 N 
HETATM   15  C   UNK N   1      29.997  17.485   9.395  0.00  0.00     0.167 C 
HETATM   16  C   UNK N   1      28.767  18.387   9.425  0.00  0.00     0.188 C 
HETATM   17  O   UNK N   1      27.820  17.919   8.510  0.00  0.00    -0.388 OA
HETATM   18  C   UNK N   1      28.336  18.277   7.259  0.00  0.00     0.188 C 
HETATM   19  C   UNK N   1      29.512  17.364   6.896  0.00  0.00     0.167 C 
ENDROOT
BRANCH   6  20
HETATM   20  C   UNK N   1      34.481  15.423  10.023  0.00  0.00     0.025 A 
HETATM   21  C   UNK N   1      35.565  16.241  10.355  0.00  0.00     0.121 A 
HETATM   22  N   UNK N   1      36.279  15.999  11.486  0.00  0.00    -0.201 N 
HETATM   23  C   UNK N   1      35.954  14.965  12.308  0.00  0.00     0.675 A 
ATOM     24  HN  UNK N   1      37.069  16.599  11.721  1.00  0.00     0.183 HD
HETATM   25  N   UNK N   1      34.904  14.159  12.006  0.00  0.00    -0.201 N 
HETATM   26  N   UNK N   1      36.706  14.729  13.475  0.00  0.00    -0.234 N 
HETATM   27  C   UNK N   1      34.167  14.369  10.887  0.00  0.00     0.121 A 
ATOM     28  HN  UNK N   1      34.666  13.387  12.629  1.00  0.00     0.183 HD
HETATM   29  H   UNK N   1      36.470  13.982  14.070  0.00  0.00     0.174 HD
HETATM   30  H   UNK N   1      37.469  15.312  13.694  0.00  0.00     0.174 HD
ENDBRANCH   6  20
BRANCH  13  31
HETATM   31  C   UNK N   1      33.319  15.107   3.959  0.00  0.00     0.085 C 
HETATM   32  C   UNK N   1      33.252  16.425   3.207  0.00  0.00     0.032 C 
HETATM   33  C   UNK N   1      32.812  13.840   3.293  0.00  0.00     0.032 C 
ENDBRANCH  13  31
TORSDOF 2
ENDMDL
MODEL 4
REMARK VINA RESULT:      -7.0      8.081     10.377
REMARK  2 active torsions:
REMARK  status: ('A' for Active; 'I' for Inactive)
REMARK    1  A    between atoms: C_6  and  C_23 
REMARK       I    between atoms: C_9  and  N_17 
REMARK    2  A    between atoms: N_13  and  C_14 
REMARK       I    between atoms: C_27  and  N_31 
ROOT
HETATM    1  C   UNK N   1      26.616  21.168   6.441  0.00  0.00     0.089 C 
HETATM    2  C   UNK N   1      27.106  19.828   6.008  0.00  0.00     0.081 A 
HETATM    3  N   UNK N   1      28.238  19.272   6.512  0.00  0.00    -0.341 N 
ATOM      4  HN  UNK N   1      28.870  19.663   7.211  1.00  0.00     0.167 HD
HETATM    5  C   UNK N   1      28.334  18.089   5.880  0.00  0.00     0.107 A 
HETATM    6  C   UNK N   1      29.298  17.087   5.993  0.00  0.00     0.092 A 
HETATM    7  N   UNK N   1      29.134  15.979   5.215  0.00  0.00    -0.188 N 
ATOM      8  HN  UNK N   1      29.821  15.228   5.277  1.00  0.00     0.184 HD
HETATM    9  C   UNK N   1      28.077  15.837   4.351  0.00  0.00     0.682 A 
HETATM   10  N   UNK N   1      27.138  16.833   4.252  0.00  0.00    -0.174 N 
ATOM     11  HN  UNK N   1      26.346  16.744   3.617  1.00  0.00     0.186 HD
HETATM   12  C   UNK N   1      27.293  17.941   5.024  0.00  0.00     0.154 A 
HETATM   13  N   UNK N   1      26.499  19.026   5.084  0.00  0.00    -0.317 N 
HETATM   14  N   UNK N   1      27.958  14.642   3.587  0.00  0.00    -0.213 N 
HETATM   15  C   UNK N   1      28.987  13.618   3.733  0.00  0.00     0.167 C 
HETATM   16  C   UNK N   1      28.603  12.305   3.057  0.00  0.00     0.188 C 
HETATM   17  O   UNK N   1      28.020  12.571   1.815  0.00  0.00    -0.388 OA
HETATM   18  C   UNK N   1      26.743  13.052   2.123  0.00  0.00     0.188 C 
HETATM   19  C   UNK N   1      26.838  14.480   2.669  0.00  0.00     0.167 C 
ENDROOT
BRANCH   6  20
HETATM   20  C   UNK N   1      30.467  17.159   6.900  0.00  0.00     0.025 A 
HETATM   21  C   UNK N   1      30.340  17.187   8.291  0.00  0.00     0.121 A 
HETATM   22  N   UNK N   1      31.448  17.256   9.074  0.00  0.00    -0.201 N 
HETATM   23  C   UNK N   1      32.691  17.297   8.523  0.00  0.00     0.675 A 
ATOM     24  HN  UNK N   1      31.348  17.276  10.089  1.00  0.00     0.183 HD
HETATM   25  N   UNK N   1      32.838  17.269   7.173  0.00  0.00    -0.201 N 
HETATM   26  N   UNK N   1      33.828  17.369   9.350  0.00  0.00    -0.234 N 
HETATM   27  C   UNK N   1      31.756  17.201   6.359  0.00  0.00     0.121 A 
ATOM     28  HN  UNK N   1      33.773  17.300   6.767  1.00  0.00     0.183 HD
HETATM   29  H   UNK N   1      34.727  17.398   8.951  0.00  0.00     0.174 HD
HETATM   30  H   UNK N   1      33.723  17.391  10.329  0.00  0.00     0.174 HD
ENDBRANCH   6  20
BRANCH  13  31
HETATM   31  C   UNK N   1      25.263  19.277   4.321  0.00  0.00     0.085 C 
HETATM   32  C   UNK N   1      23.956  18.614   4.723  0.00  0.00     0.032 C 
HETATM   33  C   UNK N   1      25.296  20.188   3.105  0.00  0.00     0.032 C 
ENDBRANCH  13  31
TORSDOF 2
ENDMDL
MODEL 5
REMARK VINA RESULT:      -7.0     14.423     16.358
REMARK  2 active torsions:
REMARK  status: ('A' for Active; 'I' for Inactive)
REMARK    1  A    between atoms: C_6  and  C_23 
REMARK       I    between atoms: C_9  and  N_17 
REMARK    2  A    between atoms: N_13  and  C_14 
REMARK       I    between atoms: C_27  and  N_31 
ROOT
HETATM    1  C   UNK N   1      37.159  14.668  15.624  0.00  0.00     0.089 C 
HETATM    2  C   UNK N   1      36.469  13.991  14.489  0.00  0.00     0.081 A 
HETATM    3  N   UNK N   1      36.075  14.663  13.375  0.00  0.00    -0.341 N 
ATOM      4  HN  UNK N   1      36.188  15.655  13.169  1.00  0.00     0.167 HD
HETATM    5  C   UNK N   1      35.503  13.719  12.607  0.00  0.00     0.107 A 
HETATM    6  C   UNK N   1      34.916  13.824  11.346  0.00  0.00     0.092 A 
HETATM    7  N   UNK N   1      34.410  12.680  10.801  0.00  0.00    -0.188 N 
ATOM      8  HN  UNK N   1      33.976  12.724   9.879  1.00  0.00     0.184 HD
HETATM    9  C   UNK N   1      34.464  11.471  11.448  0.00  0.00     0.682 A 
HETATM   10  N   UNK N   1      35.045  11.386  12.688  0.00  0.00    -0.174 N 
ATOM     11  HN  UNK N   1      35.095  10.496  13.183  1.00  0.00     0.186 HD
HETATM   12  C   UNK N   1      35.552  12.520  13.239  0.00  0.00     0.154 A 
HETATM   13  N   UNK N   1      36.158  12.662  14.432  0.00  0.00    -0.317 N 
HETATM   14  N   UNK N   1      33.937  10.315  10.808  0.00  0.00    -0.213 N 
HETATM   15  C   UNK N   1      33.329  10.466   9.489  0.00  0.00     0.167 C 
HETATM   16  C   UNK N   1      33.040   9.123   8.824  0.00  0.00     0.188 C 
HETATM   17  O   UNK N   1      32.508   8.238   9.766  0.00  0.00    -0.388 OA
HETATM   18  C   UNK N   1      33.603   7.871  10.557  0.00  0.00     0.188 C 
HETATM   19  C   UNK N   1      33.991   9.026  11.485  0.00  0.00     0.167 C 
ENDROOT
BRANCH   6  20
HETATM   20  C   UNK N   1      34.817  15.087  10.579  0.00  0.00     0.025 A 
HETATM   21  C   UNK N   1      35.417  16.275  11.005  0.00  0.00     0.121 A 
HETATM   22  N   UNK N   1      35.291  17.405  10.261  0.00  0.00    -0.201 N 
HETATM   23  C   UNK N   1      34.585  17.400   9.099  0.00  0.00     0.675 A 
ATOM     24  HN  UNK N   1      35.731  18.269  10.579  1.00  0.00     0.183 HD
HETATM   25  N   UNK N   1      33.995  16.257   8.665  0.00  0.00    -0.201 N 
HETATM   26  N   UNK N   1      34.464  18.582   8.342  0.00  0.00    -0.234 N 
HETATM   27  C   UNK N   1      34.099  15.109   9.379  0.00  0.00     0.121 A 
ATOM     28  HN  UNK N   1      33.468  16.262   7.791  1.00  0.00     0.183 HD
HETATM   29  H   UNK N   1      33.954  18.578   7.501  0.00  0.00     0.174 HD
HETATM   30  H   UNK N   1      34.890  19.413   8.656  0.00  0.00     0.174 HD
ENDBRANCH   6  20
BRANCH  13  31
HETATM   31  C   UNK N   1      36.418  11.615  15.437  0.00  0.00     0.085 C 
HETATM   32  C   UNK N   1      35.626  11.571  16.732  0.00  0.00     0.032 C 
HETATM   33  C   UNK N   1      37.505  10.583  15.190  0.00  0.00     0.032 C 
ENDBRANCH  13  31
TORSDOF 2
ENDMDL
MODEL 6
REMARK VINA RESULT:      -6.9     16.416     18.293
REMARK  2 active torsions:
REMARK  status: ('A' for Active; 'I' for Inactive)
REMARK    1  A    between atoms: C_6  and  C_23 
REMARK       I    between atoms: C_9  and  N_17 
REMARK    2  A    between atoms: N_13  and  C_14 
REMARK       I    between atoms: C_27  and  N_31 
ROOT
HETATM    1  C   UNK N   1      24.985  25.111  -9.719  0.00  0.00     0.089 C 
HETATM    2  C   UNK N   1      25.860  24.940  -8.524  0.00  0.00     0.081 A 
HETATM    3  N   UNK N   1      25.974  25.897  -7.566  0.00  0.00    -0.341 N 
ATOM      4  HN  UNK N   1      25.510  26.804  -7.528  1.00  0.00     0.167 HD
HETATM    5  C   UNK N   1      26.839  25.373  -6.679  0.00  0.00     0.107 A 
HETATM    6  C   UNK N   1      27.335  25.905  -5.489  0.00  0.00     0.092 A 
HETATM    7  N   UNK N   1      28.212  25.134  -4.784  0.00  0.00    -0.188 N 
ATOM      8  HN  UNK N   1      28.591  25.495  -3.909  1.00  0.00     0.184 HD
HETATM    9  C   UNK N   1      28.603  23.889  -5.209  0.00  0.00     0.682 A 
HETATM   10  N   UNK N   1      28.105  23.381  -6.382  0.00  0.00    -0.174 N 
ATOM     11  HN  UNK N   1      28.383  22.458  -6.713  1.00  0.00     0.186 HD
HETATM   12  C   UNK N   1      27.230  24.142  -7.092  0.00  0.00     0.154 A 
HETATM   13  N   UNK N   1      26.626  23.842  -8.257  0.00  0.00    -0.317 N 
HETATM   14  N   UNK N   1      29.503  23.131  -4.409  0.00  0.00    -0.213 N 
HETATM   15  C   UNK N   1      30.002  23.724  -3.172  0.00  0.00     0.167 C 
HETATM   16  C   UNK N   1      30.747  22.715  -2.302  0.00  0.00     0.188 C 
HETATM   17  O   UNK N   1      31.571  21.922  -3.105  0.00  0.00    -0.388 OA
HETATM   18  C   UNK N   1      30.690  21.053  -3.760  0.00  0.00     0.188 C 
HETATM   19  C   UNK N   1      29.923  21.808  -4.851  0.00  0.00     0.167 C 
ENDROOT
BRANCH   6  20
HETATM   20  C   UNK N   1      26.966  27.237  -4.957  0.00  0.00     0.025 A 
HETATM   21  C   UNK N   1      26.028  27.405  -3.935  0.00  0.00     0.121 A 
HETATM   22  N   UNK N   1      25.725  28.653  -3.488  0.00  0.00    -0.201 N 
HETATM   23  C   UNK N   1      26.326  29.750  -4.022  0.00  0.00     0.675 A 
ATOM     24  HN  UNK N   1      25.039  28.768  -2.742  1.00  0.00     0.183 HD
HETATM   25  N   UNK N   1      27.242  29.610  -5.014  0.00  0.00    -0.201 N 
HETATM   26  N   UNK N   1      25.999  31.035  -3.546  0.00  0.00    -0.234 N 
HETATM   27  C   UNK N   1      27.570  28.382  -5.487  0.00  0.00     0.121 A 
ATOM     28  HN  UNK N   1      27.688  30.438  -5.409  1.00  0.00     0.183 HD
HETATM   29  H   UNK N   1      26.434  31.828  -3.932  0.00  0.00     0.174 HD
HETATM   30  H   UNK N   1      25.334  31.138  -2.827  0.00  0.00     0.174 HD
ENDBRANCH   6  20
BRANCH  13  31
HETATM   31  C   UNK N   1      26.771  22.608  -9.050  0.00  0.00     0.085 C 
HETATM   32  C   UNK N   1      25.819  21.441  -8.847  0.00  0.00     0.032 C 
HETATM   33  C   UNK N   1      27.894  22.488 -10.065  0.00  0.00     0.032 C 
ENDBRANCH  13  31
TORSDOF 2
ENDMDL
MODEL 7
REMARK VINA RESULT:      -6.8      8.905     10.994
REMARK  2 active torsions:
REMARK  status: ('A' for Active; 'I' for Inactive)
REMARK    1  A    between atoms: C_6  and  C_23 
REMARK       I    between atoms: C_9  and  N_17 
REMARK    2  A    between atoms: N_13  and  C_14 
REMARK       I    between atoms: C_27  and  N_31 
ROOT
HETATM    1  C   UNK N   1      30.982  12.277   4.467  0.00  0.00     0.089 C 
HETATM    2  C   UNK N   1      30.528  13.616   4.940  0.00  0.00     0.081 A 
HETATM    3  N   UNK N   1      31.200  14.316   5.891  0.00  0.00    -0.341 N 
ATOM      4  HN  UNK N   1      32.052  14.045   6.383  1.00  0.00     0.167 HD
HETATM    5  C   UNK N   1      30.486  15.446   6.034  0.00  0.00     0.107 A 
HETATM    6  C   UNK N   1      30.698  16.540   6.874  0.00  0.00     0.092 A 
HETATM    7  N   UNK N   1      29.794  17.560   6.802  0.00  0.00    -0.188 N 
ATOM      8  HN  UNK N   1      29.923  18.375   7.402  1.00  0.00     0.184 HD
HETATM    9  C   UNK N   1      28.718  17.531   5.951  0.00  0.00     0.682 A 
HETATM   10  N   UNK N   1      28.526  16.446   5.132  0.00  0.00    -0.174 N 
ATOM     11  HN  UNK N   1      27.732  16.408   4.493  1.00  0.00     0.186 HD
HETATM   12  C   UNK N   1      29.420  15.425   5.196  0.00  0.00     0.154 A 
HETATM   13  N   UNK N   1      29.421  14.279   4.491  0.00  0.00    -0.317 N 
HETATM   14  N   UNK N   1      27.830  18.642   5.912  0.00  0.00    -0.213 N 
HETATM   15  C   UNK N   1      28.085  19.767   6.807  0.00  0.00     0.167 C 
HETATM   16  C   UNK N   1      27.215  20.977   6.483  0.00  0.00     0.188 C 
HETATM   17  O   UNK N   1      25.911  20.556   6.206  0.00  0.00    -0.388 OA
HETATM   18  C   UNK N   1      25.992  19.984   4.931  0.00  0.00     0.188 C 
HETATM   19  C   UNK N   1      26.686  18.622   5.011  0.00  0.00     0.167 C 
ENDROOT
BRANCH   6  20
HETATM   20  C   UNK N   1      31.832  16.653   7.820  0.00  0.00     0.025 A 
HETATM   21  C   UNK N   1      32.022  15.758   8.876  0.00  0.00     0.121 A 
HETATM   22  N   UNK N   1      33.080  15.912   9.716  0.00  0.00    -0.201 N 
HETATM   23  C   UNK N   1      33.964  16.931   9.544  0.00  0.00     0.675 A 
ATOM     24  HN  UNK N   1      33.212  15.256  10.485  1.00  0.00     0.183 HD
HETATM   25  N   UNK N   1      33.800  17.811   8.523  0.00  0.00    -0.201 N 
HETATM   26  N   UNK N   1      35.054  17.075  10.424  0.00  0.00    -0.234 N 
HETATM   27  C   UNK N   1      32.757  17.690   7.665  0.00  0.00     0.121 A 
ATOM     28  HN  UNK N   1      34.468  18.571   8.400  1.00  0.00     0.183 HD
HETATM   29  H   UNK N   1      35.694  17.812  10.299  0.00  0.00     0.174 HD
HETATM   30  H   UNK N   1      35.174  16.439  11.166  0.00  0.00     0.174 HD
ENDBRANCH   6  20
BRANCH  13  31
HETATM   31  C   UNK N   1      28.445  13.851   3.472  0.00  0.00     0.085 C 
HETATM   32  C   UNK N   1      27.302  12.920   3.838  0.00  0.00     0.032 C 
HETATM   33  C   UNK N   1      28.593  14.325   2.037  0.00  0.00     0.032 C 
ENDBRANCH  13  31
TORSDOF 2
ENDMDL
MODEL 8
REMARK VINA RESULT:      -6.7      4.494      7.069
REMARK  2 active torsions:
REMARK  status: ('A' for Active; 'I' for Inactive)
REMARK    1  A    between atoms: C_6  and  C_23 
REMARK       I    between atoms: C_9  and  N_17 
REMARK    2  A    between atoms: N_13  and  C_14 
REMARK       I    between atoms: C_27  and  N_31 
ROOT
HETATM    1  C   UNK N   1      27.289  19.089   3.885  0.00  0.00     0.089 C 
HETATM    2  C   UNK N   1      26.338  18.139   4.530  0.00  0.00     0.081 A 
HETATM    3  N   UNK N   1      25.008  18.141   4.247  0.00  0.00    -0.341 N 
ATOM      4  HN  UNK N   1      24.507  18.747   3.599  1.00  0.00     0.167 HD
HETATM    5  C   UNK N   1      24.507  17.158   5.017  0.00  0.00     0.107 A 
HETATM    6  C   UNK N   1      23.195  16.702   5.147  0.00  0.00     0.092 A 
HETATM    7  N   UNK N   1      22.981  15.674   6.018  0.00  0.00    -0.188 N 
ATOM      8  HN  UNK N   1      22.033  15.317   6.134  1.00  0.00     0.184 HD
HETATM    9  C   UNK N   1      23.995  15.101   6.744  0.00  0.00     0.682 A 
HETATM   10  N   UNK N   1      25.280  15.562   6.603  0.00  0.00    -0.174 N 
ATOM     11  HN  UNK N   1      26.045  15.148   7.133  1.00  0.00     0.186 HD
HETATM   12  C   UNK N   1      25.503  16.586   5.738  0.00  0.00     0.154 A 
HETATM   13  N   UNK N   1      26.673  17.187   5.450  0.00  0.00    -0.317 N 
HETATM   14  N   UNK N   1      23.700  14.016   7.615  0.00  0.00    -0.213 N 
HETATM   15  C   UNK N   1      22.315  13.569   7.725  0.00  0.00     0.167 C 
HETATM   16  C   UNK N   1      22.186  12.254   8.489  0.00  0.00     0.188 C 
HETATM   17  O   UNK N   1      23.028  12.275   9.604  0.00  0.00    -0.388 OA
HETATM   18  C   UNK N   1      24.313  12.108   9.075  0.00  0.00     0.188 C 
HETATM   19  C   UNK N   1      24.770  13.399   8.389  0.00  0.00     0.167 C 
ENDROOT
BRANCH   6  20
HETATM   20  C   UNK N   1      22.044  17.262   4.403  0.00  0.00     0.025 A 
HETATM   21  C   UNK N   1      21.620  18.585   4.557  0.00  0.00     0.121 A 
HETATM   22  N   UNK N   1      20.554  19.044   3.849  0.00  0.00    -0.201 N 
HETATM   23  C   UNK N   1      19.889  18.232   2.985  0.00  0.00     0.675 A 
ATOM     24  HN  UNK N   1      20.249  20.010   3.968  1.00  0.00     0.183 HD
HETATM   25  N   UNK N   1      20.285  16.944   2.817  0.00  0.00    -0.201 N 
HETATM   26  N   UNK N   1      18.786  18.726   2.261  0.00  0.00    -0.234 N 
HETATM   27  C   UNK N   1      21.343  16.450   3.506  0.00  0.00     0.121 A 
ATOM     28  HN  UNK N   1      19.781  16.342   2.167  1.00  0.00     0.183 HD
HETATM   29  H   UNK N   1      18.305  18.138   1.635  0.00  0.00     0.174 HD
HETATM   30  H   UNK N   1      18.496  19.659   2.382  0.00  0.00     0.174 HD
ENDBRANCH   6  20
BRANCH  13  31
HETATM   31  C   UNK N   1      28.002  16.878   6.008  0.00  0.00     0.085 C 
HETATM   32  C   UNK N   1      28.852  15.766   5.415  0.00  0.00     0.032 C 
HETATM   33  C   UNK N   1      28.521  17.659   7.202  0.00  0.00     0.032 C 
ENDBRANCH  13  31
TORSDOF 2
ENDMDL
MODEL 9
REMARK VINA RESULT:      -6.7     11.353     14.681
REMARK  2 active torsions:
REMARK  status: ('A' for Active; 'I' for Inactive)
REMARK    1  A    between atoms: C_6  and  C_23 
REMARK       I    between atoms: C_9  and  N_17 
REMARK    2  A    between atoms: N_13  and  C_14 
REMARK       I    between atoms: C_27  and  N_31 
ROOT
HETATM    1  C   UNK N   1      28.617  17.534   6.353  0.00  0.00     0.089 C 
HETATM    2  C   UNK N   1      29.941  16.976   6.754  0.00  0.00     0.081 A 
HETATM    3  N   UNK N   1      30.766  16.359   5.869  0.00  0.00    -0.341 N 
ATOM      4  HN  UNK N   1      30.611  16.202   4.873  1.00  0.00     0.167 HD
HETATM    5  C   UNK N   1      31.834  16.006   6.606  0.00  0.00     0.107 A 
HETATM    6  C   UNK N   1      33.002  15.340   6.232  0.00  0.00     0.092 A 
HETATM    7  N   UNK N   1      33.927  15.115   7.209  0.00  0.00    -0.188 N 
ATOM      8  HN  UNK N   1      34.791  14.632   6.966  1.00  0.00     0.184 HD
HETATM    9  C   UNK N   1      33.737  15.515   8.508  0.00  0.00     0.682 A 
HETATM   10  N   UNK N   1      32.583  16.169   8.858  0.00  0.00    -0.174 N 
ATOM     11  HN  UNK N   1      32.425  16.475   9.818  1.00  0.00     0.186 HD
HETATM   12  C   UNK N   1      31.655  16.398   7.892  0.00  0.00     0.154 A 
HETATM   13  N   UNK N   1      30.465  17.015   8.015  0.00  0.00    -0.317 N 
HETATM   14  N   UNK N   1      34.756  15.267   9.469  0.00  0.00    -0.213 N 
HETATM   15  C   UNK N   1      35.962  14.566   9.038  0.00  0.00     0.167 C 
HETATM   16  C   UNK N   1      37.061  14.594  10.096  0.00  0.00     0.188 C 
HETATM   17  O   UNK N   1      36.504  14.364  11.357  0.00  0.00    -0.388 OA
HETATM   18  C   UNK N   1      35.850  15.560  11.674  0.00  0.00     0.188 C 
HETATM   19  C   UNK N   1      34.566  15.690  10.850  0.00  0.00     0.167 C 
ENDROOT
BRANCH   6  20
HETATM   20  C   UNK N   1      33.287  14.875   4.855  0.00  0.00     0.025 A 
HETATM   21  C   UNK N   1      33.440  15.756   3.780  0.00  0.00     0.121 A 
HETATM   22  N   UNK N   1      33.699  15.273   2.536  0.00  0.00    -0.201 N 
HETATM   23  C   UNK N   1      33.813  13.935   2.318  0.00  0.00     0.675 A 
ATOM     24  HN  UNK N   1      33.809  15.921   1.757  1.00  0.00     0.183 HD
HETATM   25  N   UNK N   1      33.670  13.062   3.347  0.00  0.00    -0.201 N 
HETATM   26  N   UNK N   1      34.081  13.453   1.022  0.00  0.00    -0.234 N 
HETATM   27  C   UNK N   1      33.411  13.506   4.602  0.00  0.00     0.121 A 
ATOM     28  HN  UNK N   1      33.758  12.061   3.175  1.00  0.00     0.183 HD
HETATM   29  H   UNK N   1      34.164  12.486   0.864  0.00  0.00     0.174 HD
HETATM   30  H   UNK N   1      34.183  14.085   0.273  0.00  0.00     0.174 HD
ENDBRANCH   6  20
BRANCH  13  31
HETATM   31  C   UNK N   1      29.876  17.594   9.237  0.00  0.00     0.085 C 
HETATM   32  C   UNK N   1      29.080  16.728  10.197  0.00  0.00     0.032 C 
HETATM   33  C   UNK N   1      30.045  19.074   9.530  0.00  0.00     0.032 C 
ENDBRANCH  13  31
TORSDOF 2
ENDMDL
