MODEL 1
REMARK VINA RESULT:      -7.9      0.000      0.000
REMARK  6 active torsions:
REMARK  status: ('A' for Active; 'I' for Inactive)
REMARK    1  A    between atoms: C_4  and  C_11 
REMARK    2  A    between atoms: C_11  and  N_12 
REMARK    3  A    between atoms: N_12  and  C_13 
REMARK    4  A    between atoms: C_13  and  C_14 
REMARK       I    between atoms: N_17  and  C_20 
REMARK    5  A    between atoms: C_24  and  C_28 
REMARK       I    between atoms: C_28  and  N_30 
REMARK    6  A    between atoms: N_30  and  O_31 
ROOT
HETATM    1  C   UNK N   1      33.917  16.358   9.104  0.00  0.00     0.006 C 
HETATM    2  C   UNK N   1      34.991  16.687  10.140  0.00  0.00     0.027 C 
HETATM    3  C   UNK N   1      35.934  15.500  10.309  0.00  0.00     0.141 C 
HETATM    4  N   UNK N   1      35.155  14.341  10.677  0.00  0.00    -0.218 N 
HETATM    5  C   UNK N   1      34.101  13.906   9.787  0.00  0.00     0.141 C 
HETATM    6  C   UNK N   1      33.154  15.080   9.510  0.00  0.00     0.027 C 
HETATM    7  C   UNK N   1      35.369  13.724  11.939  0.00  0.00     0.679 A 
HETATM    8  N   UNK N   1      36.326  14.218  12.770  0.00  0.00    -0.201 N 
ATOM      9  HN  UNK N   1      36.892  15.010  12.467  1.00  0.00     0.183 HD
HETATM   10  C   UNK N   1      36.540  13.678  13.993  0.00  0.00     0.124 A 
HETATM   11  C   UNK N   1      35.779  12.592  14.428  0.00  0.00     0.066 A 
HETATM   12  C   UNK N   1      34.803  12.090  13.555  0.00  0.00     0.124 A 
HETATM   13  N   UNK N   1      34.614  12.662  12.334  0.00  0.00    -0.201 N 
ATOM     14  HN  UNK N   1      33.900  12.289  11.709  1.00  0.00     0.183 HD
ENDROOT
BRANCH   1  15
HETATM   15  C   UNK N   1      34.573  16.254   7.730  0.00  0.00     0.118 C 
BRANCH  15  16
HETATM   16  N   UNK N   1      33.571  16.134   6.690  0.00  0.00    -0.417 N 
HETATM   17  H   UNK N   1      33.402  15.324   6.093  0.00  0.00     0.153 HD
BRANCH  16  18
HETATM   18  C   UNK N   1      32.860  17.397   6.671  0.00  0.00     0.155 C 
BRANCH  18  19
HETATM   19  C   UNK N   1      31.399  17.136   6.706  0.00  0.00    -0.013 A 
HETATM   20  C   UNK N   1      30.668  16.427   5.759  0.00  0.00     0.100 A 
HETATM   21  N   UNK N   1      29.373  16.395   6.150  0.00  0.00    -0.360 N 
HETATM   22  C   UNK N   1      28.290  15.746   5.431  0.00  0.00     0.155 C 
HETATM   23  C   UNK N   1      29.284  17.066   7.312  0.00  0.00     0.044 A 
HETATM   24  C   UNK N   1      30.513  17.534   7.681  0.00  0.00    -0.000 A 
HETATM   25  C   UNK N   1      28.148  17.293   8.089  0.00  0.00     0.030 A 
HETATM   26  C   UNK N   1      30.705  18.263   8.852  0.00  0.00     0.014 A 
HETATM   27  C   UNK N   1      29.580  18.510   9.660  0.00  0.00     0.001 A 
HETATM   28  C   UNK N   1      28.307  18.027   9.280  0.00  0.00     0.002 A 
ENDBRANCH  18  19
ENDBRANCH  16  18
ENDBRANCH  15  16
ENDBRANCH   1  15
BRANCH  11  29
HETATM   29  C   UNK N   1      36.027  12.029  15.786  0.00  0.00     0.277 C 
HETATM   30  O   UNK N   1      36.828  11.114  15.905  0.00  0.00    -0.265 OA
HETATM   31  N   UNK N   1      35.403  12.487  16.901  0.00  0.00    -0.233 N 
HETATM   32  H   UNK N   1      35.620  12.076  17.768  0.00  0.00     0.197 HD
BRANCH  31  33
HETATM   33  O   UNK N   1      34.503  13.480  16.868  0.00  0.00    -0.287 OA
HETATM   34  H   UNK N   1      33.563  13.286  17.005  0.00  0.00     0.244 HD
ENDBRANCH  31  33
ENDBRANCH  11  29
TORSDOF 6
ENDMDL
MODEL 2
REMARK VINA RESULT:      -7.8      2.427      4.173
REMARK  6 active torsions:
REMARK  status: ('A' for Active; 'I' for Inactive)
REMARK    1  A    between atoms: C_4  and  C_11 
REMARK    2  A    between atoms: C_11  and  N_12 
REMARK    3  A    between atoms: N_12  and  C_13 
REMARK    4  A    between atoms: C_13  and  C_14 
REMARK       I    between atoms: N_17  and  C_20 
REMARK    5  A    between atoms: C_24  and  C_28 
REMARK       I    between atoms: C_28  and  N_30 
REMARK    6  A    between atoms: N_30  and  O_31 
ROOT
HETATM    1  C   UNK N   1      32.833  16.648   5.414  0.00  0.00     0.006 C 
HETATM    2  C   UNK N   1      32.705  15.262   6.041  0.00  0.00     0.027 C 
HETATM    3  C   UNK N   1      32.141  15.378   7.454  0.00  0.00     0.141 C 
HETATM    4  N   UNK N   1      32.998  16.249   8.222  0.00  0.00    -0.218 N 
HETATM    5  C   UNK N   1      33.211  17.600   7.752  0.00  0.00     0.141 C 
HETATM    6  C   UNK N   1      33.707  17.559   6.301  0.00  0.00     0.027 C 
HETATM    7  C   UNK N   1      33.688  15.735   9.353  0.00  0.00     0.679 A 
HETATM    8  N   UNK N   1      33.508  14.435   9.712  0.00  0.00    -0.201 N 
ATOM      9  HN  UNK N   1      32.862  13.854   9.178  1.00  0.00     0.183 HD
HETATM   10  C   UNK N   1      34.170  13.899  10.764  0.00  0.00     0.124 A 
HETATM   11  C   UNK N   1      35.056  14.676  11.510  0.00  0.00     0.066 A 
HETATM   12  C   UNK N   1      35.224  16.016  11.133  0.00  0.00     0.124 A 
HETATM   13  N   UNK N   1      34.543  16.520  10.066  0.00  0.00    -0.201 N 
ATOM     14  HN  UNK N   1      34.675  17.495   9.799  1.00  0.00     0.183 HD
ENDROOT
BRANCH   1  15
HETATM   15  C   UNK N   1      31.436  17.211   5.170  0.00  0.00     0.118 C 
BRANCH  15  16
HETATM   16  N   UNK N   1      30.531  16.168   4.731  0.00  0.00    -0.417 N 
HETATM   17  H   UNK N   1      30.729  15.169   4.675  0.00  0.00     0.153 HD
BRANCH  16  18
HETATM   18  C   UNK N   1      29.289  16.833   4.387  0.00  0.00     0.155 C 
BRANCH  18  19
HETATM   19  C   UNK N   1      28.783  17.568   5.574  0.00  0.00    -0.013 A 
HETATM   20  C   UNK N   1      28.860  17.144   6.897  0.00  0.00     0.100 A 
HETATM   21  N   UNK N   1      28.303  18.092   7.686  0.00  0.00    -0.360 N 
HETATM   22  C   UNK N   1      28.190  18.026   9.133  0.00  0.00     0.155 C 
HETATM   23  C   UNK N   1      27.883  19.089   6.886  0.00  0.00     0.044 A 
HETATM   24  C   UNK N   1      28.165  18.797   5.582  0.00  0.00    -0.000 A 
HETATM   25  C   UNK N   1      27.251  20.277   7.253  0.00  0.00     0.030 A 
HETATM   26  C   UNK N   1      27.838  19.666   4.543  0.00  0.00     0.014 A 
HETATM   27  C   UNK N   1      27.199  20.873   4.877  0.00  0.00     0.001 A 
HETATM   28  C   UNK N   1      26.907  21.178   6.227  0.00  0.00     0.002 A 
ENDBRANCH  18  19
ENDBRANCH  16  18
ENDBRANCH  15  16
ENDBRANCH   1  15
BRANCH  11  29
HETATM   29  C   UNK N   1      35.784  14.054  12.654  0.00  0.00     0.277 C 
HETATM   30  O   UNK N   1      35.201  13.927  13.720  0.00  0.00    -0.265 OA
HETATM   31  N   UNK N   1      37.065  13.617  12.564  0.00  0.00    -0.233 N 
HETATM   32  H   UNK N   1      37.482  13.208  13.355  0.00  0.00     0.197 HD
BRANCH  31  33
HETATM   33  O   UNK N   1      37.786  13.722  11.439  0.00  0.00    -0.287 OA
HETATM   34  H   UNK N   1      38.381  13.003  11.175  0.00  0.00     0.244 HD
ENDBRANCH  31  33
ENDBRANCH  11  29
TORSDOF 6
ENDMDL
MODEL 3
REMARK VINA RESULT:      -7.7      3.636      9.038
REMARK  6 active torsions:
REMARK  status: ('A' for Active; 'I' for Inactive)
REMARK    1  A    between atoms: C_4  and  C_11 
REMARK    2  A    between atoms: C_11  and  N_12 
REMARK    3  A    between atoms: N_12  and  C_13 
REMARK    4  A    between atoms: C_13  and  C_14 
REMARK       I    between atoms: N_17  and  C_20 
REMARK    5  A    between atoms: C_24  and  C_28 
REMARK       I    between atoms: C_28  and  N_30 
REMARK    6  A    between atoms: N_30  and  O_31 
ROOT
HETATM    1  C   UNK N   1      34.979  14.034  10.442  0.00  0.00     0.006 C 
HETATM    2  C   UNK N   1      34.022  13.602   9.333  0.00  0.00     0.027 C 
HETATM    3  C   UNK N   1      33.966  14.671   8.246  0.00  0.00     0.141 C 
HETATM    4  N   UNK N   1      33.574  15.923   8.851  0.00  0.00    -0.218 N 
HETATM    5  C   UNK N   1      34.391  16.462   9.916  0.00  0.00     0.141 C 
HETATM    6  C   UNK N   1      34.554  15.403  11.014  0.00  0.00     0.027 C 
HETATM    7  C   UNK N   1      32.354  16.538   8.461  0.00  0.00     0.679 A 
HETATM    8  N   UNK N   1      31.586  15.952   7.504  0.00  0.00    -0.201 N 
ATOM      9  HN  UNK N   1      31.908  15.092   7.061  1.00  0.00     0.183 HD
HETATM   10  C   UNK N   1      30.402  16.489   7.127  0.00  0.00     0.124 A 
HETATM   11  C   UNK N   1      29.943  17.667   7.717  0.00  0.00     0.066 A 
HETATM   12  C   UNK N   1      30.750  18.263   8.696  0.00  0.00     0.124 A 
HETATM   13  N   UNK N   1      31.934  17.691   9.051  0.00  0.00    -0.201 N 
ATOM     14  HN  UNK N   1      32.511  18.132   9.767  1.00  0.00     0.183 HD
ENDROOT
BRANCH   1  15
HETATM   15  C   UNK N   1      36.403  14.029   9.895  0.00  0.00     0.118 C 
BRANCH  15  16
HETATM   16  N   UNK N   1      37.369  14.044  10.975  0.00  0.00    -0.417 N 
HETATM   17  H   UNK N   1      37.933  14.837  11.282  0.00  0.00     0.153 HD
BRANCH  16  18
HETATM   18  C   UNK N   1      37.371  12.704  11.530  0.00  0.00     0.155 C 
BRANCH  18  19
HETATM   19  C   UNK N   1      36.678  12.717  12.842  0.00  0.00    -0.013 A 
HETATM   20  C   UNK N   1      36.978  13.540  13.922  0.00  0.00     0.100 A 
HETATM   21  N   UNK N   1      36.117  13.262  14.928  0.00  0.00    -0.360 N 
HETATM   22  C   UNK N   1      36.100  13.911  16.228  0.00  0.00     0.155 C 
HETATM   23  C   UNK N   1      35.294  12.289  14.500  0.00  0.00     0.044 A 
HETATM   24  C   UNK N   1      35.612  11.932  13.220  0.00  0.00    -0.000 A 
HETATM   25  C   UNK N   1      34.245  11.683  15.192  0.00  0.00     0.030 A 
HETATM   26  C   UNK N   1      34.911  10.944  12.532  0.00  0.00     0.014 A 
HETATM   27  C   UNK N   1      33.847  10.313  13.200  0.00  0.00     0.001 A 
HETATM   28  C   UNK N   1      33.515  10.680  14.525  0.00  0.00     0.002 A 
ENDBRANCH  18  19
ENDBRANCH  16  18
ENDBRANCH  15  16
ENDBRANCH   1  15
BRANCH  11  29
HETATM   29  C   UNK N   1      28.627  18.227   7.293  0.00  0.00     0.277 C 
HETATM   30  O   UNK N   1      28.495  18.606   6.139  0.00  0.00    -0.265 OA
HETATM   31  N   UNK N   1      27.565  18.332   8.131  0.00  0.00    -0.233 N 
HETATM   32  H   UNK N   1      26.722  18.702   7.783  0.00  0.00     0.197 HD
BRANCH  31  33
HETATM   33  O   UNK N   1      27.618  17.950   9.414  0.00  0.00    -0.287 OA
HETATM   34  H   UNK N   1      27.300  17.070   9.672  0.00  0.00     0.244 HD
ENDBRANCH  31  33
ENDBRANCH  11  29
TORSDOF 6
ENDMDL
MODEL 4
REMARK VINA RESULT:      -7.6      4.024     10.195
REMARK  6 active torsions:
REMARK  status: ('A' for Active; 'I' for Inactive)
REMARK    1  A    between atoms: C_4  and  C_11 
REMARK    2  A    between atoms: C_11  and  N_12 
REMARK    3  A    between atoms: N_12  and  C_13 
REMARK    4  A    between atoms: C_13  and  C_14 
REMARK       I    between atoms: N_17  and  C_20 
REMARK    5  A    between atoms: C_24  and  C_28 
REMARK       I    between atoms: C_28  and  N_30 
REMARK    6  A    between atoms: N_30  and  O_31 
ROOT
HETATM    1  C   UNK N   1      35.397  11.754  13.462  0.00  0.00     0.006 C 
HETATM    2  C   UNK N   1      34.810  11.630  12.057  0.00  0.00     0.027 C 
HETATM    3  C   UNK N   1      35.725  12.314  11.047  0.00  0.00     0.141 C 
HETATM    4  N   UNK N   1      35.906  13.690  11.446  0.00  0.00    -0.218 N 
HETATM    5  C   UNK N   1      36.459  13.964  12.754  0.00  0.00     0.141 C 
HETATM    6  C   UNK N   1      35.628  13.237  13.818  0.00  0.00     0.027 C 
HETATM    7  C   UNK N   1      35.445  14.733  10.598  0.00  0.00     0.679 A 
HETATM    8  N   UNK N   1      34.865  14.419   9.408  0.00  0.00    -0.201 N 
ATOM      9  HN  UNK N   1      34.791  13.441   9.130  1.00  0.00     0.183 HD
HETATM   10  C   UNK N   1      34.385  15.381   8.585  0.00  0.00     0.124 A 
HETATM   11  C   UNK N   1      34.479  16.726   8.943  0.00  0.00     0.066 A 
HETATM   12  C   UNK N   1      35.087  17.033  10.169  0.00  0.00     0.124 A 
HETATM   13  N   UNK N   1      35.555  16.038  10.971  0.00  0.00    -0.201 N 
ATOM     14  HN  UNK N   1      35.993  16.273  11.862  1.00  0.00     0.183 HD
ENDROOT
BRANCH   1  15
HETATM   15  C   UNK N   1      36.668  10.913  13.541  0.00  0.00     0.118 C 
BRANCH  15  16
HETATM   16  N   UNK N   1      36.860  10.396  14.880  0.00  0.00    -0.417 N 
HETATM   17  H   UNK N   1      37.731  10.373  15.410  0.00  0.00     0.153 HD
BRANCH  16  18
HETATM   18  C   UNK N   1      35.562   9.914  15.313  0.00  0.00     0.155 C 
BRANCH  18  19
HETATM   19  C   UNK N   1      35.482   9.991  16.794  0.00  0.00    -0.013 A 
HETATM   20  C   UNK N   1      35.534   8.916  17.676  0.00  0.00     0.100 A 
HETATM   21  N   UNK N   1      35.442   9.392  18.940  0.00  0.00    -0.360 N 
HETATM   22  C   UNK N   1      35.461   8.586  20.148  0.00  0.00     0.155 C 
HETATM   23  C   UNK N   1      35.335  10.731  18.862  0.00  0.00     0.044 A 
HETATM   24  C   UNK N   1      35.357  11.130  17.556  0.00  0.00    -0.000 A 
HETATM   25  C   UNK N   1      35.219  11.646  19.908  0.00  0.00     0.030 A 
HETATM   26  C   UNK N   1      35.264  12.472  17.192  0.00  0.00     0.014 A 
HETATM   27  C   UNK N   1      35.146  13.421  18.221  0.00  0.00     0.001 A 
HETATM   28  C   UNK N   1      35.124  13.011  19.574  0.00  0.00     0.002 A 
ENDBRANCH  18  19
ENDBRANCH  16  18
ENDBRANCH  15  16
ENDBRANCH   1  15
BRANCH  11  29
HETATM   29  C   UNK N   1      33.927  17.763   8.024  0.00  0.00     0.277 C 
HETATM   30  O   UNK N   1      34.657  18.233   7.164  0.00  0.00    -0.265 OA
HETATM   31  N   UNK N   1      32.647  18.208   8.096  0.00  0.00    -0.233 N 
HETATM   32  H   UNK N   1      32.345  18.888   7.452  0.00  0.00     0.197 HD
BRANCH  31  33
HETATM   33  O   UNK N   1      31.778  17.758   9.011  0.00  0.00    -0.287 OA
HETATM   34  H   UNK N   1      30.848  17.619   8.770  0.00  0.00     0.244 HD
ENDBRANCH  31  33
ENDBRANCH  11  29
TORSDOF 6
ENDMDL
MODEL 5
REMARK VINA RESULT:      -7.4      5.267      8.689
REMARK  6 active torsions:
REMARK  status: ('A' for Active; 'I' for Inactive)
REMARK    1  A    between atoms: C_4  and  C_11 
REMARK    2  A    between atoms: C_11  and  N_12 
REMARK    3  A    between atoms: N_12  and  C_13 
REMARK    4  A    between atoms: C_13  and  C_14 
REMARK       I    between atoms: N_17  and  C_20 
REMARK    5  A    between atoms: C_24  and  C_28 
REMARK       I    between atoms: C_28  and  N_30 
REMARK    6  A    between atoms: N_30  and  O_31 
ROOT
HETATM    1  C   UNK N   1      26.735  15.305   6.047  0.00  0.00     0.006 C 
HETATM    2  C   UNK N   1      27.057  16.110   7.305  0.00  0.00     0.027 C 
HETATM    3  C   UNK N   1      27.857  17.355   6.938  0.00  0.00     0.141 C 
HETATM    4  N   UNK N   1      29.047  16.947   6.229  0.00  0.00    -0.218 N 
HETATM    5  C   UNK N   1      28.898  16.179   5.012  0.00  0.00     0.141 C 
HETATM    6  C   UNK N   1      28.032  14.945   5.294  0.00  0.00     0.027 C 
HETATM    7  C   UNK N   1      30.324  17.215   6.791  0.00  0.00     0.679 A 
HETATM    8  N   UNK N   1      30.407  17.878   7.975  0.00  0.00    -0.201 N 
ATOM      9  HN  UNK N   1      29.553  18.195   8.432  1.00  0.00     0.183 HD
HETATM   10  C   UNK N   1      31.604  18.125   8.559  0.00  0.00     0.124 A 
HETATM   11  C   UNK N   1      32.786  17.704   7.951  0.00  0.00     0.066 A 
HETATM   12  C   UNK N   1      32.683  17.029   6.726  0.00  0.00     0.124 A 
HETATM   13  N   UNK N   1      31.462  16.795   6.171  0.00  0.00    -0.201 N 
ATOM     14  HN  UNK N   1      31.399  16.301   5.281  1.00  0.00     0.183 HD
ENDROOT
BRANCH   1  15
HETATM   15  C   UNK N   1      25.747  16.096   5.196  0.00  0.00     0.118 C 
BRANCH  15  16
HETATM   16  N   UNK N   1      24.565  16.437   5.961  0.00  0.00    -0.417 N 
HETATM   17  H   UNK N   1      24.424  17.270   6.533  0.00  0.00     0.153 HD
BRANCH  16  18
HETATM   18  C   UNK N   1      23.625  15.352   5.751  0.00  0.00     0.155 C 
BRANCH  18  19
HETATM   19  C   UNK N   1      22.541  15.442   6.762  0.00  0.00    -0.013 A 
HETATM   20  C   UNK N   1      21.588  16.451   6.856  0.00  0.00     0.100 A 
HETATM   21  N   UNK N   1      20.767  16.172   7.895  0.00  0.00    -0.360 N 
HETATM   22  C   UNK N   1      19.640  16.983   8.321  0.00  0.00     0.155 C 
HETATM   23  C   UNK N   1      21.187  15.019   8.445  0.00  0.00     0.044 A 
HETATM   24  C   UNK N   1      22.276  14.545   7.770  0.00  0.00    -0.000 A 
HETATM   25  C   UNK N   1      20.647  14.340   9.537  0.00  0.00     0.030 A 
HETATM   26  C   UNK N   1      22.911  13.358   8.132  0.00  0.00     0.014 A 
HETATM   27  C   UNK N   1      22.392  12.649   9.230  0.00  0.00     0.001 A 
HETATM   28  C   UNK N   1      21.265  13.137   9.930  0.00  0.00     0.002 A 
ENDBRANCH  18  19
ENDBRANCH  16  18
ENDBRANCH  15  16
ENDBRANCH   1  15
BRANCH  11  29
HETATM   29  C   UNK N   1      34.088  17.976   8.625  0.00  0.00     0.277 C 
HETATM   30  O   UNK N   1      34.774  18.904   8.223  0.00  0.00    -0.265 OA
HETATM   31  N   UNK N   1      34.546  17.241   9.669  0.00  0.00    -0.233 N 
HETATM   32  H   UNK N   1      35.411  17.481  10.074  0.00  0.00     0.197 HD
BRANCH  31  33
HETATM   33  O   UNK N   1      33.868  16.200  10.172  0.00  0.00    -0.287 OA
HETATM   34  H   UNK N   1      34.178  15.765  10.982  0.00  0.00     0.244 HD
ENDBRANCH  31  33
ENDBRANCH  11  29
TORSDOF 6
ENDMDL
MODEL 6
REMARK VINA RESULT:      -7.4      2.864      4.371
REMARK  6 active torsions:
REMARK  status: ('A' for Active; 'I' for Inactive)
REMARK    1  A    between atoms: C_4  and  C_11 
REMARK    2  A    between atoms: C_11  and  N_12 
REMARK    3  A    between atoms: N_12  and  C_13 
REMARK    4  A    between atoms: C_13  and  C_14 
REMARK       I    between atoms: N_17  and  C_20 
REMARK    5  A    between atoms: C_24  and  C_28 
REMARK       I    between atoms: C_28  and  N_30 
REMARK    6  A    between atoms: N_30  and  O_31 
ROOT
HETATM    1  C   UNK N   1      30.698  16.524   6.315  0.00  0.00     0.006 C 
HETATM    2  C   UNK N   1      31.158  17.286   7.557  0.00  0.00     0.027 C 
HETATM    3  C   UNK N   1      32.680  17.257   7.652  0.00  0.00     0.141 C 
HETATM    4  N   UNK N   1      33.116  15.881   7.662  0.00  0.00    -0.218 N 
HETATM    5  C   UNK N   1      32.758  15.034   6.545  0.00  0.00     0.141 C 
HETATM    6  C   UNK N   1      31.238  15.079   6.342  0.00  0.00     0.027 C 
HETATM    7  C   UNK N   1      33.789  15.366   8.802  0.00  0.00     0.679 A 
HETATM    8  N   UNK N   1      34.038  16.187   9.858  0.00  0.00    -0.201 N 
ATOM      9  HN  UNK N   1      33.760  17.167   9.807  1.00  0.00     0.183 HD
HETATM   10  C   UNK N   1      34.650  15.728  10.976  0.00  0.00     0.124 A 
HETATM   11  C   UNK N   1      35.042  14.393  11.067  0.00  0.00     0.066 A 
HETATM   12  C   UNK N   1      34.786  13.562   9.967  0.00  0.00     0.124 A 
HETATM   13  N   UNK N   1      34.166  14.059   8.861  0.00  0.00    -0.201 N 
ATOM     14  HN  UNK N   1      33.982  13.444   8.068  1.00  0.00     0.183 HD
ENDROOT
BRANCH   1  15
HETATM   15  C   UNK N   1      31.125  17.301   5.073  0.00  0.00     0.118 C 
BRANCH  15  16
HETATM   16  N   UNK N   1      30.082  17.277   4.068  0.00  0.00    -0.417 N 
HETATM   17  H   UNK N   1      30.191  17.442   3.068  0.00  0.00     0.153 HD
BRANCH  16  18
HETATM   18  C   UNK N   1      28.852  16.972   4.774  0.00  0.00     0.155 C 
BRANCH  18  19
HETATM   19  C   UNK N   1      27.906  18.105   4.618  0.00  0.00    -0.013 A 
HETATM   20  C   UNK N   1      27.159  18.402   3.482  0.00  0.00     0.100 A 
HETATM   21  N   UNK N   1      26.408  19.499   3.735  0.00  0.00    -0.360 N 
HETATM   22  C   UNK N   1      25.489  20.126   2.801  0.00  0.00     0.155 C 
HETATM   23  C   UNK N   1      26.671  19.888   4.996  0.00  0.00     0.044 A 
HETATM   24  C   UNK N   1      27.587  19.051   5.566  0.00  0.00    -0.000 A 
HETATM   25  C   UNK N   1      26.130  20.969   5.692  0.00  0.00     0.030 A 
HETATM   26  C   UNK N   1      28.036  19.226   6.873  0.00  0.00     0.014 A 
HETATM   27  C   UNK N   1      27.511  20.306   7.605  0.00  0.00     0.001 A 
HETATM   28  C   UNK N   1      26.562  21.174   7.017  0.00  0.00     0.002 A 
ENDBRANCH  18  19
ENDBRANCH  16  18
ENDBRANCH  15  16
ENDBRANCH   1  15
BRANCH  11  29
HETATM   29  C   UNK N   1      35.699  13.912  12.317  0.00  0.00     0.277 C 
HETATM   30  O   UNK N   1      35.020  13.788  13.325  0.00  0.00    -0.265 OA
HETATM   31  N   UNK N   1      37.018  13.602  12.386  0.00  0.00    -0.233 N 
HETATM   32  H   UNK N   1      37.385  13.282  13.241  0.00  0.00     0.197 HD
BRANCH  31  33
HETATM   33  O   UNK N   1      37.842  13.716  11.336  0.00  0.00    -0.287 OA
HETATM   34  H   UNK N   1      38.040  14.591  10.967  0.00  0.00     0.244 HD
ENDBRANCH  31  33
ENDBRANCH  11  29
TORSDOF 6
ENDMDL
MODEL 7
REMARK VINA RESULT:      -7.2      2.757      4.330
REMARK  6 active torsions:
REMARK  status: ('A' for Active; 'I' for Inactive)
REMARK    1  A    between atoms: C_4  and  C_11 
REMARK    2  A    between atoms: C_11  and  N_12 
REMARK    3  A    between atoms: N_12  and  C_13 
REMARK    4  A    between atoms: C_13  and  C_14 
REMARK       I    between atoms: N_17  and  C_20 
REMARK    5  A    between atoms: C_24  and  C_28 
REMARK       I    between atoms: C_28  and  N_30 
REMARK    6  A    between atoms: N_30  and  O_31 
ROOT
HETATM    1  C   UNK N   1      32.562  16.501   6.083  0.00  0.00     0.006 C 
HETATM    2  C   UNK N   1      32.318  15.219   6.877  0.00  0.00     0.027 C 
HETATM    3  C   UNK N   1      32.066  15.553   8.343  0.00  0.00     0.141 C 
HETATM    4  N   UNK N   1      33.192  16.302   8.847  0.00  0.00    -0.218 N 
HETATM    5  C   UNK N   1      33.542  17.546   8.196  0.00  0.00     0.141 C 
HETATM    6  C   UNK N   1      33.734  17.296   6.695  0.00  0.00     0.027 C 
HETATM    7  C   UNK N   1      33.987  15.757   9.891  0.00  0.00     0.679 A 
HETATM    8  N   UNK N   1      33.657  14.549  10.420  0.00  0.00    -0.201 N 
ATOM      9  HN  UNK N   1      32.830  14.061  10.077  1.00  0.00     0.183 HD
HETATM   10  C   UNK N   1      34.406  13.981  11.395  0.00  0.00     0.124 A 
HETATM   11  C   UNK N   1      35.540  14.631  11.881  0.00  0.00     0.066 A 
HETATM   12  C   UNK N   1      35.862  15.879  11.331  0.00  0.00     0.124 A 
HETATM   13  N   UNK N   1      35.086  16.417  10.350  0.00  0.00    -0.201 N 
ATOM     14  HN  UNK N   1      35.332  17.325   9.955  1.00  0.00     0.183 HD
ENDROOT
BRANCH   1  15
HETATM   15  C   UNK N   1      31.263  17.300   6.025  0.00  0.00     0.118 C 
BRANCH  15  16
HETATM   16  N   UNK N   1      30.202  16.513   5.430  0.00  0.00    -0.417 N 
HETATM   17  H   UNK N   1      29.705  15.731   5.858  0.00  0.00     0.153 HD
BRANCH  16  18
HETATM   18  C   UNK N   1      29.992  17.060   4.104  0.00  0.00     0.155 C 
BRANCH  18  19
HETATM   19  C   UNK N   1      28.534  17.149   3.837  0.00  0.00    -0.013 A 
HETATM   20  C   UNK N   1      27.721  16.123   3.365  0.00  0.00     0.100 A 
HETATM   21  N   UNK N   1      26.455  16.589   3.265  0.00  0.00    -0.360 N 
HETATM   22  C   UNK N   1      25.307  15.822   2.811  0.00  0.00     0.155 C 
HETATM   23  C   UNK N   1      26.463  17.874   3.662  0.00  0.00     0.044 A 
HETATM   24  C   UNK N   1      27.726  18.248   4.020  0.00  0.00    -0.000 A 
HETATM   25  C   UNK N   1      25.388  18.760   3.730  0.00  0.00     0.030 A 
HETATM   26  C   UNK N   1      28.016  19.533   4.474  0.00  0.00     0.014 A 
HETATM   27  C   UNK N   1      26.955  20.452   4.556  0.00  0.00     0.001 A 
HETATM   28  C   UNK N   1      25.646  20.067   4.185  0.00  0.00     0.002 A 
ENDBRANCH  18  19
ENDBRANCH  16  18
ENDBRANCH  15  16
ENDBRANCH   1  15
BRANCH  11  29
HETATM   29  C   UNK N   1      36.355  13.973  12.944  0.00  0.00     0.277 C 
HETATM   30  O   UNK N   1      35.974  14.044  14.103  0.00  0.00    -0.265 OA
HETATM   31  N   UNK N   1      37.501  13.296  12.682  0.00  0.00    -0.233 N 
HETATM   32  H   UNK N   1      37.986  12.878  13.430  0.00  0.00     0.197 HD
BRANCH  31  33
HETATM   33  O   UNK N   1      38.000  13.173  11.445  0.00  0.00    -0.287 OA
HETATM   34  H   UNK N   1      38.053  13.949  10.864  0.00  0.00     0.244 HD
ENDBRANCH  31  33
ENDBRANCH  11  29
TORSDOF 6
ENDMDL
MODEL 8
REMARK VINA RESULT:      -7.2      3.922      9.938
REMARK  6 active torsions:
REMARK  status: ('A' for Active; 'I' for Inactive)
REMARK    1  A    between atoms: C_4  and  C_11 
REMARK    2  A    between atoms: C_11  and  N_12 
REMARK    3  A    between atoms: N_12  and  C_13 
REMARK    4  A    between atoms: C_13  and  C_14 
REMARK       I    between atoms: N_17  and  C_20 
REMARK    5  A    between atoms: C_24  and  C_28 
REMARK       I    between atoms: C_28  and  N_30 
REMARK    6  A    between atoms: N_30  and  O_31 
ROOT
HETATM    1  C   UNK N   1      35.354  13.889  11.240  0.00  0.00     0.006 C 
HETATM    2  C   UNK N   1      34.770  13.233   9.990  0.00  0.00     0.027 C 
HETATM    3  C   UNK N   1      35.020  14.117   8.772  0.00  0.00     0.141 C 
HETATM    4  N   UNK N   1      34.450  15.420   9.023  0.00  0.00    -0.218 N 
HETATM    5  C   UNK N   1      34.911  16.166  10.174  0.00  0.00     0.141 C 
HETATM    6  C   UNK N   1      34.760  15.300  11.431  0.00  0.00     0.027 C 
HETATM    7  C   UNK N   1      33.389  15.890   8.204  0.00  0.00     0.679 A 
HETATM    8  N   UNK N   1      32.944  15.118   7.177  0.00  0.00    -0.201 N 
ATOM      9  HN  UNK N   1      33.394  14.221   6.994  1.00  0.00     0.183 HD
HETATM   10  C   UNK N   1      31.914  15.516   6.393  0.00  0.00     0.124 A 
HETATM   11  C   UNK N   1      31.286  16.740   6.623  0.00  0.00     0.066 A 
HETATM   12  C   UNK N   1      31.762  17.528   7.680  0.00  0.00     0.124 A 
HETATM   13  N   UNK N   1      32.798  17.093   8.450  0.00  0.00    -0.201 N 
ATOM     14  HN  UNK N   1      33.134  17.674   9.217  1.00  0.00     0.183 HD
ENDROOT
BRANCH   1  15
HETATM   15  C   UNK N   1      36.876  13.888  11.134  0.00  0.00     0.118 C 
BRANCH  15  16
HETATM   16  N   UNK N   1      37.466  13.116  12.208  0.00  0.00    -0.417 N 
HETATM   17  H   UNK N   1      38.247  12.464  12.137  0.00  0.00     0.153 HD
BRANCH  16  18
HETATM   18  C   UNK N   1      36.720  13.458  13.404  0.00  0.00     0.155 C 
BRANCH  18  19
HETATM   19  C   UNK N   1      36.772  12.320  14.355  0.00  0.00    -0.013 A 
HETATM   20  C   UNK N   1      37.412  11.102  14.145  0.00  0.00     0.100 A 
HETATM   21  N   UNK N   1      37.247  10.334  15.246  0.00  0.00    -0.360 N 
HETATM   22  C   UNK N   1      37.768   8.989  15.423  0.00  0.00     0.155 C 
HETATM   23  C   UNK N   1      36.522  11.042  16.131  0.00  0.00     0.044 A 
HETATM   24  C   UNK N   1      36.215  12.268  15.613  0.00  0.00    -0.000 A 
HETATM   25  C   UNK N   1      36.107  10.659  17.406  0.00  0.00     0.030 A 
HETATM   26  C   UNK N   1      35.471  13.207  16.325  0.00  0.00     0.014 A 
HETATM   27  C   UNK N   1      35.036  12.853  17.614  0.00  0.00     0.001 A 
HETATM   28  C   UNK N   1      35.353  11.584  18.153  0.00  0.00     0.002 A 
ENDBRANCH  18  19
ENDBRANCH  16  18
ENDBRANCH  15  16
ENDBRANCH   1  15
BRANCH  11  29
HETATM   29  C   UNK N   1      30.144  17.145   5.754  0.00  0.00     0.277 C 
HETATM   30  O   UNK N   1      29.006  16.931   6.143  0.00  0.00    -0.265 OA
HETATM   31  N   UNK N   1      30.310  17.745   4.548  0.00  0.00    -0.233 N 
HETATM   32  H   UNK N   1      29.512  17.995   4.029  0.00  0.00     0.197 HD
BRANCH  31  33
HETATM   33  O   UNK N   1      31.519  18.012   4.036  0.00  0.00    -0.287 OA
HETATM   34  H   UNK N   1      32.303  17.999   4.608  0.00  0.00     0.244 HD
ENDBRANCH  31  33
ENDBRANCH  11  29
TORSDOF 6
ENDMDL
MODEL 9
REMARK VINA RESULT:      -7.1      3.717      6.717
REMARK  6 active torsions:
REMARK  status: ('A' for Active; 'I' for Inactive)
REMARK    1  A    between atoms: C_4  and  C_11 
REMARK    2  A    between atoms: C_11  and  N_12 
REMARK    3  A    between atoms: N_12  and  C_13 
REMARK    4  A    between atoms: C_13  and  C_14 
REMARK       I    between atoms: N_17  and  C_20 
REMARK    5  A    between atoms: C_24  and  C_28 
REMARK       I    between atoms: C_28  and  N_30 
REMARK    6  A    between atoms: N_30  and  O_31 
ROOT
HETATM    1  C   UNK N   1      28.460  14.533   4.871  0.00  0.00     0.006 C 
HETATM    2  C   UNK N   1      28.482  15.665   5.896  0.00  0.00     0.027 C 
HETATM    3  C   UNK N   1      29.700  16.554   5.665  0.00  0.00     0.141 C 
HETATM    4  N   UNK N   1      30.887  15.736   5.726  0.00  0.00    -0.218 N 
HETATM    5  C   UNK N   1      31.010  14.624   4.809  0.00  0.00     0.141 C 
HETATM    6  C   UNK N   1      29.773  13.725   4.935  0.00  0.00     0.027 C 
HETATM    7  C   UNK N   1      31.851  15.974   6.743  0.00  0.00     0.679 A 
HETATM    8  N   UNK N   1      31.653  16.988   7.627  0.00  0.00    -0.201 N 
ATOM      9  HN  UNK N   1      30.827  17.580   7.533  1.00  0.00     0.183 HD
HETATM   10  C   UNK N   1      32.531  17.228   8.629  0.00  0.00     0.124 A 
HETATM   11  C   UNK N   1      33.668  16.434   8.775  0.00  0.00     0.066 A 
HETATM   12  C   UNK N   1      33.862  15.398   7.851  0.00  0.00     0.124 A 
HETATM   13  N   UNK N   1      32.955  15.185   6.858  0.00  0.00    -0.201 N 
ATOM     14  HN  UNK N   1      33.105  14.426   6.194  1.00  0.00     0.183 HD
ENDROOT
BRANCH   1  15
HETATM   15  C   UNK N   1      28.184  15.122   3.491  0.00  0.00     0.118 C 
BRANCH  15  16
HETATM   16  N   UNK N   1      26.789  14.966   3.135  0.00  0.00    -0.417 N 
HETATM   17  H   UNK N   1      26.185  14.173   3.352  0.00  0.00     0.153 HD
BRANCH  16  18
HETATM   18  C   UNK N   1      26.425  16.167   2.407  0.00  0.00     0.155 C 
BRANCH  18  19
HETATM   19  C   UNK N   1      25.738  17.107   3.328  0.00  0.00    -0.013 A 
HETATM   20  C   UNK N   1      24.428  17.002   3.783  0.00  0.00     0.100 A 
HETATM   21  N   UNK N   1      24.176  18.040   4.613  0.00  0.00    -0.360 N 
HETATM   22  C   UNK N   1      22.918  18.287   5.298  0.00  0.00     0.155 C 
HETATM   23  C   UNK N   1      25.294  18.785   4.683  0.00  0.00     0.044 A 
HETATM   24  C   UNK N   1      26.273  18.237   3.904  0.00  0.00    -0.000 A 
HETATM   25  C   UNK N   1      25.507  19.950   5.418  0.00  0.00     0.030 A 
HETATM   26  C   UNK N   1      27.539  18.809   3.797  0.00  0.00     0.014 A 
HETATM   27  C   UNK N   1      27.788  19.985   4.525  0.00  0.00     0.001 A 
HETATM   28  C   UNK N   1      26.776  20.554   5.333  0.00  0.00     0.002 A 
ENDBRANCH  18  19
ENDBRANCH  16  18
ENDBRANCH  15  16
ENDBRANCH   1  15
BRANCH  11  29
HETATM   29  C   UNK N   1      34.610  16.712   9.899  0.00  0.00     0.277 C 
HETATM   30  O   UNK N   1      35.434  17.604   9.766  0.00  0.00    -0.265 OA
HETATM   31  N   UNK N   1      34.591  16.021  11.066  0.00  0.00    -0.233 N 
HETATM   32  H   UNK N   1      35.235  16.262  11.769  0.00  0.00     0.197 HD
BRANCH  31  33
HETATM   33  O   UNK N   1      33.730  15.021  11.298  0.00  0.00    -0.287 OA
HETATM   34  H   UNK N   1      32.796  15.216  11.472  0.00  0.00     0.244 HD
ENDBRANCH  31  33
ENDBRANCH  11  29
TORSDOF 6
ENDMDL
