MODEL 1
REMARK VINA RESULT:      -7.6      0.000      0.000
REMARK  7 active torsions:
REMARK  status: ('A' for Active; 'I' for Inactive)
REMARK    1  A    between atoms: C_2  and  C_3 
REMARK    2  A    between atoms: C_2  and  N_11 
REMARK    3  A    between atoms: C_3  and  C_4 
REMARK    4  A    between atoms: C_3  and  O_10 
REMARK    5  A    between atoms: N_11  and  C_12 
REMARK    6  A    between atoms: C_12  and  C_13 
REMARK    7  A    between atoms: C_13  and  N_14 
ROOT
HETATM    1  C   UNK N   1      35.474  13.510  11.423  0.00  0.00     0.149 C 
ENDROOT
BRANCH   1   2
HETATM    2  C   UNK N   1      36.639  13.486  12.400  0.00  0.00     0.134 C 
BRANCH   2   3
HETATM    3  N   UNK N   1      36.104  13.620  13.753  0.00  0.00    -0.413 N 
HETATM    4  H   UNK N   1      35.491  14.385  14.035  0.00  0.00     0.153 HD
BRANCH   3   5
HETATM    5  C   UNK N   1      36.528  12.551  14.675  0.00  0.00     0.105 C 
HETATM    6  C   UNK N   1      37.597  11.604  14.113  0.00  0.00     0.035 C 
BRANCH   5   7
HETATM    7  C   UNK N   1      35.329  11.828  15.301  0.00  0.00     0.173 C 
BRANCH   7   8
HETATM    8  C   UNK N   1      35.287  12.077  16.791  0.00  0.00    -0.028 A 
HETATM    9  C   UNK N   1      35.381  10.999  17.684  0.00  0.00     0.010 A 
HETATM   10  C   UNK N   1      35.380  11.220  19.063  0.00  0.00     0.001 A 
HETATM   11  C   UNK N   1      35.286  12.521  19.562  0.00  0.00     0.000 A 
HETATM   12  C   UNK N   1      35.182  13.601  18.681  0.00  0.00     0.001 A 
HETATM   13  C   UNK N   1      35.179  13.381  17.302  0.00  0.00     0.010 A 
ENDBRANCH   7   8
BRANCH   7  14
HETATM   14  O   UNK N   1      34.154  12.290  14.697  0.00  0.00    -0.389 OA
HETATM   15  H   UNK N   1      34.202  12.913  13.954  0.00  0.00     0.210 HD
ENDBRANCH   7  14
ENDBRANCH   5   7
ENDBRANCH   3   5
ENDBRANCH   2   3
ENDBRANCH   1   2
BRANCH   1  16
HETATM   16  N   UNK N   1      35.307  14.813  10.804  0.00  0.00    -0.334 N 
HETATM   17  C   UNK N   1      35.223  15.995  11.460  0.00  0.00     0.185 A 
HETATM   18  N   UNK N   1      34.996  17.022  10.596  0.00  0.00    -0.336 N 
HETATM   19  C   UNK N   1      34.934  16.431   9.388  0.00  0.00     0.145 A 
ATOM     20  HN  UNK N   1      34.895  18.013  10.815  1.00  0.00     0.168 HD
HETATM   21  C   UNK N   1      35.126  15.101   9.507  0.00  0.00     0.149 A 
HETATM   22  N   UNK N   1      34.694  17.029   8.195  0.00  0.00    -0.287 N 
HETATM   23  C   UNK N   1      35.095  14.278   8.389  0.00  0.00     0.282 A 
HETATM   24  O   UNK N   1      35.266  13.074   8.491  0.00  0.00    -0.265 OA
HETATM   25  N   UNK N   1      34.860  14.861   7.158  0.00  0.00    -0.269 N 
HETATM   26  C   UNK N   1      34.654  16.236   7.058  0.00  0.00     0.332 A 
HETATM   27  C   UNK N   1      34.820  14.030   5.957  0.00  0.00     0.164 C 
HETATM   28  O   UNK N   1      34.435  16.743   5.970  0.00  0.00    -0.246 OA
HETATM   29  C   UNK N   1      34.472  18.468   8.122  0.00  0.00     0.163 C 
ENDBRANCH   1  16
TORSDOF 7
ENDMDL
MODEL 2
REMARK VINA RESULT:      -7.2      1.135      2.204
REMARK  7 active torsions:
REMARK  status: ('A' for Active; 'I' for Inactive)
REMARK    1  A    between atoms: C_2  and  C_3 
REMARK    2  A    between atoms: C_2  and  N_11 
REMARK    3  A    between atoms: C_3  and  C_4 
REMARK    4  A    between atoms: C_3  and  O_10 
REMARK    5  A    between atoms: N_11  and  C_12 
REMARK    6  A    between atoms: C_12  and  C_13 
REMARK    7  A    between atoms: C_13  and  N_14 
ROOT
HETATM    1  C   UNK N   1      35.810  14.877  11.867  0.00  0.00     0.149 C 
ENDROOT
BRANCH   1   2
HETATM    2  C   UNK N   1      36.555  13.861  12.718  0.00  0.00     0.134 C 
BRANCH   2   3
HETATM    3  N   UNK N   1      35.576  13.126  13.515  0.00  0.00    -0.413 N 
HETATM    4  H   UNK N   1      34.585  13.085  13.279  0.00  0.00     0.153 HD
BRANCH   3   5
HETATM    5  C   UNK N   1      36.149  12.449  14.693  0.00  0.00     0.105 C 
HETATM    6  C   UNK N   1      37.449  11.679  14.423  0.00  0.00     0.035 C 
BRANCH   5   7
HETATM    7  C   UNK N   1      35.094  11.635  15.452  0.00  0.00     0.173 C 
BRANCH   7   8
HETATM    8  C   UNK N   1      35.160  11.941  16.931  0.00  0.00    -0.028 A 
HETATM    9  C   UNK N   1      35.354  10.902  17.853  0.00  0.00     0.010 A 
HETATM   10  C   UNK N   1      35.454  11.177  19.219  0.00  0.00     0.001 A 
HETATM   11  C   UNK N   1      35.360  12.494  19.674  0.00  0.00     0.000 A 
HETATM   12  C   UNK N   1      35.158  13.535  18.765  0.00  0.00     0.001 A 
HETATM   13  C   UNK N   1      35.055  13.261  17.399  0.00  0.00     0.010 A 
ENDBRANCH   7   8
BRANCH   7  14
HETATM   14  O   UNK N   1      33.827  11.949  14.947  0.00  0.00    -0.389 OA
HETATM   15  H   UNK N   1      33.486  12.855  15.020  0.00  0.00     0.210 HD
ENDBRANCH   7  14
ENDBRANCH   5   7
ENDBRANCH   3   5
ENDBRANCH   2   3
ENDBRANCH   1   2
BRANCH   1  16
HETATM   16  N   UNK N   1      35.679  14.445  10.487  0.00  0.00    -0.334 N 
HETATM   17  C   UNK N   1      36.004  13.220  10.009  0.00  0.00     0.185 A 
HETATM   18  N   UNK N   1      35.832  13.157   8.660  0.00  0.00    -0.336 N 
HETATM   19  C   UNK N   1      35.401  14.388   8.323  0.00  0.00     0.145 A 
ATOM     20  HN  UNK N   1      35.995  12.360   8.045  1.00  0.00     0.168 HD
HETATM   21  C   UNK N   1      35.302  15.165   9.421  0.00  0.00     0.149 A 
HETATM   22  N   UNK N   1      35.114  14.842   7.079  0.00  0.00    -0.287 N 
HETATM   23  C   UNK N   1      34.885  16.486   9.318  0.00  0.00     0.282 A 
HETATM   24  O   UNK N   1      34.795  17.195  10.307  0.00  0.00    -0.265 OA
HETATM   25  N   UNK N   1      34.577  16.975   8.062  0.00  0.00    -0.269 N 
HETATM   26  C   UNK N   1      34.696  16.157   6.940  0.00  0.00     0.332 A 
HETATM   27  C   UNK N   1      34.134  18.359   7.911  0.00  0.00     0.164 C 
HETATM   28  O   UNK N   1      34.436  16.599   5.832  0.00  0.00    -0.246 OA
HETATM   29  C   UNK N   1      35.257  13.967   5.921  0.00  0.00     0.163 C 
ENDBRANCH   1  16
TORSDOF 7
ENDMDL
MODEL 3
REMARK VINA RESULT:      -7.1     14.017     15.743
REMARK  7 active torsions:
REMARK  status: ('A' for Active; 'I' for Inactive)
REMARK    1  A    between atoms: C_2  and  C_3 
REMARK    2  A    between atoms: C_2  and  N_11 
REMARK    3  A    between atoms: C_3  and  C_4 
REMARK    4  A    between atoms: C_3  and  O_10 
REMARK    5  A    between atoms: N_11  and  C_12 
REMARK    6  A    between atoms: C_12  and  C_13 
REMARK    7  A    between atoms: C_13  and  N_14 
ROOT
HETATM    1  C   UNK N   1      20.389  16.809   6.284  0.00  0.00     0.149 C 
ENDROOT
BRANCH   1   2
HETATM    2  C   UNK N   1      21.817  16.421   6.632  0.00  0.00     0.134 C 
BRANCH   2   3
HETATM    3  N   UNK N   1      21.773  15.259   7.516  0.00  0.00    -0.413 N 
HETATM    4  H   UNK N   1      21.191  15.219   8.352  0.00  0.00     0.153 HD
BRANCH   3   5
HETATM    5  C   UNK N   1      22.646  14.149   7.091  0.00  0.00     0.105 C 
HETATM    6  C   UNK N   1      23.055  14.181   5.612  0.00  0.00     0.035 C 
BRANCH   5   7
HETATM    7  C   UNK N   1      22.107  12.790   7.555  0.00  0.00     0.173 C 
BRANCH   7   8
HETATM    8  C   UNK N   1      22.542  12.510   8.975  0.00  0.00    -0.028 A 
HETATM    9  C   UNK N   1      23.904  12.346   9.271  0.00  0.00     0.010 A 
HETATM   10  C   UNK N   1      24.321  12.124  10.584  0.00  0.00     0.001 A 
HETATM   11  C   UNK N   1      23.380  12.065  11.615  0.00  0.00     0.000 A 
HETATM   12  C   UNK N   1      22.022  12.218  11.330  0.00  0.00     0.001 A 
HETATM   13  C   UNK N   1      21.602  12.437  10.016  0.00  0.00     0.010 A 
ENDBRANCH   7   8
BRANCH   7  14
HETATM   14  O   UNK N   1      20.710  12.802   7.468  0.00  0.00    -0.389 OA
HETATM   15  H   UNK N   1      20.247  13.613   7.206  0.00  0.00     0.210 HD
ENDBRANCH   7  14
ENDBRANCH   5   7
ENDBRANCH   3   5
ENDBRANCH   2   3
ENDBRANCH   1   2
BRANCH   1  16
HETATM   16  N   UNK N   1      20.104  16.637   4.870  0.00  0.00    -0.334 N 
HETATM   17  C   UNK N   1      19.646  15.503   4.289  0.00  0.00     0.185 A 
HETATM   18  N   UNK N   1      19.552  15.646   2.938  0.00  0.00    -0.336 N 
HETATM   19  C   UNK N   1      19.977  16.903   2.708  0.00  0.00     0.145 A 
ATOM     20  HN  UNK N   1      19.234  14.957   2.257  1.00  0.00     0.168 HD
HETATM   21  C   UNK N   1      20.305  17.506   3.869  0.00  0.00     0.149 A 
HETATM   22  N   UNK N   1      20.098  17.518   1.506  0.00  0.00    -0.287 N 
HETATM   23  C   UNK N   1      20.782  18.811   3.879  0.00  0.00     0.282 A 
HETATM   24  O   UNK N   1      21.082  19.361   4.927  0.00  0.00    -0.265 OA
HETATM   25  N   UNK N   1      20.909  19.466   2.669  0.00  0.00    -0.269 N 
HETATM   26  C   UNK N   1      20.573  18.821   1.481  0.00  0.00     0.332 A 
HETATM   27  C   UNK N   1      21.406  20.840   2.638  0.00  0.00     0.164 C 
HETATM   28  O   UNK N   1      20.700  19.401   0.414  0.00  0.00    -0.246 OA
HETATM   29  C   UNK N   1      19.749  16.815   0.278  0.00  0.00     0.163 C 
ENDBRANCH   1  16
TORSDOF 7
ENDMDL
MODEL 4
REMARK VINA RESULT:      -7.1     12.678     14.353
REMARK  7 active torsions:
REMARK  status: ('A' for Active; 'I' for Inactive)
REMARK    1  A    between atoms: C_2  and  C_3 
REMARK    2  A    between atoms: C_2  and  N_11 
REMARK    3  A    between atoms: C_3  and  C_4 
REMARK    4  A    between atoms: C_3  and  O_10 
REMARK    5  A    between atoms: N_11  and  C_12 
REMARK    6  A    between atoms: C_12  and  C_13 
REMARK    7  A    between atoms: C_13  and  N_14 
ROOT
HETATM    1  C   UNK N   1      23.700  15.317   4.966  0.00  0.00     0.149 C 
ENDROOT
BRANCH   1   2
HETATM    2  C   UNK N   1      23.537  15.390   6.476  0.00  0.00     0.134 C 
BRANCH   2   3
HETATM    3  N   UNK N   1      22.127  15.629   6.773  0.00  0.00    -0.413 N 
HETATM    4  H   UNK N   1      21.700  16.554   6.735  0.00  0.00     0.153 HD
BRANCH   3   5
HETATM    5  C   UNK N   1      21.375  14.412   7.132  0.00  0.00     0.105 C 
HETATM    6  C   UNK N   1      20.479  13.857   6.017  0.00  0.00     0.035 C 
BRANCH   5   7
HETATM    7  C   UNK N   1      20.662  14.559   8.482  0.00  0.00     0.173 C 
BRANCH   7   8
HETATM    8  C   UNK N   1      21.283  13.636   9.505  0.00  0.00    -0.028 A 
HETATM    9  C   UNK N   1      22.667  13.407   9.493  0.00  0.00     0.010 A 
HETATM   10  C   UNK N   1      23.258  12.586  10.456  0.00  0.00     0.001 A 
HETATM   11  C   UNK N   1      22.469  11.986  11.441  0.00  0.00     0.000 A 
HETATM   12  C   UNK N   1      21.089  12.201  11.457  0.00  0.00     0.001 A 
HETATM   13  C   UNK N   1      20.496  13.019  10.492  0.00  0.00     0.010 A 
ENDBRANCH   7   8
BRANCH   7  14
HETATM   14  O   UNK N   1      20.760  15.890   8.905  0.00  0.00    -0.389 OA
HETATM   15  H   UNK N   1      21.512  16.435   8.623  0.00  0.00     0.210 HD
ENDBRANCH   7  14
ENDBRANCH   5   7
ENDBRANCH   3   5
ENDBRANCH   2   3
ENDBRANCH   1   2
BRANCH   1  16
HETATM   16  N   UNK N   1      24.406  16.470   4.437  0.00  0.00    -0.334 N 
HETATM   17  C   UNK N   1      25.751  16.592   4.329  0.00  0.00     0.185 A 
HETATM   18  N   UNK N   1      26.098  17.822   3.862  0.00  0.00    -0.336 N 
HETATM   19  C   UNK N   1      24.922  18.456   3.695  0.00  0.00     0.145 A 
ATOM     20  HN  UNK N   1      27.035  18.181   3.681  1.00  0.00     0.168 HD
HETATM   21  C   UNK N   1      23.900  17.645   4.034  0.00  0.00     0.149 A 
HETATM   22  N   UNK N   1      24.733  19.730   3.272  0.00  0.00    -0.287 N 
HETATM   23  C   UNK N   1      22.586  18.088   3.954  0.00  0.00     0.282 A 
HETATM   24  O   UNK N   1      21.657  17.359   4.261  0.00  0.00    -0.265 OA
HETATM   25  N   UNK N   1      22.361  19.381   3.518  0.00  0.00    -0.269 N 
HETATM   26  C   UNK N   1      23.432  20.206   3.181  0.00  0.00     0.332 A 
HETATM   27  C   UNK N   1      20.994  19.885   3.419  0.00  0.00     0.164 C 
HETATM   28  O   UNK N   1      23.228  21.350   2.810  0.00  0.00    -0.246 OA
HETATM   29  C   UNK N   1      25.872  20.575   2.936  0.00  0.00     0.163 C 
ENDBRANCH   1  16
TORSDOF 7
ENDMDL
MODEL 5
REMARK VINA RESULT:      -7.0      6.401      9.909
REMARK  7 active torsions:
REMARK  status: ('A' for Active; 'I' for Inactive)
REMARK    1  A    between atoms: C_2  and  C_3 
REMARK    2  A    between atoms: C_2  and  N_11 
REMARK    3  A    between atoms: C_3  and  C_4 
REMARK    4  A    between atoms: C_3  and  O_10 
REMARK    5  A    between atoms: N_11  and  C_12 
REMARK    6  A    between atoms: C_12  and  C_13 
REMARK    7  A    between atoms: C_13  and  N_14 
ROOT
HETATM    1  C   UNK N   1      30.514  17.105   8.477  0.00  0.00     0.149 C 
ENDROOT
BRANCH   1   2
HETATM    2  C   UNK N   1      31.668  18.088   8.588  0.00  0.00     0.134 C 
BRANCH   2   3
HETATM    3  N   UNK N   1      32.874  17.341   8.937  0.00  0.00    -0.413 N 
HETATM    4  H   UNK N   1      33.430  17.540   9.768  0.00  0.00     0.153 HD
BRANCH   3   5
HETATM    5  C   UNK N   1      33.214  16.271   7.981  0.00  0.00     0.105 C 
HETATM    6  C   UNK N   1      33.526  14.912   8.620  0.00  0.00     0.035 C 
BRANCH   5   7
HETATM    7  C   UNK N   1      34.263  16.730   6.960  0.00  0.00     0.173 C 
BRANCH   7   8
HETATM    8  C   UNK N   1      33.720  16.602   5.556  0.00  0.00    -0.028 A 
HETATM    9  C   UNK N   1      32.969  17.647   4.997  0.00  0.00     0.010 A 
HETATM   10  C   UNK N   1      32.492  17.556   3.687  0.00  0.00     0.001 A 
HETATM   11  C   UNK N   1      32.764  16.418   2.923  0.00  0.00     0.000 A 
HETATM   12  C   UNK N   1      33.503  15.368   3.473  0.00  0.00     0.001 A 
HETATM   13  C   UNK N   1      33.977  15.456   4.784  0.00  0.00     0.010 A 
ENDBRANCH   7   8
BRANCH   7  14
HETATM   14  O   UNK N   1      34.606  18.061   7.228  0.00  0.00    -0.389 OA
HETATM   15  H   UNK N   1      33.910  18.721   7.377  0.00  0.00     0.210 HD
ENDBRANCH   7  14
ENDBRANCH   5   7
ENDBRANCH   3   5
ENDBRANCH   2   3
ENDBRANCH   1   2
BRANCH   1  16
HETATM   16  N   UNK N   1      29.397  17.655   7.730  0.00  0.00    -0.334 N 
HETATM   17  C   UNK N   1      28.569  18.638   8.157  0.00  0.00     0.185 A 
HETATM   18  N   UNK N   1      27.579  18.875   7.253  0.00  0.00    -0.336 N 
HETATM   19  C   UNK N   1      27.821  17.998   6.260  0.00  0.00     0.145 A 
ATOM     20  HN  UNK N   1      26.826  19.560   7.315  1.00  0.00     0.168 HD
HETATM   21  C   UNK N   1      28.918  17.265   6.540  0.00  0.00     0.149 A 
HETATM   22  N   UNK N   1      27.091  17.818   5.132  0.00  0.00    -0.287 N 
HETATM   23  C   UNK N   1      29.357  16.283   5.661  0.00  0.00     0.282 A 
HETATM   24  O   UNK N   1      30.348  15.615   5.910  0.00  0.00    -0.265 OA
HETATM   25  N   UNK N   1      28.637  16.083   4.498  0.00  0.00    -0.269 N 
HETATM   26  C   UNK N   1      27.501  16.845   4.233  0.00  0.00     0.332 A 
HETATM   27  C   UNK N   1      29.066  15.060   3.547  0.00  0.00     0.164 C 
HETATM   28  O   UNK N   1      26.863  16.654   3.210  0.00  0.00    -0.246 OA
HETATM   29  C   UNK N   1      25.901  18.624   4.885  0.00  0.00     0.163 C 
ENDBRANCH   1  16
TORSDOF 7
ENDMDL
MODEL 6
REMARK VINA RESULT:      -7.0      5.821      9.317
REMARK  7 active torsions:
REMARK  status: ('A' for Active; 'I' for Inactive)
REMARK    1  A    between atoms: C_2  and  C_3 
REMARK    2  A    between atoms: C_2  and  N_11 
REMARK    3  A    between atoms: C_3  and  C_4 
REMARK    4  A    between atoms: C_3  and  O_10 
REMARK    5  A    between atoms: N_11  and  C_12 
REMARK    6  A    between atoms: C_12  and  C_13 
REMARK    7  A    between atoms: C_13  and  N_14 
ROOT
HETATM    1  C   UNK N   1      32.736  16.248   3.510  0.00  0.00     0.149 C 
ENDROOT
BRANCH   1   2
HETATM    2  C   UNK N   1      31.303  16.650   3.200  0.00  0.00     0.134 C 
BRANCH   2   3
HETATM    3  N   UNK N   1      30.867  17.608   4.213  0.00  0.00    -0.413 N 
HETATM    4  H   UNK N   1      31.458  18.369   4.548  0.00  0.00     0.153 HD
BRANCH   3   5
HETATM    5  C   UNK N   1      29.497  17.378   4.707  0.00  0.00     0.105 C 
HETATM    6  C   UNK N   1      28.689  18.653   4.981  0.00  0.00     0.035 C 
BRANCH   5   7
HETATM    7  C   UNK N   1      29.469  16.367   5.860  0.00  0.00     0.173 C 
BRANCH   7   8
HETATM    8  C   UNK N   1      29.419  17.088   7.188  0.00  0.00    -0.028 A 
HETATM    9  C   UNK N   1      30.594  17.618   7.742  0.00  0.00     0.010 A 
HETATM   10  C   UNK N   1      30.556  18.318   8.949  0.00  0.00     0.001 A 
HETATM   11  C   UNK N   1      29.340  18.495   9.614  0.00  0.00     0.000 A 
HETATM   12  C   UNK N   1      28.165  17.964   9.076  0.00  0.00     0.001 A 
HETATM   13  C   UNK N   1      28.203  17.261   7.870  0.00  0.00     0.010 A 
ENDBRANCH   7   8
BRANCH   7  14
HETATM   14  O   UNK N   1      28.348  15.541   5.713  0.00  0.00    -0.389 OA
HETATM   15  H   UNK N   1      28.263  14.738   6.251  0.00  0.00     0.210 HD
ENDBRANCH   7  14
ENDBRANCH   5   7
ENDBRANCH   3   5
ENDBRANCH   2   3
ENDBRANCH   1   2
BRANCH   1  16
HETATM   16  N   UNK N   1      32.829  15.436   4.710  0.00  0.00    -0.334 N 
HETATM   17  C   UNK N   1      32.409  14.154   4.831  0.00  0.00     0.185 A 
HETATM   18  N   UNK N   1      32.572  13.702   6.104  0.00  0.00    -0.336 N 
HETATM   19  C   UNK N   1      33.096  14.751   6.765  0.00  0.00     0.145 A 
ATOM     20  HN  UNK N   1      32.346  12.778   6.474  1.00  0.00     0.168 HD
HETATM   21  C   UNK N   1      33.259  15.796   5.928  0.00  0.00     0.149 A 
HETATM   22  N   UNK N   1      33.414  14.814   8.081  0.00  0.00    -0.287 N 
HETATM   23  C   UNK N   1      33.777  17.000   6.390  0.00  0.00     0.282 A 
HETATM   24  O   UNK N   1      33.924  17.950   5.638  0.00  0.00    -0.265 OA
HETATM   25  N   UNK N   1      34.118  17.091   7.726  0.00  0.00    -0.269 N 
HETATM   26  C   UNK N   1      33.933  16.002   8.575  0.00  0.00     0.332 A 
HETATM   27  C   UNK N   1      34.667  18.339   8.251  0.00  0.00     0.164 C 
HETATM   28  O   UNK N   1      34.224  16.093   9.757  0.00  0.00    -0.246 OA
HETATM   29  C   UNK N   1      33.201  13.662   8.949  0.00  0.00     0.163 C 
ENDBRANCH   1  16
TORSDOF 7
ENDMDL
MODEL 7
REMARK VINA RESULT:      -6.9      3.034      4.821
REMARK  7 active torsions:
REMARK  status: ('A' for Active; 'I' for Inactive)
REMARK    1  A    between atoms: C_2  and  C_3 
REMARK    2  A    between atoms: C_2  and  N_11 
REMARK    3  A    between atoms: C_3  and  C_4 
REMARK    4  A    between atoms: C_3  and  O_10 
REMARK    5  A    between atoms: N_11  and  C_12 
REMARK    6  A    between atoms: C_12  and  C_13 
REMARK    7  A    between atoms: C_13  and  N_14 
ROOT
HETATM    1  C   UNK N   1      34.105  17.745   8.576  0.00  0.00     0.149 C 
ENDROOT
BRANCH   1   2
HETATM    2  C   UNK N   1      34.794  16.446   8.963  0.00  0.00     0.134 C 
BRANCH   2   3
HETATM    3  N   UNK N   1      35.085  16.492  10.394  0.00  0.00    -0.413 N 
HETATM    4  H   UNK N   1      34.794  17.261  10.996  0.00  0.00     0.153 HD
BRANCH   3   5
HETATM    5  C   UNK N   1      35.837  15.324  10.891  0.00  0.00     0.105 C 
HETATM    6  C   UNK N   1      36.899  14.784   9.923  0.00  0.00     0.035 C 
BRANCH   5   7
HETATM    7  C   UNK N   1      34.906  14.243  11.454  0.00  0.00     0.173 C 
BRANCH   7   8
HETATM    8  C   UNK N   1      35.394  13.787  12.810  0.00  0.00    -0.028 A 
HETATM    9  C   UNK N   1      36.285  14.587  13.540  0.00  0.00     0.010 A 
HETATM   10  C   UNK N   1      36.714  14.195  14.809  0.00  0.00     0.001 A 
HETATM   11  C   UNK N   1      36.253  12.997  15.362  0.00  0.00     0.000 A 
HETATM   12  C   UNK N   1      35.372  12.188  14.640  0.00  0.00     0.001 A 
HETATM   13  C   UNK N   1      34.945  12.578  13.369  0.00  0.00     0.010 A 
ENDBRANCH   7   8
BRANCH   7  14
HETATM   14  O   UNK N   1      33.611  14.766  11.554  0.00  0.00    -0.389 OA
HETATM   15  H   UNK N   1      33.456  15.712  11.401  0.00  0.00     0.210 HD
ENDBRANCH   7  14
ENDBRANCH   5   7
ENDBRANCH   3   5
ENDBRANCH   2   3
ENDBRANCH   1   2
BRANCH   1  16
HETATM   16  N   UNK N   1      32.731  17.532   8.159  0.00  0.00    -0.334 N 
HETATM   17  C   UNK N   1      31.666  17.398   8.985  0.00  0.00     0.185 A 
HETATM   18  N   UNK N   1      30.529  17.138   8.283  0.00  0.00    -0.336 N 
HETATM   19  C   UNK N   1      30.932  17.106   6.999  0.00  0.00     0.145 A 
ATOM     20  HN  UNK N   1      29.587  16.997   8.648  1.00  0.00     0.168 HD
HETATM   21  C   UNK N   1      32.256  17.349   6.918  0.00  0.00     0.149 A 
HETATM   22  N   UNK N   1      30.169  16.850   5.908  0.00  0.00    -0.287 N 
HETATM   23  C   UNK N   1      32.901  17.355   5.688  0.00  0.00     0.282 A 
HETATM   24  O   UNK N   1      34.100  17.572   5.609  0.00  0.00    -0.265 OA
HETATM   25  N   UNK N   1      32.147  17.106   4.557  0.00  0.00    -0.269 N 
HETATM   26  C   UNK N   1      30.782  16.848   4.664  0.00  0.00     0.332 A 
HETATM   27  C   UNK N   1      32.788  17.105   3.244  0.00  0.00     0.164 C 
HETATM   28  O   UNK N   1      30.124  16.616   3.662  0.00  0.00    -0.246 OA
HETATM   29  C   UNK N   1      28.745  16.574   6.051  0.00  0.00     0.163 C 
ENDBRANCH   1  16
TORSDOF 7
ENDMDL
MODEL 8
REMARK VINA RESULT:      -6.9      7.611     12.605
REMARK  7 active torsions:
REMARK  status: ('A' for Active; 'I' for Inactive)
REMARK    1  A    between atoms: C_2  and  C_3 
REMARK    2  A    between atoms: C_2  and  N_11 
REMARK    3  A    between atoms: C_3  and  C_4 
REMARK    4  A    between atoms: C_3  and  O_10 
REMARK    5  A    between atoms: N_11  and  C_12 
REMARK    6  A    between atoms: C_12  and  C_13 
REMARK    7  A    between atoms: C_13  and  N_14 
ROOT
HETATM    1  C   UNK N   1      28.242  17.299   6.990  0.00  0.00     0.149 C 
ENDROOT
BRANCH   1   2
HETATM    2  C   UNK N   1      27.796  18.715   6.662  0.00  0.00     0.134 C 
BRANCH   2   3
HETATM    3  N   UNK N   1      27.982  18.932   5.229  0.00  0.00    -0.413 N 
HETATM    4  H   UNK N   1      28.831  19.334   4.833  0.00  0.00     0.153 HD
BRANCH   3   5
HETATM    5  C   UNK N   1      26.832  18.516   4.405  0.00  0.00     0.105 C 
HETATM    6  C   UNK N   1      27.080  17.282   3.529  0.00  0.00     0.035 C 
BRANCH   5   7
HETATM    7  C   UNK N   1      26.215  19.699   3.648  0.00  0.00     0.173 C 
BRANCH   7   8
HETATM    8  C   UNK N   1      24.709  19.576   3.620  0.00  0.00    -0.028 A 
HETATM    9  C   UNK N   1      24.071  18.609   4.410  0.00  0.00     0.010 A 
HETATM   10  C   UNK N   1      22.678  18.510   4.421  0.00  0.00     0.001 A 
HETATM   11  C   UNK N   1      21.910  19.379   3.643  0.00  0.00     0.000 A 
HETATM   12  C   UNK N   1      22.536  20.341   2.846  0.00  0.00     0.001 A 
HETATM   13  C   UNK N   1      23.930  20.438   2.831  0.00  0.00     0.010 A 
ENDBRANCH   7   8
BRANCH   7  14
HETATM   14  O   UNK N   1      26.594  20.890   4.279  0.00  0.00    -0.389 OA
HETATM   15  H   UNK N   1      26.279  21.086   5.175  0.00  0.00     0.210 HD
ENDBRANCH   7  14
ENDBRANCH   5   7
ENDBRANCH   3   5
ENDBRANCH   2   3
ENDBRANCH   1   2
BRANCH   1  16
HETATM   16  N   UNK N   1      29.541  17.271   7.638  0.00  0.00    -0.334 N 
HETATM   17  C   UNK N   1      29.759  17.318   8.974  0.00  0.00     0.185 A 
HETATM   18  N   UNK N   1      31.090  17.348   9.255  0.00  0.00    -0.336 N 
HETATM   19  C   UNK N   1      31.684  17.328   8.047  0.00  0.00     0.145 A 
ATOM     20  HN  UNK N   1      31.536  17.379  10.172  1.00  0.00     0.168 HD
HETATM   21  C   UNK N   1      30.755  17.276   7.070  0.00  0.00     0.149 A 
HETATM   22  N   UNK N   1      33.014  17.374   7.788  0.00  0.00    -0.287 N 
HETATM   23  C   UNK N   1      31.133  17.258   5.733  0.00  0.00     0.282 A 
HETATM   24  O   UNK N   1      30.298  17.213   4.845  0.00  0.00    -0.265 OA
HETATM   25  N   UNK N   1      32.484  17.296   5.439  0.00  0.00    -0.269 N 
HETATM   26  C   UNK N   1      33.426  17.359   6.463  0.00  0.00     0.332 A 
HETATM   27  C   UNK N   1      32.922  17.278   4.045  0.00  0.00     0.164 C 
HETATM   28  O   UNK N   1      34.616  17.406   6.196  0.00  0.00    -0.246 OA
HETATM   29  C   UNK N   1      33.977  17.450   8.879  0.00  0.00     0.163 C 
ENDBRANCH   1  16
TORSDOF 7
ENDMDL
MODEL 9
REMARK VINA RESULT:      -6.8      4.752      9.795
REMARK  7 active torsions:
REMARK  status: ('A' for Active; 'I' for Inactive)
REMARK    1  A    between atoms: C_2  and  C_3 
REMARK    2  A    between atoms: C_2  and  N_11 
REMARK    3  A    between atoms: C_3  and  C_4 
REMARK    4  A    between atoms: C_3  and  O_10 
REMARK    5  A    between atoms: N_11  and  C_12 
REMARK    6  A    between atoms: C_12  and  C_13 
REMARK    7  A    between atoms: C_13  and  N_14 
ROOT
HETATM    1  C   UNK N   1      33.204  16.715   5.635  0.00  0.00     0.149 C 
ENDROOT
BRANCH   1   2
HETATM    2  C   UNK N   1      31.786  17.247   5.496  0.00  0.00     0.134 C 
BRANCH   2   3
HETATM    3  N   UNK N   1      30.922  16.486   6.395  0.00  0.00    -0.413 N 
HETATM    4  H   UNK N   1      30.880  15.467   6.396  0.00  0.00     0.153 HD
BRANCH   3   5
HETATM    5  C   UNK N   1      30.115  17.323   7.302  0.00  0.00     0.105 C 
HETATM    6  C   UNK N   1      30.450  17.166   8.791  0.00  0.00     0.035 C 
BRANCH   5   7
HETATM    7  C   UNK N   1      28.616  17.221   6.990  0.00  0.00     0.173 C 
BRANCH   7   8
HETATM    8  C   UNK N   1      28.125  18.499   6.351  0.00  0.00    -0.028 A 
HETATM    9  C   UNK N   1      27.749  19.585   7.156  0.00  0.00     0.010 A 
HETATM   10  C   UNK N   1      27.329  20.784   6.577  0.00  0.00     0.001 A 
HETATM   11  C   UNK N   1      27.282  20.909   5.186  0.00  0.00     0.000 A 
HETATM   12  C   UNK N   1      27.646  19.831   4.376  0.00  0.00     0.001 A 
HETATM   13  C   UNK N   1      28.063  18.629   4.954  0.00  0.00     0.010 A 
ENDBRANCH   7   8
BRANCH   7  14
HETATM   14  O   UNK N   1      28.403  16.135   6.132  0.00  0.00    -0.389 OA
HETATM   15  H   UNK N   1      28.347  16.278   5.174  0.00  0.00     0.210 HD
ENDBRANCH   7  14
ENDBRANCH   5   7
ENDBRANCH   3   5
ENDBRANCH   2   3
ENDBRANCH   1   2
BRANCH   1  16
HETATM   16  N   UNK N   1      33.715  16.869   6.986  0.00  0.00    -0.334 N 
HETATM   17  C   UNK N   1      34.204  18.015   7.519  0.00  0.00     0.185 A 
HETATM   18  N   UNK N   1      34.670  17.809   8.781  0.00  0.00    -0.336 N 
HETATM   19  C   UNK N   1      34.461  16.498   9.003  0.00  0.00     0.145 A 
ATOM     20  HN  UNK N   1      35.084  18.493   9.415  1.00  0.00     0.168 HD
HETATM   21  C   UNK N   1      33.880  15.929   7.926  0.00  0.00     0.149 A 
HETATM   22  N   UNK N   1      34.785  15.794  10.115  0.00  0.00    -0.287 N 
HETATM   23  C   UNK N   1      33.578  14.573   7.919  0.00  0.00     0.282 A 
HETATM   24  O   UNK N   1      33.055  14.052   6.947  0.00  0.00    -0.265 OA
HETATM   25  N   UNK N   1      33.889  13.831   9.043  0.00  0.00    -0.269 N 
HETATM   26  C   UNK N   1      34.497  14.437  10.140  0.00  0.00     0.332 A 
HETATM   27  C   UNK N   1      33.586  12.402   9.075  0.00  0.00     0.164 C 
HETATM   28  O   UNK N   1      34.782  13.773  11.124  0.00  0.00    -0.246 OA
HETATM   29  C   UNK N   1      35.429  16.452  11.244  0.00  0.00     0.163 C 
ENDBRANCH   1  16
TORSDOF 7
ENDMDL
