REMARK  6 active torsions:
REMARK  status: ('A' for Active; 'I' for Inactive)
REMARK    1  A    between atoms: O_2  and  C_3 
REMARK    2  A    between atoms: C_12  and  C_5 
REMARK    3  A    between atoms: C_8  and  O_9 
REMARK    4  A    between atoms: C_16  and  N_26 
REMARK    5  A    between atoms: C_17  and  N_25 
REMARK    6  A    between atoms: C_20  and  N_24 
ROOT
HETATM    1  C   UNK N   1       1.118  -0.349  -0.309  0.00  0.00     0.102 A 
HETATM    2  C   UNK N   1       2.414  -1.116  -0.187  0.00  0.00    -0.008 A 
HETATM    3  C   UNK N   1       3.668  -0.481  -0.220  0.00  0.00     0.013 A 
HETATM    4  C   UNK N   1       4.844  -1.182  -0.060  0.00  0.00     0.032 A 
HETATM    5  C   UNK N   1       4.796  -2.555   0.102  0.00  0.00     0.055 A 
HETATM    6  C   UNK N   1       3.554  -3.224   0.109  0.00  0.00     0.087 A 
HETATM    7  C   UNK N   1       2.355  -2.495  -0.019  0.00  0.00     0.113 A 
HETATM    8  O   UNK N   1       1.149  -3.124   0.042  0.00  0.00    -0.290 OA
HETATM    9  C   UNK N   1      -0.064  -2.491   0.004  0.00  0.00     0.159 A 
HETATM   10  C   UNK N   1      -0.157  -1.158  -0.174  0.00  0.00     0.086 A 
HETATM   11  C   UNK N   1      -1.472  -0.531  -0.226  0.00  0.00     0.100 C 
HETATM   12  N   UNK N   1      -2.503  -0.006  -0.273  0.00  0.00    -0.191 NA
ENDROOT
BRANCH   9  13
HETATM   13  N   UNK N   1      -1.240  -3.259   0.175  0.00  0.00    -0.379 N 
HETATM   14  H   UNK N   1      -2.112  -2.818   0.295  0.00  0.00     0.158 HD
HETATM   15  H   UNK N   1      -1.186  -4.242   0.175  0.00  0.00     0.158 HD
ENDBRANCH   9  13
BRANCH   1  16
HETATM   16  C   UNK N   1       1.133   1.120   0.001  0.00  0.00    -0.040 A 
HETATM   17  C   UNK N   1       2.331   1.794  -0.046  0.00  0.00     0.048 A 
HETATM   18  C   UNK N   1       2.435   3.147   0.026  0.00  0.00     0.103 A 
HETATM   19  C   UNK N   1       1.245   3.915   0.148  0.00  0.00     0.118 A 
HETATM   20  C   UNK N   1      -0.008   3.220   0.263  0.00  0.00     0.047 A 
HETATM   21  C   UNK N   1      -0.029   1.840   0.183  0.00  0.00     0.030 A 
HETATM   22 Br   UNK N   1      -1.746   4.003   0.456  0.00  0.00    -0.048 Br
BRANCH  18  23
HETATM   23  O   UNK N   1       3.694   3.635  -0.091  0.00  0.00    -0.353 OA
HETATM   24  C   UNK N   1       4.043   4.939  -0.312  0.00  0.00     0.210 C 
ENDBRANCH  18  23
BRANCH  19  25
HETATM   25  O   UNK N   1       1.340   5.264   0.126  0.00  0.00    -0.352 OA
HETATM   26  C   UNK N   1       0.297   6.114  -0.139  0.00  0.00     0.210 C 
ENDBRANCH  19  25
ENDBRANCH   1  16
BRANCH   6  27
HETATM   27  N   UNK N   1       3.512  -4.624   0.253  0.00  0.00    -0.395 N 
HETATM   28  H   UNK N   1       2.650  -5.088   0.354  0.00  0.00     0.156 HD
HETATM   29  H   UNK N   1       4.350  -5.142   0.253  0.00  0.00     0.156 HD
ENDBRANCH   6  27
BRANCH   5  30
HETATM   30  N   UNK N   1       6.003  -3.263   0.260  0.00  0.00    -0.397 N 
HETATM   31  H   UNK N   1       5.996  -4.241   0.370  0.00  0.00     0.156 HD
HETATM   32  H   UNK N   1       6.859  -2.777   0.260  0.00  0.00     0.156 HD
ENDBRANCH   5  30
TORSDOF 6
