MODEL 1
REMARK VINA RESULT:      -7.8      0.000      0.000
REMARK  7 active torsions:
REMARK  status: ('A' for Active; 'I' for Inactive)
REMARK    1  A    between atoms: C_6  and  C_3 
REMARK    2  A    between atoms: C_13  and  C_3 
REMARK    3  A    between atoms: C_21  and  C_6 
REMARK    4  A    between atoms: N_26  and  C_13 
REMARK    5  A    between atoms: C_21  and  C_16 
REMARK    6  A    between atoms: N_27  and  C_18 
REMARK    7  A    between atoms: O_29  and  C_22 
ROOT
HETATM    1  C   UNK N   1      35.632  13.112   9.723  0.00  0.00     0.056 C 
HETATM    2  C   UNK N   1      34.975  13.752  12.074  0.00  0.00     0.056 C 
HETATM    3  C   UNK N   1      37.085  13.339  10.126  0.00  0.00     0.274 C 
HETATM    4  C   UNK N   1      36.472  13.834  12.410  0.00  0.00     0.274 C 
HETATM    5  C   UNK N   1      34.687  13.951  10.576  0.00  0.00     0.097 C 
HETATM    6  N   UNK N   1      37.289  12.986  11.535  0.00  0.00     0.088 N 
ENDROOT
BRANCH   5   7
HETATM    7  N   UNK N   1      34.651  15.344  10.102  0.00  0.00    -0.306 N 
HETATM    8  C   UNK N   1      33.667  15.869   9.351  0.00  0.00     0.065 A 
HETATM    9  C   UNK N   1      32.521  15.247   8.855  0.00  0.00     0.032 A 
HETATM   10  C   UNK N   1      33.943  17.180   9.103  0.00  0.00     0.062 A 
HETATM   11  C   UNK N   1      31.645  16.022   8.074  0.00  0.00     0.002 A 
HETATM   12  C   UNK N   1      31.932  17.383   7.817  0.00  0.00     0.002 A 
HETATM   13  C   UNK N   1      33.098  17.979   8.339  0.00  0.00     0.032 A 
HETATM   14  N   UNK N   1      35.104  17.524   9.694  0.00  0.00    -0.320 N 
HETATM   15  C   UNK N   1      35.513  16.378  10.298  0.00  0.00     0.225 A 
ATOM     16  HN  UNK N   1      35.567  18.432   9.688  1.00  0.00     0.169 HD
BRANCH  15  17
HETATM   17  O   UNK N   1      36.644  16.297  11.019  0.00  0.00    -0.332 OA
HETATM   18  H   UNK N   1      37.328  15.713  10.755  0.00  0.00     0.221 HD
ENDBRANCH  15  17
ENDBRANCH   5   7
BRANCH   6  19
HETATM   19  C   UNK N   1      37.213  11.553  11.902  0.00  0.00     0.272 C 
BRANCH  19  20
HETATM   20  C   UNK N   1      37.142  11.206  13.401  0.00  0.00     0.038 C 
BRANCH  20  21
HETATM   21  C   UNK N   1      36.054  10.175  13.681  0.00  0.00     0.085 C 
BRANCH  21  22
HETATM   22  C   UNK N   1      34.843  10.776  14.323  0.00  0.00     0.159 C 
HETATM   23  O   UNK N   1      33.763  10.690  13.757  0.00  0.00    -0.292 OA
BRANCH  22  24
HETATM   24  C   UNK N   1      34.931  11.392  15.665  0.00  0.00     0.010 A 
HETATM   25  C   UNK N   1      35.265  10.614  16.784  0.00  0.00     0.018 A 
HETATM   26  C   UNK N   1      35.383  11.208  18.044  0.00  0.00     0.043 A 
HETATM   27  C   UNK N   1      35.165  12.582  18.193  0.00  0.00     0.116 A 
HETATM   28  C   UNK N   1      34.828  13.360  17.084  0.00  0.00     0.043 A 
HETATM   29  F   UNK N   1      35.284  13.160  19.411  0.00  0.00    -0.206 F 
HETATM   30  C   UNK N   1      34.715  12.769  15.826  0.00  0.00     0.018 A 
ENDBRANCH  22  24
ENDBRANCH  21  22
ENDBRANCH  20  21
ENDBRANCH  19  20
ENDBRANCH   6  19
TORSDOF 7
ENDMDL
MODEL 2
REMARK VINA RESULT:      -7.6     12.371     16.355
REMARK  7 active torsions:
REMARK  status: ('A' for Active; 'I' for Inactive)
REMARK    1  A    between atoms: C_6  and  C_3 
REMARK    2  A    between atoms: C_13  and  C_3 
REMARK    3  A    between atoms: C_21  and  C_6 
REMARK    4  A    between atoms: N_26  and  C_13 
REMARK    5  A    between atoms: C_21  and  C_16 
REMARK    6  A    between atoms: N_27  and  C_18 
REMARK    7  A    between atoms: O_29  and  C_22 
ROOT
HETATM    1  C   UNK N   1      21.914  13.967   6.074  0.00  0.00     0.056 C 
HETATM    2  C   UNK N   1      21.758  16.265   7.105  0.00  0.00     0.056 C 
HETATM    3  C   UNK N   1      20.436  14.085   5.721  0.00  0.00     0.274 C 
HETATM    4  C   UNK N   1      20.310  16.333   6.596  0.00  0.00     0.274 C 
HETATM    5  C   UNK N   1      22.259  14.822   7.288  0.00  0.00     0.097 C 
HETATM    6  N   UNK N   1      20.087  15.478   5.424  0.00  0.00     0.088 N 
ENDROOT
BRANCH   5   7
HETATM    7  N   UNK N   1      21.858  14.150   8.534  0.00  0.00    -0.306 N 
HETATM    8  C   UNK N   1      22.688  13.442   9.321  0.00  0.00     0.065 A 
HETATM    9  C   UNK N   1      24.046  13.176   9.141  0.00  0.00     0.032 A 
HETATM   10  C   UNK N   1      21.995  12.969  10.394  0.00  0.00     0.062 A 
HETATM   11  C   UNK N   1      24.690  12.389  10.111  0.00  0.00     0.002 A 
HETATM   12  C   UNK N   1      23.970  11.899  11.226  0.00  0.00     0.002 A 
HETATM   13  C   UNK N   1      22.600  12.192  11.377  0.00  0.00     0.032 A 
HETATM   14  N   UNK N   1      20.710  13.370  10.322  0.00  0.00    -0.320 N 
HETATM   15  C   UNK N   1      20.658  14.091   9.172  0.00  0.00     0.225 A 
ATOM     16  HN  UNK N   1      19.954  13.175  10.978  1.00  0.00     0.169 HD
BRANCH  15  17
HETATM   17  O   UNK N   1      19.536  14.686   8.735  0.00  0.00    -0.332 OA
HETATM   18  H   UNK N   1      18.809  14.166   8.452  0.00  0.00     0.221 HD
ENDBRANCH  15  17
ENDBRANCH   5   7
BRANCH   6  19
HETATM   19  C   UNK N   1      20.628  16.071   4.179  0.00  0.00     0.272 C 
BRANCH  19  20
HETATM   20  C   UNK N   1      19.854  17.249   3.559  0.00  0.00     0.038 C 
BRANCH  20  21
HETATM   21  C   UNK N   1      20.791  18.206   2.828  0.00  0.00     0.085 C 
BRANCH  21  22
HETATM   22  C   UNK N   1      21.485  19.153   3.756  0.00  0.00     0.159 C 
HETATM   23  O   UNK N   1      20.837  19.721   4.622  0.00  0.00    -0.292 OA
BRANCH  22  24
HETATM   24  C   UNK N   1      22.951  19.337   3.684  0.00  0.00     0.010 A 
HETATM   25  C   UNK N   1      23.811  18.461   4.363  0.00  0.00     0.018 A 
HETATM   26  C   UNK N   1      25.197  18.618   4.262  0.00  0.00     0.043 A 
HETATM   27  C   UNK N   1      25.730  19.651   3.485  0.00  0.00     0.116 A 
HETATM   28  C   UNK N   1      24.878  20.528   2.810  0.00  0.00     0.043 A 
HETATM   29  F   UNK N   1      27.071  19.800   3.381  0.00  0.00    -0.206 F 
HETATM   30  C   UNK N   1      23.496  20.370   2.906  0.00  0.00     0.018 A 
ENDBRANCH  22  24
ENDBRANCH  21  22
ENDBRANCH  20  21
ENDBRANCH  19  20
ENDBRANCH   6  19
TORSDOF 7
ENDMDL
MODEL 3
REMARK VINA RESULT:      -7.5      3.303      8.242
REMARK  7 active torsions:
REMARK  status: ('A' for Active; 'I' for Inactive)
REMARK    1  A    between atoms: C_6  and  C_3 
REMARK    2  A    between atoms: C_13  and  C_3 
REMARK    3  A    between atoms: C_21  and  C_6 
REMARK    4  A    between atoms: N_26  and  C_13 
REMARK    5  A    between atoms: C_21  and  C_16 
REMARK    6  A    between atoms: N_27  and  C_18 
REMARK    7  A    between atoms: O_29  and  C_22 
ROOT
HETATM    1  C   UNK N   1      33.996  14.349  10.199  0.00  0.00     0.056 C 
HETATM    2  C   UNK N   1      35.990  12.890   9.684  0.00  0.00     0.056 C 
HETATM    3  C   UNK N   1      34.744  15.507   9.549  0.00  0.00     0.274 C 
HETATM    4  C   UNK N   1      36.604  14.089   8.944  0.00  0.00     0.274 C 
HETATM    5  C   UNK N   1      34.964  13.310  10.752  0.00  0.00     0.097 C 
HETATM    6  N   UNK N   1      35.586  15.023   8.450  0.00  0.00     0.088 N 
ENDROOT
BRANCH   5   7
HETATM    7  N   UNK N   1      35.516  13.743  12.045  0.00  0.00    -0.306 N 
HETATM    8  C   UNK N   1      35.306  13.112  13.214  0.00  0.00     0.065 A 
HETATM    9  C   UNK N   1      34.542  11.972  13.466  0.00  0.00     0.032 A 
HETATM   10  C   UNK N   1      35.969  13.771  14.205  0.00  0.00     0.062 A 
HETATM   11  C   UNK N   1      34.470  11.515  14.793  0.00  0.00     0.002 A 
HETATM   12  C   UNK N   1      35.160  12.199  15.822  0.00  0.00     0.002 A 
HETATM   13  C   UNK N   1      35.926  13.346  15.530  0.00  0.00     0.032 A 
HETATM   14  N   UNK N   1      36.623  14.831  13.692  0.00  0.00    -0.320 N 
HETATM   15  C   UNK N   1      36.326  14.787  12.368  0.00  0.00     0.225 A 
ATOM     16  HN  UNK N   1      37.204  15.509  14.185  1.00  0.00     0.169 HD
BRANCH  15  17
HETATM   17  O   UNK N   1      36.801  15.681  11.483  0.00  0.00    -0.332 OA
HETATM   18  H   UNK N   1      37.243  16.450  11.786  0.00  0.00     0.221 HD
ENDBRANCH  15  17
ENDBRANCH   5   7
BRANCH   6  19
HETATM   19  C   UNK N   1      34.907  14.528   7.230  0.00  0.00     0.272 C 
BRANCH  19  20
HETATM   20  C   UNK N   1      35.232  15.232   5.900  0.00  0.00     0.038 C 
BRANCH  20  21
HETATM   21  C   UNK N   1      34.061  16.084   5.422  0.00  0.00     0.085 C 
BRANCH  21  22
HETATM   22  C   UNK N   1      33.719  17.183   6.380  0.00  0.00     0.159 C 
HETATM   23  O   UNK N   1      34.563  18.026   6.646  0.00  0.00    -0.292 OA
BRANCH  22  24
HETATM   24  C   UNK N   1      32.352  17.300   6.932  0.00  0.00     0.010 A 
HETATM   25  C   UNK N   1      32.148  17.799   8.227  0.00  0.00     0.018 A 
HETATM   26  C   UNK N   1      30.851  17.941   8.730  0.00  0.00     0.043 A 
HETATM   27  C   UNK N   1      29.753  17.582   7.944  0.00  0.00     0.116 A 
HETATM   28  C   UNK N   1      29.949  17.079   6.656  0.00  0.00     0.043 A 
HETATM   29  F   UNK N   1      28.497  17.723   8.427  0.00  0.00    -0.206 F 
HETATM   30  C   UNK N   1      31.242  16.942   6.152  0.00  0.00     0.018 A 
ENDBRANCH  22  24
ENDBRANCH  21  22
ENDBRANCH  20  21
ENDBRANCH  19  20
ENDBRANCH   6  19
TORSDOF 7
ENDMDL
MODEL 4
REMARK VINA RESULT:      -7.3      1.944      2.942
REMARK  7 active torsions:
REMARK  status: ('A' for Active; 'I' for Inactive)
REMARK    1  A    between atoms: C_6  and  C_3 
REMARK    2  A    between atoms: C_13  and  C_3 
REMARK    3  A    between atoms: C_21  and  C_6 
REMARK    4  A    between atoms: N_26  and  C_13 
REMARK    5  A    between atoms: C_21  and  C_16 
REMARK    6  A    between atoms: N_27  and  C_18 
REMARK    7  A    between atoms: O_29  and  C_22 
ROOT
HETATM    1  C   UNK N   1      35.122  16.294   9.939  0.00  0.00     0.056 C 
HETATM    2  C   UNK N   1      35.134  14.096   8.698  0.00  0.00     0.056 C 
HETATM    3  C   UNK N   1      34.541  15.553  11.137  0.00  0.00     0.274 C 
HETATM    4  C   UNK N   1      34.664  13.425   9.998  0.00  0.00     0.274 C 
HETATM    5  C   UNK N   1      34.771  15.590   8.633  0.00  0.00     0.097 C 
HETATM    6  N   UNK N   1      35.058  14.181  11.193  0.00  0.00     0.088 N 
ENDROOT
BRANCH   5   7
HETATM    7  N   UNK N   1      33.394  15.905   8.221  0.00  0.00    -0.306 N 
HETATM    8  C   UNK N   1      33.055  16.437   7.034  0.00  0.00     0.065 A 
HETATM    9  C   UNK N   1      33.886  16.814   5.977  0.00  0.00     0.032 A 
HETATM   10  C   UNK N   1      31.703  16.587   6.978  0.00  0.00     0.062 A 
HETATM   11  C   UNK N   1      33.278  17.366   4.836  0.00  0.00     0.002 A 
HETATM   12  C   UNK N   1      31.874  17.521   4.779  0.00  0.00     0.002 A 
HETATM   13  C   UNK N   1      31.066  17.125   5.864  0.00  0.00     0.032 A 
HETATM   14  N   UNK N   1      31.146  16.148   8.124  0.00  0.00    -0.320 N 
HETATM   15  C   UNK N   1      32.207  15.737   8.865  0.00  0.00     0.225 A 
ATOM     16  HN  UNK N   1      30.158  16.131   8.376  1.00  0.00     0.169 HD
BRANCH  15  17
HETATM   17  O   UNK N   1      32.079  15.210  10.094  0.00  0.00    -0.332 OA
HETATM   18  H   UNK N   1      31.235  14.945  10.405  0.00  0.00     0.221 HD
ENDBRANCH  15  17
ENDBRANCH   5   7
BRANCH   6  19
HETATM   19  C   UNK N   1      36.488  13.999  11.533  0.00  0.00     0.272 C 
BRANCH  19  20
HETATM   20  C   UNK N   1      36.823  13.107  12.743  0.00  0.00     0.038 C 
BRANCH  20  21
HETATM   21  C   UNK N   1      36.298  13.714  14.041  0.00  0.00     0.085 C 
BRANCH  21  22
HETATM   22  C   UNK N   1      35.237  12.873  14.681  0.00  0.00     0.159 C 
HETATM   23  O   UNK N   1      34.392  12.342  13.977  0.00  0.00    -0.292 OA
BRANCH  22  24
HETATM   24  C   UNK N   1      35.260  12.617  16.138  0.00  0.00     0.010 A 
HETATM   25  C   UNK N   1      35.220  13.683  17.048  0.00  0.00     0.018 A 
HETATM   26  C   UNK N   1      35.204  13.434  18.424  0.00  0.00     0.043 A 
HETATM   27  C   UNK N   1      35.233  12.118  18.897  0.00  0.00     0.116 A 
HETATM   28  C   UNK N   1      35.278  11.052  17.995  0.00  0.00     0.043 A 
HETATM   29  F   UNK N   1      35.213  11.874  20.228  0.00  0.00    -0.206 F 
HETATM   30  C   UNK N   1      35.288  11.301  16.623  0.00  0.00     0.018 A 
ENDBRANCH  22  24
ENDBRANCH  21  22
ENDBRANCH  20  21
ENDBRANCH  19  20
ENDBRANCH   6  19
TORSDOF 7
ENDMDL
MODEL 5
REMARK VINA RESULT:      -7.2      1.733      2.021
REMARK  7 active torsions:
REMARK  status: ('A' for Active; 'I' for Inactive)
REMARK    1  A    between atoms: C_6  and  C_3 
REMARK    2  A    between atoms: C_13  and  C_3 
REMARK    3  A    between atoms: C_21  and  C_6 
REMARK    4  A    between atoms: N_26  and  C_13 
REMARK    5  A    between atoms: C_21  and  C_16 
REMARK    6  A    between atoms: N_27  and  C_18 
REMARK    7  A    between atoms: O_29  and  C_22 
ROOT
HETATM    1  C   UNK N   1      33.589  13.641   9.264  0.00  0.00     0.056 C 
HETATM    2  C   UNK N   1      34.447  15.001  11.209  0.00  0.00     0.056 C 
HETATM    3  C   UNK N   1      35.014  13.142   9.054  0.00  0.00     0.274 C 
HETATM    4  C   UNK N   1      35.819  14.344  10.989  0.00  0.00     0.274 C 
HETATM    5  C   UNK N   1      33.578  15.008   9.939  0.00  0.00     0.097 C 
HETATM    6  N   UNK N   1      35.715  13.033  10.338  0.00  0.00     0.088 N 
ENDROOT
BRANCH   5   7
HETATM    7  N   UNK N   1      33.860  16.075   8.966  0.00  0.00    -0.306 N 
HETATM    8  C   UNK N   1      33.311  16.156   7.742  0.00  0.00     0.065 A 
HETATM    9  C   UNK N   1      32.407  15.286   7.131  0.00  0.00     0.032 A 
HETATM   10  C   UNK N   1      33.780  17.269   7.112  0.00  0.00     0.062 A 
HETATM   11  C   UNK N   1      31.991  15.591   5.823  0.00  0.00     0.002 A 
HETATM   12  C   UNK N   1      32.478  16.747   5.170  0.00  0.00     0.002 A 
HETATM   13  C   UNK N   1      33.387  17.607   5.821  0.00  0.00     0.032 A 
HETATM   14  N   UNK N   1      34.633  17.928   7.921  0.00  0.00    -0.320 N 
HETATM   15  C   UNK N   1      34.661  17.171   9.049  0.00  0.00     0.225 A 
ATOM     16  HN  UNK N   1      35.140  18.791   7.730  1.00  0.00     0.169 HD
BRANCH  15  17
HETATM   17  O   UNK N   1      35.397  17.495  10.126  0.00  0.00    -0.332 OA
HETATM   18  H   UNK N   1      35.636  16.833  10.746  0.00  0.00     0.221 HD
ENDBRANCH  15  17
ENDBRANCH   5   7
BRANCH   6  19
HETATM   19  C   UNK N   1      35.277  11.970  11.273  0.00  0.00     0.272 C 
BRANCH  19  20
HETATM   20  C   UNK N   1      35.970  11.903  12.646  0.00  0.00     0.038 C 
BRANCH  20  21
HETATM   21  C   UNK N   1      35.009  12.277  13.771  0.00  0.00     0.085 C 
BRANCH  21  22
HETATM   22  C   UNK N   1      35.672  13.067  14.856  0.00  0.00     0.159 C 
HETATM   23  O   UNK N   1      36.259  14.099  14.568  0.00  0.00    -0.292 OA
BRANCH  22  24
HETATM   24  C   UNK N   1      35.546  12.653  16.270  0.00  0.00     0.010 A 
HETATM   25  C   UNK N   1      35.784  11.322  16.645  0.00  0.00     0.018 A 
HETATM   26  C   UNK N   1      35.699  10.944  17.989  0.00  0.00     0.043 A 
HETATM   27  C   UNK N   1      35.373  11.893  18.964  0.00  0.00     0.116 A 
HETATM   28  C   UNK N   1      35.131  13.218  18.596  0.00  0.00     0.043 A 
HETATM   29  F   UNK N   1      35.296  11.530  20.265  0.00  0.00    -0.206 F 
HETATM   30  C   UNK N   1      35.220  13.596  17.256  0.00  0.00     0.018 A 
ENDBRANCH  22  24
ENDBRANCH  21  22
ENDBRANCH  20  21
ENDBRANCH  19  20
ENDBRANCH   6  19
TORSDOF 7
ENDMDL
MODEL 6
REMARK VINA RESULT:      -7.2      5.070     10.158
REMARK  7 active torsions:
REMARK  status: ('A' for Active; 'I' for Inactive)
REMARK    1  A    between atoms: C_6  and  C_3 
REMARK    2  A    between atoms: C_13  and  C_3 
REMARK    3  A    between atoms: C_21  and  C_6 
REMARK    4  A    between atoms: N_26  and  C_13 
REMARK    5  A    between atoms: C_21  and  C_16 
REMARK    6  A    between atoms: N_27  and  C_18 
REMARK    7  A    between atoms: O_29  and  C_22 
ROOT
HETATM    1  C   UNK N   1      32.292  15.366   7.772  0.00  0.00     0.056 C 
HETATM    2  C   UNK N   1      34.441  15.739   6.502  0.00  0.00     0.056 C 
HETATM    3  C   UNK N   1      31.890  16.790   7.402  0.00  0.00     0.274 C 
HETATM    4  C   UNK N   1      33.889  17.110   6.083  0.00  0.00     0.274 C 
HETATM    5  C   UNK N   1      33.809  15.213   7.802  0.00  0.00     0.097 C 
HETATM    6  N   UNK N   1      32.422  17.147   6.082  0.00  0.00     0.088 N 
ENDROOT
BRANCH   5   7
HETATM    7  N   UNK N   1      34.364  15.748   9.056  0.00  0.00    -0.306 N 
HETATM    8  C   UNK N   1      34.725  14.998  10.112  0.00  0.00     0.065 A 
HETATM    9  C   UNK N   1      34.645  13.613  10.267  0.00  0.00     0.032 A 
HETATM   10  C   UNK N   1      35.209  15.808  11.094  0.00  0.00     0.062 A 
HETATM   11  C   UNK N   1      35.080  13.069  11.488  0.00  0.00     0.002 A 
HETATM   12  C   UNK N   1      35.582  13.910  12.507  0.00  0.00     0.002 A 
HETATM   13  C   UNK N   1      35.653  15.305  12.313  0.00  0.00     0.032 A 
HETATM   14  N   UNK N   1      35.175  17.092  10.686  0.00  0.00    -0.320 N 
HETATM   15  C   UNK N   1      34.653  17.022   9.434  0.00  0.00     0.225 A 
ATOM     16  HN  UNK N   1      35.471  17.922  11.199  1.00  0.00     0.169 HD
BRANCH  15  17
HETATM   17  O   UNK N   1      34.461  18.105   8.662  0.00  0.00    -0.332 OA
HETATM   18  H   UNK N   1      34.213  18.921   9.052  0.00  0.00     0.221 HD
ENDBRANCH  15  17
ENDBRANCH   5   7
BRANCH   6  19
HETATM   19  C   UNK N   1      31.838  16.472   4.900  0.00  0.00     0.272 C 
BRANCH  19  20
HETATM   20  C   UNK N   1      30.978  17.323   3.948  0.00  0.00     0.038 C 
BRANCH  20  21
HETATM   21  C   UNK N   1      29.559  16.774   3.841  0.00  0.00     0.085 C 
BRANCH  21  22
HETATM   22  C   UNK N   1      28.761  16.995   5.089  0.00  0.00     0.159 C 
HETATM   23  O   UNK N   1      28.619  16.072   5.877  0.00  0.00    -0.292 OA
BRANCH  22  24
HETATM   24  C   UNK N   1      28.225  18.336   5.409  0.00  0.00     0.010 A 
HETATM   25  C   UNK N   1      27.758  19.177   4.389  0.00  0.00     0.018 A 
HETATM   26  C   UNK N   1      27.218  20.429   4.701  0.00  0.00     0.043 A 
HETATM   27  C   UNK N   1      27.146  20.847   6.033  0.00  0.00     0.116 A 
HETATM   28  C   UNK N   1      27.613  20.016   7.053  0.00  0.00     0.043 A 
HETATM   29  F   UNK N   1      26.619  22.056   6.338  0.00  0.00    -0.206 F 
HETATM   30  C   UNK N   1      28.147  18.765   6.743  0.00  0.00     0.018 A 
ENDBRANCH  22  24
ENDBRANCH  21  22
ENDBRANCH  20  21
ENDBRANCH  19  20
ENDBRANCH   6  19
TORSDOF 7
ENDMDL
MODEL 7
REMARK VINA RESULT:      -7.1     11.819     15.883
REMARK  7 active torsions:
REMARK  status: ('A' for Active; 'I' for Inactive)
REMARK    1  A    between atoms: C_6  and  C_3 
REMARK    2  A    between atoms: C_13  and  C_3 
REMARK    3  A    between atoms: C_21  and  C_6 
REMARK    4  A    between atoms: N_26  and  C_13 
REMARK    5  A    between atoms: C_21  and  C_16 
REMARK    6  A    between atoms: N_27  and  C_18 
REMARK    7  A    between atoms: O_29  and  C_22 
ROOT
HETATM    1  C   UNK N   1      21.183  15.759   7.496  0.00  0.00     0.056 C 
HETATM    2  C   UNK N   1      21.264  13.917   5.773  0.00  0.00     0.056 C 
HETATM    3  C   UNK N   1      22.072  16.587   6.574  0.00  0.00     0.274 C 
HETATM    4  C   UNK N   1      22.053  14.876   4.868  0.00  0.00     0.274 C 
HETATM    5  C   UNK N   1      21.390  14.267   7.266  0.00  0.00     0.097 C 
HETATM    6  N   UNK N   1      21.777  16.286   5.169  0.00  0.00     0.088 N 
ENDROOT
BRANCH   5   7
HETATM    7  N   UNK N   1      22.610  13.797   7.941  0.00  0.00    -0.306 N 
HETATM    8  C   UNK N   1      22.632  13.183   9.137  0.00  0.00     0.065 A 
HETATM    9  C   UNK N   1      21.564  12.881   9.983  0.00  0.00     0.032 A 
HETATM   10  C   UNK N   1      23.918  12.873   9.459  0.00  0.00     0.062 A 
HETATM   11  C   UNK N   1      21.857  12.241  11.200  0.00  0.00     0.002 A 
HETATM   12  C   UNK N   1      23.193  11.918  11.534  0.00  0.00     0.002 A 
HETATM   13  C   UNK N   1      24.247  12.235  10.652  0.00  0.00     0.032 A 
HETATM   14  N   UNK N   1      24.747  13.274   8.475  0.00  0.00    -0.320 N 
HETATM   15  C   UNK N   1      23.915  13.836   7.559  0.00  0.00     0.225 A 
ATOM     16  HN  UNK N   1      25.760  13.178   8.429  1.00  0.00     0.169 HD
BRANCH  15  17
HETATM   17  O   UNK N   1      24.352  14.357   6.400  0.00  0.00    -0.332 OA
HETATM   18  H   UNK N   1      23.904  14.161   5.600  0.00  0.00     0.221 HD
ENDBRANCH  15  17
ENDBRANCH   5   7
BRANCH   6  19
HETATM   19  C   UNK N   1      20.473  16.736   4.629  0.00  0.00     0.272 C 
BRANCH  19  20
HETATM   20  C   UNK N   1      20.483  17.916   3.640  0.00  0.00     0.038 C 
BRANCH  20  21
HETATM   21  C   UNK N   1      21.237  19.113   4.212  0.00  0.00     0.085 C 
BRANCH  21  22
HETATM   22  C   UNK N   1      22.150  19.750   3.211  0.00  0.00     0.159 C 
HETATM   23  O   UNK N   1      21.668  20.331   2.250  0.00  0.00    -0.292 OA
BRANCH  22  24
HETATM   24  C   UNK N   1      23.614  19.753   3.424  0.00  0.00     0.010 A 
HETATM   25  C   UNK N   1      24.199  18.876   4.350  0.00  0.00     0.018 A 
HETATM   26  C   UNK N   1      25.587  18.858   4.521  0.00  0.00     0.043 A 
HETATM   27  C   UNK N   1      26.396  19.718   3.771  0.00  0.00     0.116 A 
HETATM   28  C   UNK N   1      25.818  20.597   2.852  0.00  0.00     0.043 A 
HETATM   29  F   UNK N   1      27.739  19.699   3.932  0.00  0.00    -0.206 F 
HETATM   30  C   UNK N   1      24.434  20.612   2.677  0.00  0.00     0.018 A 
ENDBRANCH  22  24
ENDBRANCH  21  22
ENDBRANCH  20  21
ENDBRANCH  19  20
ENDBRANCH   6  19
TORSDOF 7
ENDMDL
MODEL 8
REMARK VINA RESULT:      -7.1      1.989      2.779
REMARK  7 active torsions:
REMARK  status: ('A' for Active; 'I' for Inactive)
REMARK    1  A    between atoms: C_6  and  C_3 
REMARK    2  A    between atoms: C_13  and  C_3 
REMARK    3  A    between atoms: C_21  and  C_6 
REMARK    4  A    between atoms: N_26  and  C_13 
REMARK    5  A    between atoms: C_21  and  C_16 
REMARK    6  A    between atoms: N_27  and  C_18 
REMARK    7  A    between atoms: O_29  and  C_22 
ROOT
HETATM    1  C   UNK N   1      34.943  15.351  10.906  0.00  0.00     0.056 C 
HETATM    2  C   UNK N   1      36.258  13.715   9.505  0.00  0.00     0.056 C 
HETATM    3  C   UNK N   1      34.455  14.167  11.733  0.00  0.00     0.274 C 
HETATM    4  C   UNK N   1      35.808  12.611  10.474  0.00  0.00     0.274 C 
HETATM    5  C   UNK N   1      35.302  14.920   9.488  0.00  0.00     0.097 C 
HETATM    6  N   UNK N   1      35.492  13.132  11.809  0.00  0.00     0.088 N 
ENDROOT
BRANCH   5   7
HETATM    7  N   UNK N   1      34.094  14.777   8.661  0.00  0.00    -0.306 N 
HETATM    8  C   UNK N   1      33.707  15.653   7.717  0.00  0.00     0.065 A 
HETATM    9  C   UNK N   1      34.317  16.848   7.332  0.00  0.00     0.032 A 
HETATM   10  C   UNK N   1      32.557  15.210   7.138  0.00  0.00     0.062 A 
HETATM   11  C   UNK N   1      33.698  17.597   6.317  0.00  0.00     0.002 A 
HETATM   12  C   UNK N   1      32.504  17.137   5.715  0.00  0.00     0.002 A 
HETATM   13  C   UNK N   1      31.919  15.922   6.126  0.00  0.00     0.032 A 
HETATM   14  N   UNK N   1      32.185  14.040   7.693  0.00  0.00    -0.320 N 
HETATM   15  C   UNK N   1      33.147  13.801   8.622  0.00  0.00     0.225 A 
ATOM     16  HN  UNK N   1      31.372  13.468   7.468  1.00  0.00     0.169 HD
BRANCH  15  17
HETATM   17  O   UNK N   1      33.153  12.706   9.401  0.00  0.00    -0.332 OA
HETATM   18  H   UNK N   1      33.279  11.860   9.019  0.00  0.00     0.221 HD
ENDBRANCH  15  17
ENDBRANCH   5   7
BRANCH   6  19
HETATM   19  C   UNK N   1      36.706  13.431  12.603  0.00  0.00     0.272 C 
BRANCH  19  20
HETATM   20  C   UNK N   1      36.912  12.644  13.911  0.00  0.00     0.038 C 
BRANCH  20  21
HETATM   21  C   UNK N   1      36.503  13.471  15.126  0.00  0.00     0.085 C 
BRANCH  21  22
HETATM   22  C   UNK N   1      35.231  12.988  15.750  0.00  0.00     0.159 C 
HETATM   23  O   UNK N   1      34.196  13.027  15.101  0.00  0.00    -0.292 OA
BRANCH  22  24
HETATM   24  C   UNK N   1      35.237  12.389  17.102  0.00  0.00     0.010 A 
HETATM   25  C   UNK N   1      35.304  10.997  17.263  0.00  0.00     0.018 A 
HETATM   26  C   UNK N   1      35.347  10.438  18.545  0.00  0.00     0.043 A 
HETATM   27  C   UNK N   1      35.320  11.267  19.670  0.00  0.00     0.116 A 
HETATM   28  C   UNK N   1      35.248  12.653  19.516  0.00  0.00     0.043 A 
HETATM   29  F   UNK N   1      35.366  10.729  20.911  0.00  0.00    -0.206 F 
HETATM   30  C   UNK N   1      35.210  13.211  18.239  0.00  0.00     0.018 A 
ENDBRANCH  22  24
ENDBRANCH  21  22
ENDBRANCH  20  21
ENDBRANCH  19  20
ENDBRANCH   6  19
TORSDOF 7
ENDMDL
MODEL 9
REMARK VINA RESULT:      -7.0     12.761     17.168
REMARK  7 active torsions:
REMARK  status: ('A' for Active; 'I' for Inactive)
REMARK    1  A    between atoms: C_6  and  C_3 
REMARK    2  A    between atoms: C_13  and  C_3 
REMARK    3  A    between atoms: C_21  and  C_6 
REMARK    4  A    between atoms: N_26  and  C_13 
REMARK    5  A    between atoms: C_21  and  C_16 
REMARK    6  A    between atoms: N_27  and  C_18 
REMARK    7  A    between atoms: O_29  and  C_22 
ROOT
HETATM    1  C   UNK N   1      21.662  14.413   6.464  0.00  0.00     0.056 C 
HETATM    2  C   UNK N   1      20.941  16.467   7.741  0.00  0.00     0.056 C 
HETATM    3  C   UNK N   1      20.204  14.214   6.066  0.00  0.00     0.274 C 
HETATM    4  C   UNK N   1      19.526  16.246   7.184  0.00  0.00     0.274 C 
HETATM    5  C   UNK N   1      21.775  15.174   7.780  0.00  0.00     0.097 C 
HETATM    6  N   UNK N   1      19.531  15.509   5.915  0.00  0.00     0.088 N 
ENDROOT
BRANCH   5   7
HETATM    7  N   UNK N   1      21.534  14.282   8.924  0.00  0.00    -0.306 N 
HETATM    8  C   UNK N   1      22.479  13.536   9.523  0.00  0.00     0.065 A 
HETATM    9  C   UNK N   1      23.834  13.425   9.206  0.00  0.00     0.032 A 
HETATM   10  C   UNK N   1      21.918  12.841  10.551  0.00  0.00     0.062 A 
HETATM   11  C   UNK N   1      24.616  12.557   9.987  0.00  0.00     0.002 A 
HETATM   12  C   UNK N   1      24.034  11.835  11.055  0.00  0.00     0.002 A 
HETATM   13  C   UNK N   1      22.662  11.976  11.349  0.00  0.00     0.032 A 
HETATM   14  N   UNK N   1      20.605  13.130  10.637  0.00  0.00    -0.320 N 
HETATM   15  C   UNK N   1      20.400  14.015   9.628  0.00  0.00     0.225 A 
ATOM     16  HN  UNK N   1      19.924  12.768  11.304  1.00  0.00     0.169 HD
BRANCH  15  17
HETATM   17  O   UNK N   1      19.202  14.568   9.374  0.00  0.00    -0.332 OA
HETATM   18  H   UNK N   1      18.417  14.084   9.543  0.00  0.00     0.221 HD
ENDBRANCH  15  17
ENDBRANCH   5   7
BRANCH   6  19
HETATM   19  C   UNK N   1      19.926  16.359   4.768  0.00  0.00     0.272 C 
BRANCH  19  20
HETATM   20  C   UNK N   1      19.891  15.722   3.366  0.00  0.00     0.038 C 
BRANCH  20  21
HETATM   21  C   UNK N   1      21.266  15.755   2.707  0.00  0.00     0.085 C 
BRANCH  21  22
HETATM   22  C   UNK N   1      21.232  15.301   1.280  0.00  0.00     0.159 C 
HETATM   23  O   UNK N   1      20.688  16.006   0.444  0.00  0.00    -0.292 OA
BRANCH  22  24
HETATM   24  C   UNK N   1      21.921  14.058   0.871  0.00  0.00     0.010 A 
HETATM   25  C   UNK N   1      23.305  14.055   0.642  0.00  0.00     0.018 A 
HETATM   26  C   UNK N   1      23.957  12.869   0.291  0.00  0.00     0.043 A 
HETATM   27  C   UNK N   1      23.229  11.682   0.163  0.00  0.00     0.116 A 
HETATM   28  C   UNK N   1      21.850  11.680   0.385  0.00  0.00     0.043 A 
HETATM   29  F   UNK N   1      23.859  10.532  -0.172  0.00  0.00    -0.206 F 
HETATM   30  C   UNK N   1      21.200  12.862   0.740  0.00  0.00     0.018 A 
ENDBRANCH  22  24
ENDBRANCH  21  22
ENDBRANCH  20  21
ENDBRANCH  19  20
ENDBRANCH   6  19
TORSDOF 7
ENDMDL
