MODEL 1
REMARK VINA RESULT:      -5.1      0.000      0.000
REMARK  2 active torsions:
REMARK  status: ('A' for Active; 'I' for Inactive)
REMARK    1  A    between atoms: C_10  and  C_7 
REMARK    2  A    between atoms: O_11  and  C_10 
ROOT
HETATM    1  C   UNK N   1      21.245  13.064  10.567  0.00  0.00     0.014 A 
HETATM    2  C   UNK N   1      20.656  13.646   9.432  0.00  0.00     0.001 A 
HETATM    3  C   UNK N   1      21.435  13.925   8.286  0.00  0.00     0.002 A 
HETATM    4  C   UNK N   1      22.811  13.623   8.268  0.00  0.00     0.030 A 
HETATM    5  C   UNK N   1      23.361  13.048   9.409  0.00  0.00     0.043 A 
HETATM    6  C   UNK N   1      22.607  12.780  10.513  0.00  0.00     0.000 A 
HETATM    7  C   UNK N   1      23.438  12.225  11.442  0.00  0.00    -0.007 A 
HETATM    8  C   UNK N   1      24.704  12.172  10.858  0.00  0.00     0.098 A 
HETATM    9  N   UNK N   1      24.644  12.683   9.601  0.00  0.00    -0.365 N 
HETATM   10  H   UNK N   1      25.387  12.770   8.961  0.00  0.00     0.165 HD
ENDROOT
BRANCH   7  11
HETATM   11  C   UNK N   1      23.031  11.776  12.808  0.00  0.00     0.205 C 
BRANCH  11  12
HETATM   12  O   UNK N   1      23.787  12.409  13.792  0.00  0.00    -0.396 OA
HETATM   13  H   UNK N   1      23.553  13.303  14.084  0.00  0.00     0.209 HD
ENDBRANCH  11  12
ENDBRANCH   7  11
TORSDOF 2
ENDMDL
MODEL 2
REMARK VINA RESULT:      -5.1      2.621      4.164
REMARK  2 active torsions:
REMARK  status: ('A' for Active; 'I' for Inactive)
REMARK    1  A    between atoms: C_10  and  C_7 
REMARK    2  A    between atoms: O_11  and  C_10 
ROOT
HETATM    1  C   UNK N   1      23.435  13.559   9.385  0.00  0.00     0.014 A 
HETATM    2  C   UNK N   1      24.677  13.035   9.781  0.00  0.00     0.001 A 
HETATM    3  C   UNK N   1      24.756  12.113  10.850  0.00  0.00     0.002 A 
HETATM    4  C   UNK N   1      23.591  11.710  11.532  0.00  0.00     0.030 A 
HETATM    5  C   UNK N   1      22.379  12.249  11.113  0.00  0.00     0.043 A 
HETATM    6  C   UNK N   1      22.306  13.138  10.081  0.00  0.00     0.000 A 
HETATM    7  C   UNK N   1      20.991  13.468   9.927  0.00  0.00    -0.007 A 
HETATM    8  C   UNK N   1      20.287  12.751  10.896  0.00  0.00     0.098 A 
HETATM    9  N   UNK N   1      21.156  12.001  11.623  0.00  0.00    -0.365 N 
HETATM   10  H   UNK N   1      20.937  11.399  12.370  0.00  0.00     0.165 HD
ENDROOT
BRANCH   7  11
HETATM   11  C   UNK N   1      20.451  14.417   8.907  0.00  0.00     0.205 C 
BRANCH  11  12
HETATM   12  O   UNK N   1      20.263  13.783   7.680  0.00  0.00    -0.396 OA
HETATM   13  H   UNK N   1      21.018  13.632   7.091  0.00  0.00     0.209 HD
ENDBRANCH  11  12
ENDBRANCH   7  11
TORSDOF 2
ENDMDL
MODEL 3
REMARK VINA RESULT:      -5.0      8.453      9.015
REMARK  2 active torsions:
REMARK  status: ('A' for Active; 'I' for Inactive)
REMARK    1  A    between atoms: C_10  and  C_7 
REMARK    2  A    between atoms: O_11  and  C_10 
ROOT
HETATM    1  C   UNK N   1      27.201  20.417   6.777  0.00  0.00     0.014 A 
HETATM    2  C   UNK N   1      26.646  21.095   5.679  0.00  0.00     0.001 A 
HETATM    3  C   UNK N   1      26.822  20.597   4.368  0.00  0.00     0.002 A 
HETATM    4  C   UNK N   1      27.556  19.415   4.146  0.00  0.00     0.030 A 
HETATM    5  C   UNK N   1      28.092  18.770   5.257  0.00  0.00     0.043 A 
HETATM    6  C   UNK N   1      27.920  19.253   6.520  0.00  0.00     0.000 A 
HETATM    7  C   UNK N   1      28.562  18.398   7.368  0.00  0.00    -0.007 A 
HETATM    8  C   UNK N   1      29.118  17.396   6.572  0.00  0.00     0.098 A 
HETATM    9  N   UNK N   1      28.821  17.636   5.268  0.00  0.00    -0.365 N 
HETATM   10  H   UNK N   1      29.084  17.093   4.491  0.00  0.00     0.165 HD
ENDROOT
BRANCH   7  11
HETATM   11  C   UNK N   1      28.632  18.543   8.853  0.00  0.00     0.205 C 
BRANCH  11  12
HETATM   12  O   UNK N   1      27.463  18.085   9.459  0.00  0.00    -0.396 OA
HETATM   13  H   UNK N   1      26.600  18.317   9.085  0.00  0.00     0.209 HD
ENDBRANCH  11  12
ENDBRANCH   7  11
TORSDOF 2
ENDMDL
MODEL 4
REMARK VINA RESULT:      -4.8     10.662     11.696
REMARK  2 active torsions:
REMARK  status: ('A' for Active; 'I' for Inactive)
REMARK    1  A    between atoms: C_10  and  C_7 
REMARK    2  A    between atoms: O_11  and  C_10 
ROOT
HETATM    1  C   UNK N   1      33.525  17.531   5.378  0.00  0.00     0.014 A 
HETATM    2  C   UNK N   1      32.839  17.401   4.159  0.00  0.00     0.001 A 
HETATM    3  C   UNK N   1      31.438  17.215   4.143  0.00  0.00     0.002 A 
HETATM    4  C   UNK N   1      30.712  17.159   5.349  0.00  0.00     0.030 A 
HETATM    5  C   UNK N   1      31.423  17.292   6.537  0.00  0.00     0.043 A 
HETATM    6  C   UNK N   1      32.775  17.471   6.549  0.00  0.00     0.000 A 
HETATM    7  C   UNK N   1      33.156  17.564   7.857  0.00  0.00    -0.007 A 
HETATM    8  C   UNK N   1      31.993  17.436   8.617  0.00  0.00     0.098 A 
HETATM    9  N   UNK N   1      30.928  17.268   7.791  0.00  0.00    -0.365 N 
HETATM   10  H   UNK N   1      29.987  17.152   8.054  0.00  0.00     0.165 HD
ENDROOT
BRANCH   7  11
HETATM   11  C   UNK N   1      34.556  17.765   8.337  0.00  0.00     0.205 C 
BRANCH  11  12
HETATM   12  O   UNK N   1      34.910  19.113   8.310  0.00  0.00    -0.396 OA
HETATM   13  H   UNK N   1      35.624  19.438   8.880  0.00  0.00     0.209 HD
ENDBRANCH  11  12
ENDBRANCH   7  11
TORSDOF 2
ENDMDL
MODEL 5
REMARK VINA RESULT:      -4.8     10.347     11.265
REMARK  2 active torsions:
REMARK  status: ('A' for Active; 'I' for Inactive)
REMARK    1  A    between atoms: C_10  and  C_7 
REMARK    2  A    between atoms: O_11  and  C_10 
ROOT
HETATM    1  C   UNK N   1      31.486  17.905   8.613  0.00  0.00     0.014 A 
HETATM    2  C   UNK N   1      30.094  17.836   8.437  0.00  0.00     0.001 A 
HETATM    3  C   UNK N   1      29.550  17.464   7.186  0.00  0.00     0.002 A 
HETATM    4  C   UNK N   1      30.397  17.159   6.102  0.00  0.00     0.030 A 
HETATM    5  C   UNK N   1      31.770  17.238   6.313  0.00  0.00     0.043 A 
HETATM    6  C   UNK N   1      32.291  17.597   7.520  0.00  0.00     0.000 A 
HETATM    7  C   UNK N   1      33.650  17.577   7.393  0.00  0.00    -0.007 A 
HETATM    8  C   UNK N   1      33.918  17.197   6.077  0.00  0.00     0.098 A 
HETATM    9  N   UNK N   1      32.748  16.990   5.419  0.00  0.00    -0.365 N 
HETATM   10  H   UNK N   1      32.637  16.715   4.480  0.00  0.00     0.165 HD
ENDROOT
BRANCH   7  11
HETATM   11  C   UNK N   1      34.625  17.906   8.476  0.00  0.00     0.205 C 
BRANCH  11  12
HETATM   12  O   UNK N   1      35.075  19.220   8.367  0.00  0.00    -0.396 OA
HETATM   13  H   UNK N   1      35.938  19.470   8.734  0.00  0.00     0.209 HD
ENDBRANCH  11  12
ENDBRANCH   7  11
TORSDOF 2
ENDMDL
MODEL 6
REMARK VINA RESULT:      -4.8      8.836      9.926
REMARK  2 active torsions:
REMARK  status: ('A' for Active; 'I' for Inactive)
REMARK    1  A    between atoms: C_10  and  C_7 
REMARK    2  A    between atoms: O_11  and  C_10 
ROOT
HETATM    1  C   UNK N   1      31.849  17.990   8.498  0.00  0.00     0.014 A 
HETATM    2  C   UNK N   1      33.099  17.933   7.860  0.00  0.00     0.001 A 
HETATM    3  C   UNK N   1      33.202  17.467   6.529  0.00  0.00     0.002 A 
HETATM    4  C   UNK N   1      32.052  17.055   5.827  0.00  0.00     0.030 A 
HETATM    5  C   UNK N   1      30.831  17.126   6.489  0.00  0.00     0.043 A 
HETATM    6  C   UNK N   1      30.735  17.576   7.773  0.00  0.00     0.000 A 
HETATM    7  C   UNK N   1      29.417  17.520   8.121  0.00  0.00    -0.007 A 
HETATM    8  C   UNK N   1      28.735  17.025   7.009  0.00  0.00     0.098 A 
HETATM    9  N   UNK N   1      29.620  16.785   6.006  0.00  0.00    -0.365 N 
HETATM   10  H   UNK N   1      29.417  16.434   5.109  0.00  0.00     0.165 HD
ENDROOT
BRANCH   7  11
HETATM   11  C   UNK N   1      28.854  17.920   9.447  0.00  0.00     0.205 C 
BRANCH  11  12
HETATM   12  O   UNK N   1      27.473  18.091   9.377  0.00  0.00    -0.396 OA
HETATM   13  H   UNK N   1      26.882  17.424   9.760  0.00  0.00     0.209 HD
ENDBRANCH  11  12
ENDBRANCH   7  11
TORSDOF 2
ENDMDL
MODEL 7
REMARK VINA RESULT:      -4.6     13.253     14.357
REMARK  2 active torsions:
REMARK  status: ('A' for Active; 'I' for Inactive)
REMARK    1  A    between atoms: C_10  and  C_7 
REMARK    2  A    between atoms: O_11  and  C_10 
ROOT
HETATM    1  C   UNK N   1      35.229  13.593  17.331  0.00  0.00     0.014 A 
HETATM    2  C   UNK N   1      35.188  13.522  18.734  0.00  0.00     0.001 A 
HETATM    3  C   UNK N   1      35.240  12.270  19.389  0.00  0.00     0.002 A 
HETATM    4  C   UNK N   1      35.333  11.078  18.643  0.00  0.00     0.030 A 
HETATM    5  C   UNK N   1      35.372  11.186  17.256  0.00  0.00     0.043 A 
HETATM    6  C   UNK N   1      35.322  12.395  16.628  0.00  0.00     0.000 A 
HETATM    7  C   UNK N   1      35.380  12.153  15.286  0.00  0.00    -0.007 A 
HETATM    8  C   UNK N   1      35.465  10.768  15.137  0.00  0.00     0.098 A 
HETATM    9  N   UNK N   1      35.460  10.181  16.362  0.00  0.00    -0.365 N 
HETATM   10  H   UNK N   1      35.509   9.217  16.557  0.00  0.00     0.165 HD
ENDROOT
BRANCH   7  11
HETATM   11  C   UNK N   1      35.354  13.197  14.217  0.00  0.00     0.205 C 
BRANCH  11  12
HETATM   12  O   UNK N   1      34.426  12.880  13.227  0.00  0.00    -0.396 OA
HETATM   13  H   UNK N   1      34.148  11.960  13.099  0.00  0.00     0.209 HD
ENDBRANCH  11  12
ENDBRANCH   7  11
TORSDOF 2
ENDMDL
MODEL 8
REMARK VINA RESULT:      -4.6     19.987     20.986
REMARK  2 active torsions:
REMARK  status: ('A' for Active; 'I' for Inactive)
REMARK    1  A    between atoms: C_10  and  C_7 
REMARK    2  A    between atoms: O_11  and  C_10 
ROOT
HETATM    1  C   UNK N   1      25.250  26.811  -6.147  0.00  0.00     0.014 A 
HETATM    2  C   UNK N   1      25.247  27.702  -5.061  0.00  0.00     0.001 A 
HETATM    3  C   UNK N   1      25.811  27.320  -3.822  0.00  0.00     0.002 A 
HETATM    4  C   UNK N   1      26.383  26.043  -3.662  0.00  0.00     0.030 A 
HETATM    5  C   UNK N   1      26.369  25.187  -4.759  0.00  0.00     0.043 A 
HETATM    6  C   UNK N   1      25.824  25.558  -5.952  0.00  0.00     0.000 A 
HETATM    7  C   UNK N   1      25.971  24.503  -6.806  0.00  0.00    -0.007 A 
HETATM    8  C   UNK N   1      26.618  23.499  -6.085  0.00  0.00     0.098 A 
HETATM    9  N   UNK N   1      26.859  23.933  -4.821  0.00  0.00    -0.365 N 
HETATM   10  H   UNK N   1      27.301  23.433  -4.097  0.00  0.00     0.165 HD
ENDROOT
BRANCH   7  11
HETATM   11  C   UNK N   1      25.514  24.472  -8.228  0.00  0.00     0.205 C 
BRANCH  11  12
HETATM   12  O   UNK N   1      24.655  23.399  -8.457  0.00  0.00    -0.396 OA
HETATM   13  H   UNK N   1      24.229  23.295  -9.322  0.00  0.00     0.209 HD
ENDBRANCH  11  12
ENDBRANCH   7  11
TORSDOF 2
ENDMDL
MODEL 9
REMARK VINA RESULT:      -4.5     12.366     13.392
REMARK  2 active torsions:
REMARK  status: ('A' for Active; 'I' for Inactive)
REMARK    1  A    between atoms: C_10  and  C_7 
REMARK    2  A    between atoms: O_11  and  C_10 
ROOT
HETATM    1  C   UNK N   1      34.266  11.438  13.841  0.00  0.00     0.014 A 
HETATM    2  C   UNK N   1      34.034  10.565  14.918  0.00  0.00     0.001 A 
HETATM    3  C   UNK N   1      34.662  10.787  16.165  0.00  0.00     0.002 A 
HETATM    4  C   UNK N   1      35.528  11.884  16.343  0.00  0.00     0.030 A 
HETATM    5  C   UNK N   1      35.734  12.727  15.255  0.00  0.00     0.043 A 
HETATM    6  C   UNK N   1      35.126  12.511  14.054  0.00  0.00     0.000 A 
HETATM    7  C   UNK N   1      35.535  13.505  13.213  0.00  0.00    -0.007 A 
HETATM    8  C   UNK N   1      36.400  14.315  13.949  0.00  0.00     0.098 A 
HETATM    9  N   UNK N   1      36.515  13.824  15.210  0.00  0.00    -0.365 N 
HETATM   10  H   UNK N   1      37.059  14.195  15.943  0.00  0.00     0.165 HD
ENDROOT
BRANCH   7  11
HETATM   11  C   UNK N   1      35.113  13.659  11.788  0.00  0.00     0.205 C 
BRANCH  11  12
HETATM   12  O   UNK N   1      33.935  14.397  11.688  0.00  0.00    -0.396 OA
HETATM   13  H   UNK N   1      33.355  14.492  12.460  0.00  0.00     0.209 HD
ENDBRANCH  11  12
ENDBRANCH   7  11
TORSDOF 2
ENDMDL
