MODEL 1
REMARK VINA RESULT:      -5.3      0.000      0.000
REMARK  17 active torsions:
REMARK  status: ('A' for Active; 'I' for Inactive)
REMARK    1  A    between atoms: C_1  and  C_3 
REMARK    2  A    between atoms: C_2  and  C_4 
REMARK    3  A    between atoms: C_3  and  C_5 
REMARK    4  A    between atoms: C_3  and  O_6 
REMARK    5  A    between atoms: C_5  and  C_8 
REMARK    6  A    between atoms: C_7  and  C_9 
REMARK    7  A    between atoms: C_8  and  C_10 
REMARK    8  A    between atoms: C_10  and  C_12 
REMARK    9  A    between atoms: C_11  and  C_13 
REMARK   10  A    between atoms: C_12  and  O_14 
REMARK   11  A    between atoms: C_13  and  C_16 
REMARK   12  A    between atoms: C_13  and  O_17 
REMARK   13  A    between atoms: C_16  and  C_18 
REMARK   14  A    between atoms: C_19  and  C_20 
REMARK   15  A    between atoms: C_20  and  C_21 
REMARK   16  A    between atoms: C_21  and  C_22 
REMARK   17  A    between atoms: C_22  and  C_23 
ROOT
HETATM    1  C   UNK N   1      20.116  15.441   7.846  0.00  0.00    -0.000 C 
HETATM    2  C   UNK N   1      20.618  15.197   9.051  0.00  0.00    -0.000 C 
ENDROOT
BRANCH   2   3
HETATM    3  C   UNK N   1      20.557  13.908   9.730  0.00  0.00    -0.002 C 
HETATM    4  C   UNK N   1      21.726  13.389  10.090  0.00  0.00     0.005 C 
BRANCH   4   5
HETATM    5  C   UNK N   1      21.872  11.999  10.587  0.00  0.00     0.144 C 
BRANCH   5   6
HETATM    6  C   UNK N   1      23.236  11.503  10.123  0.00  0.00     0.062 C 
BRANCH   6   7
HETATM    7  C   UNK N   1      24.316  12.534  10.296  0.00  0.00    -0.028 C 
HETATM    8  C   UNK N   1      24.978  13.156   9.307  0.00  0.00    -0.031 C 
BRANCH   8   9
HETATM    9  C   UNK N   1      24.759  12.926   7.846  0.00  0.00     0.027 C 
BRANCH   9  10
HETATM   10  C   UNK N   1      24.113  14.174   7.269  0.00  0.00     0.004 C 
BRANCH  10  11
HETATM   11  C   UNK N   1      22.904  13.833   6.420  0.00  0.00    -0.000 C 
BRANCH  11  12
HETATM   12  C   UNK N   1      22.670  12.334   6.485  0.00  0.00    -0.005 C 
HETATM   13  C   UNK N   1      21.188  12.041   6.592  0.00  0.00     0.005 C 
ENDBRANCH  11  12
ENDBRANCH  10  11
ENDBRANCH   9  10
ENDBRANCH   8   9
ENDBRANCH   6   7
ENDBRANCH   5   6
BRANCH   5  14
HETATM   14  O   UNK N   1      21.849  12.016  11.982  0.00  0.00    -0.391 OA
HETATM   15  H   UNK N   1      21.856  11.193  12.494  0.00  0.00     0.210 HD
ENDBRANCH   5  14
ENDBRANCH   4   5
ENDBRANCH   2   3
BRANCH   1  16
HETATM   16  C   UNK N   1      20.483  16.738   7.269  0.00  0.00    -0.002 C 
HETATM   17  C   UNK N   1      20.557  17.042   5.974  0.00  0.00     0.004 C 
BRANCH  17  18
HETATM   18  C   UNK N   1      20.170  16.164   4.834  0.00  0.00     0.141 C 
BRANCH  18  19
HETATM   19  C   UNK N   1      21.112  16.558   3.704  0.00  0.00     0.036 C 
BRANCH  19  20
HETATM   20  C   UNK N   1      21.641  17.976   3.791  0.00  0.00     0.013 C 
BRANCH  20  21
HETATM   21  C   UNK N   1      20.931  18.806   2.728  0.00  0.00     0.110 C 
BRANCH  21  22
HETATM   22  C   UNK N   1      20.966  20.286   2.974  0.00  0.00     0.139 C 
HETATM   23  O   UNK N   1      20.232  20.807   3.801  0.00  0.00    -0.650 OA
BRANCH  22  24
HETATM   24  O   UNK N   1      21.819  21.051   2.267  0.00  0.00    -0.776 OA
HETATM   25  H   UNK N   1      22.105  21.889   2.574  0.00  0.00     0.167 HD
ENDBRANCH  22  24
ENDBRANCH  21  22
ENDBRANCH  20  21
ENDBRANCH  19  20
ENDBRANCH  18  19
BRANCH  18  26
HETATM   26  O   UNK N   1      18.849  16.456   4.481  0.00  0.00    -0.392 OA
HETATM   27  H   UNK N   1      18.112  16.213   5.063  0.00  0.00     0.210 HD
ENDBRANCH  18  26
ENDBRANCH  17  18
ENDBRANCH   1  16
TORSDOF 17
ENDMDL
MODEL 2
REMARK VINA RESULT:      -5.3     14.887     18.782
REMARK  17 active torsions:
REMARK  status: ('A' for Active; 'I' for Inactive)
REMARK    1  A    between atoms: C_1  and  C_3 
REMARK    2  A    between atoms: C_2  and  C_4 
REMARK    3  A    between atoms: C_3  and  C_5 
REMARK    4  A    between atoms: C_3  and  O_6 
REMARK    5  A    between atoms: C_5  and  C_8 
REMARK    6  A    between atoms: C_7  and  C_9 
REMARK    7  A    between atoms: C_8  and  C_10 
REMARK    8  A    between atoms: C_10  and  C_12 
REMARK    9  A    between atoms: C_11  and  C_13 
REMARK   10  A    between atoms: C_12  and  O_14 
REMARK   11  A    between atoms: C_13  and  C_16 
REMARK   12  A    between atoms: C_13  and  O_17 
REMARK   13  A    between atoms: C_16  and  C_18 
REMARK   14  A    between atoms: C_19  and  C_20 
REMARK   15  A    between atoms: C_20  and  C_21 
REMARK   16  A    between atoms: C_21  and  C_22 
REMARK   17  A    between atoms: C_22  and  C_23 
ROOT
HETATM    1  C   UNK N   1      35.337  12.801  17.007  0.00  0.00    -0.000 C 
HETATM    2  C   UNK N   1      36.240  13.485  16.314  0.00  0.00    -0.000 C 
ENDROOT
BRANCH   2   3
HETATM    3  C   UNK N   1      36.517  13.293  14.895  0.00  0.00    -0.002 C 
HETATM    4  C   UNK N   1      35.570  13.712  14.062  0.00  0.00     0.005 C 
BRANCH   4   5
HETATM    5  C   UNK N   1      35.580  13.403  12.611  0.00  0.00     0.144 C 
BRANCH   5   6
HETATM    6  C   UNK N   1      35.904  11.921  12.475  0.00  0.00     0.062 C 
BRANCH   6   7
HETATM    7  C   UNK N   1      34.687  11.087  12.185  0.00  0.00    -0.028 C 
HETATM    8  C   UNK N   1      33.959  10.413  13.090  0.00  0.00    -0.031 C 
BRANCH   8   9
HETATM    9  C   UNK N   1      34.236  10.369  14.559  0.00  0.00     0.027 C 
BRANCH   9  10
HETATM   10  C   UNK N   1      35.266   9.281  14.808  0.00  0.00     0.004 C 
BRANCH  10  11
HETATM   11  C   UNK N   1      36.063   9.548  16.070  0.00  0.00    -0.000 C 
BRANCH  11  12
HETATM   12  C   UNK N   1      37.503   9.131  15.836  0.00  0.00    -0.005 C 
HETATM   13  C   UNK N   1      38.137  10.013  14.780  0.00  0.00     0.005 C 
ENDBRANCH  11  12
ENDBRANCH  10  11
ENDBRANCH   9  10
ENDBRANCH   8   9
ENDBRANCH   6   7
ENDBRANCH   5   6
BRANCH   5  14
HETATM   14  O   UNK N   1      34.306  13.636  12.094  0.00  0.00    -0.391 OA
HETATM   15  H   UNK N   1      34.141  14.362  11.472  0.00  0.00     0.210 HD
ENDBRANCH   5  14
ENDBRANCH   4   5
ENDBRANCH   2   3
BRANCH   1  16
HETATM   16  C   UNK N   1      35.074  13.307  18.357  0.00  0.00    -0.002 C 
HETATM   17  C   UNK N   1      35.258  12.653  19.504  0.00  0.00     0.004 C 
BRANCH  17  18
HETATM   18  C   UNK N   1      35.883  11.310  19.668  0.00  0.00     0.141 C 
BRANCH  18  19
HETATM   19  C   UNK N   1      34.722  10.329  19.572  0.00  0.00     0.036 C 
BRANCH  19  20
HETATM   20  C   UNK N   1      34.503   9.489  20.815  0.00  0.00     0.013 C 
BRANCH  20  21
HETATM   21  C   UNK N   1      33.024   9.564  21.175  0.00  0.00     0.110 C 
BRANCH  21  22
HETATM   22  C   UNK N   1      32.723  10.407  22.380  0.00  0.00     0.139 C 
HETATM   23  O   UNK N   1      32.209   9.923  23.378  0.00  0.00    -0.650 OA
BRANCH  22  24
HETATM   24  O   UNK N   1      33.021  11.719  22.356  0.00  0.00    -0.776 OA
HETATM   25  H   UNK N   1      32.724  12.283  21.669  0.00  0.00     0.167 HD
ENDBRANCH  22  24
ENDBRANCH  21  22
ENDBRANCH  20  21
ENDBRANCH  19  20
ENDBRANCH  18  19
BRANCH  18  26
HETATM   26  O   UNK N   1      36.462  11.245  20.939  0.00  0.00    -0.392 OA
HETATM   27  H   UNK N   1      36.735  12.051  21.405  0.00  0.00     0.210 HD
ENDBRANCH  18  26
ENDBRANCH  17  18
ENDBRANCH   1  16
TORSDOF 17
ENDMDL
MODEL 3
REMARK VINA RESULT:      -5.1     14.882     16.929
REMARK  17 active torsions:
REMARK  status: ('A' for Active; 'I' for Inactive)
REMARK    1  A    between atoms: C_1  and  C_3 
REMARK    2  A    between atoms: C_2  and  C_4 
REMARK    3  A    between atoms: C_3  and  C_5 
REMARK    4  A    between atoms: C_3  and  O_6 
REMARK    5  A    between atoms: C_5  and  C_8 
REMARK    6  A    between atoms: C_7  and  C_9 
REMARK    7  A    between atoms: C_8  and  C_10 
REMARK    8  A    between atoms: C_10  and  C_12 
REMARK    9  A    between atoms: C_11  and  C_13 
REMARK   10  A    between atoms: C_12  and  O_14 
REMARK   11  A    between atoms: C_13  and  C_16 
REMARK   12  A    between atoms: C_13  and  O_17 
REMARK   13  A    between atoms: C_16  and  C_18 
REMARK   14  A    between atoms: C_19  and  C_20 
REMARK   15  A    between atoms: C_20  and  C_21 
REMARK   16  A    between atoms: C_21  and  C_22 
REMARK   17  A    between atoms: C_22  and  C_23 
ROOT
HETATM    1  C   UNK N   1      28.587  23.500  -3.392  0.00  0.00    -0.000 C 
HETATM    2  C   UNK N   1      29.300  23.123  -2.337  0.00  0.00    -0.000 C 
ENDROOT
BRANCH   2   3
HETATM    3  C   UNK N   1      30.713  22.764  -2.377  0.00  0.00    -0.002 C 
HETATM    4  C   UNK N   1      31.053  21.859  -3.288  0.00  0.00     0.005 C 
BRANCH   4   5
HETATM    5  C   UNK N   1      32.391  21.217  -3.327  0.00  0.00     0.144 C 
BRANCH   5   6
HETATM    6  C   UNK N   1      33.311  22.155  -4.096  0.00  0.00     0.062 C 
BRANCH   6   7
HETATM    7  C   UNK N   1      32.815  22.440  -5.487  0.00  0.00    -0.028 C 
HETATM    8  C   UNK N   1      32.499  23.649  -5.979  0.00  0.00    -0.031 C 
BRANCH   8   9
HETATM    9  C   UNK N   1      32.582  24.936  -5.223  0.00  0.00     0.027 C 
BRANCH   9  10
HETATM   10  C   UNK N   1      31.165  25.422  -4.970  0.00  0.00     0.004 C 
BRANCH  10  11
HETATM   11  C   UNK N   1      31.087  26.283  -3.724  0.00  0.00    -0.000 C 
BRANCH  11  12
HETATM   12  C   UNK N   1      29.769  27.037  -3.734  0.00  0.00    -0.005 C 
HETATM   13  C   UNK N   1      29.833  28.186  -4.718  0.00  0.00     0.005 C 
ENDBRANCH  11  12
ENDBRANCH  10  11
ENDBRANCH   9  10
ENDBRANCH   8   9
ENDBRANCH   6   7
ENDBRANCH   5   6
BRANCH   5  14
HETATM   14  O   UNK N   1      32.865  21.089  -2.021  0.00  0.00    -0.391 OA
HETATM   15  H   UNK N   1      32.330  20.665  -1.331  0.00  0.00     0.210 HD
ENDBRANCH   5  14
ENDBRANCH   4   5
ENDBRANCH   2   3
BRANCH   1  16
HETATM   16  C   UNK N   1      27.252  24.022  -3.087  0.00  0.00    -0.002 C 
HETATM   17  C   UNK N   1      26.373  24.520  -3.956  0.00  0.00     0.004 C 
BRANCH  17  18
HETATM   18  C   UNK N   1      26.510  24.545  -5.440  0.00  0.00     0.141 C 
BRANCH  18  19
HETATM   19  C   UNK N   1      26.839  25.994  -5.773  0.00  0.00     0.036 C 
BRANCH  19  20
HETATM   20  C   UNK N   1      25.713  26.759  -6.440  0.00  0.00     0.013 C 
BRANCH  20  21
HETATM   21  C   UNK N   1      24.882  27.416  -5.344  0.00  0.00     0.110 C 
BRANCH  21  22
HETATM   22  C   UNK N   1      25.683  28.207  -4.351  0.00  0.00     0.139 C 
HETATM   23  O   UNK N   1      26.407  29.123  -4.711  0.00  0.00    -0.650 OA
BRANCH  22  24
HETATM   24  O   UNK N   1      25.602  27.898  -3.044  0.00  0.00    -0.776 OA
HETATM   25  H   UNK N   1      26.275  28.135  -2.436  0.00  0.00     0.167 HD
ENDBRANCH  22  24
ENDBRANCH  21  22
ENDBRANCH  20  21
ENDBRANCH  19  20
ENDBRANCH  18  19
BRANCH  18  26
HETATM   26  O   UNK N   1      25.280  24.191  -6.002  0.00  0.00    -0.392 OA
HETATM   27  H   UNK N   1      24.874  23.331  -5.813  0.00  0.00     0.210 HD
ENDBRANCH  18  26
ENDBRANCH  17  18
ENDBRANCH   1  16
TORSDOF 17
ENDMDL
MODEL 4
REMARK VINA RESULT:      -5.1     15.095     17.771
REMARK  17 active torsions:
REMARK  status: ('A' for Active; 'I' for Inactive)
REMARK    1  A    between atoms: C_1  and  C_3 
REMARK    2  A    between atoms: C_2  and  C_4 
REMARK    3  A    between atoms: C_3  and  C_5 
REMARK    4  A    between atoms: C_3  and  O_6 
REMARK    5  A    between atoms: C_5  and  C_8 
REMARK    6  A    between atoms: C_7  and  C_9 
REMARK    7  A    between atoms: C_8  and  C_10 
REMARK    8  A    between atoms: C_10  and  C_12 
REMARK    9  A    between atoms: C_11  and  C_13 
REMARK   10  A    between atoms: C_12  and  O_14 
REMARK   11  A    between atoms: C_13  and  C_16 
REMARK   12  A    between atoms: C_13  and  O_17 
REMARK   13  A    between atoms: C_16  and  C_18 
REMARK   14  A    between atoms: C_19  and  C_20 
REMARK   15  A    between atoms: C_20  and  C_21 
REMARK   16  A    between atoms: C_21  and  C_22 
REMARK   17  A    between atoms: C_22  and  C_23 
ROOT
HETATM    1  C   UNK N   1      30.096  21.345  -5.485  0.00  0.00    -0.000 C 
HETATM    2  C   UNK N   1      30.204  22.121  -6.557  0.00  0.00    -0.000 C 
ENDROOT
BRANCH   2   3
HETATM    3  C   UNK N   1      29.129  22.376  -7.508  0.00  0.00    -0.002 C 
HETATM    4  C   UNK N   1      27.913  22.010  -7.116  0.00  0.00     0.005 C 
BRANCH   4   5
HETATM    5  C   UNK N   1      26.744  21.990  -8.029  0.00  0.00     0.144 C 
BRANCH   5   6
HETATM    6  C   UNK N   1      26.657  23.369  -8.670  0.00  0.00     0.062 C 
BRANCH   6   7
HETATM    7  C   UNK N   1      25.734  24.294  -7.927  0.00  0.00    -0.028 C 
HETATM    8  C   UNK N   1      26.069  25.481  -7.394  0.00  0.00    -0.031 C 
BRANCH   8   9
HETATM    9  C   UNK N   1      27.432  26.094  -7.443  0.00  0.00     0.027 C 
BRANCH   9  10
HETATM   10  C   UNK N   1      27.387  27.395  -6.659  0.00  0.00     0.004 C 
BRANCH  10  11
HETATM   11  C   UNK N   1      26.098  27.524  -5.871  0.00  0.00    -0.000 C 
BRANCH  11  12
HETATM   12  C   UNK N   1      26.325  28.484  -4.718  0.00  0.00    -0.005 C 
HETATM   13  C   UNK N   1      25.776  27.897  -3.434  0.00  0.00     0.005 C 
ENDBRANCH  11  12
ENDBRANCH  10  11
ENDBRANCH   9  10
ENDBRANCH   8   9
ENDBRANCH   6   7
ENDBRANCH   5   6
BRANCH   5  14
HETATM   14  O   UNK N   1      26.969  21.041  -9.026  0.00  0.00    -0.391 OA
HETATM   15  H   UNK N   1      27.615  21.199  -9.733  0.00  0.00     0.210 HD
ENDBRANCH   5  14
ENDBRANCH   4   5
ENDBRANCH   2   3
BRANCH   1  16
HETATM   16  C   UNK N   1      31.227  21.407  -4.554  0.00  0.00    -0.002 C 
HETATM   17  C   UNK N   1      31.323  22.168  -3.465  0.00  0.00     0.004 C 
BRANCH  17  18
HETATM   18  C   UNK N   1      30.253  23.034  -2.892  0.00  0.00     0.141 C 
BRANCH  18  19
HETATM   19  C   UNK N   1      30.534  24.420  -3.456  0.00  0.00     0.036 C 
BRANCH  19  20
HETATM   20  C   UNK N   1      29.295  25.224  -3.797  0.00  0.00     0.013 C 
BRANCH  20  21
HETATM   21  C   UNK N   1      28.240  24.257  -4.320  0.00  0.00     0.110 C 
BRANCH  21  22
HETATM   22  C   UNK N   1      26.973  24.231  -3.515  0.00  0.00     0.139 C 
HETATM   23  O   UNK N   1      25.891  24.472  -4.030  0.00  0.00    -0.650 OA
BRANCH  22  24
HETATM   24  O   UNK N   1      27.033  23.940  -2.202  0.00  0.00    -0.776 OA
HETATM   25  H   UNK N   1      27.325  23.105  -1.892  0.00  0.00     0.167 HD
ENDBRANCH  22  24
ENDBRANCH  21  22
ENDBRANCH  20  21
ENDBRANCH  19  20
ENDBRANCH  18  19
BRANCH  18  26
HETATM   26  O   UNK N   1      30.393  23.045  -1.501  0.00  0.00    -0.392 OA
HETATM   27  H   UNK N   1      30.019  22.335  -0.956  0.00  0.00     0.210 HD
ENDBRANCH  18  26
ENDBRANCH  17  18
ENDBRANCH   1  16
TORSDOF 17
ENDMDL
MODEL 5
REMARK VINA RESULT:      -5.1      7.699      9.354
REMARK  17 active torsions:
REMARK  status: ('A' for Active; 'I' for Inactive)
REMARK    1  A    between atoms: C_1  and  C_3 
REMARK    2  A    between atoms: C_2  and  C_4 
REMARK    3  A    between atoms: C_3  and  C_5 
REMARK    4  A    between atoms: C_3  and  O_6 
REMARK    5  A    between atoms: C_5  and  C_8 
REMARK    6  A    between atoms: C_7  and  C_9 
REMARK    7  A    between atoms: C_8  and  C_10 
REMARK    8  A    between atoms: C_10  and  C_12 
REMARK    9  A    between atoms: C_11  and  C_13 
REMARK   10  A    between atoms: C_12  and  O_14 
REMARK   11  A    between atoms: C_13  and  C_16 
REMARK   12  A    between atoms: C_13  and  O_17 
REMARK   13  A    between atoms: C_16  and  C_18 
REMARK   14  A    between atoms: C_19  and  C_20 
REMARK   15  A    between atoms: C_20  and  C_21 
REMARK   16  A    between atoms: C_21  and  C_22 
REMARK   17  A    between atoms: C_22  and  C_23 
ROOT
HETATM    1  C   UNK N   1      29.402  17.866   8.283  0.00  0.00    -0.000 C 
HETATM    2  C   UNK N   1      30.600  18.397   8.495  0.00  0.00    -0.000 C 
ENDROOT
BRANCH   2   3
HETATM    3  C   UNK N   1      31.851  17.647   8.497  0.00  0.00    -0.002 C 
HETATM    4  C   UNK N   1      32.948  18.355   8.254  0.00  0.00     0.005 C 
BRANCH   4   5
HETATM    5  C   UNK N   1      34.271  17.731   8.001  0.00  0.00     0.144 C 
BRANCH   5   6
HETATM    6  C   UNK N   1      34.088  16.227   8.155  0.00  0.00     0.062 C 
BRANCH   6   7
HETATM    7  C   UNK N   1      34.391  15.476   6.888  0.00  0.00    -0.028 C 
HETATM    8  C   UNK N   1      33.579  14.595   6.281  0.00  0.00    -0.031 C 
BRANCH   8   9
HETATM    9  C   UNK N   1      32.220  14.201   6.764  0.00  0.00     0.027 C 
BRANCH   9  10
HETATM   10  C   UNK N   1      31.248  14.364   5.608  0.00  0.00     0.004 C 
BRANCH  10  11
HETATM   11  C   UNK N   1      30.463  15.656   5.720  0.00  0.00    -0.000 C 
BRANCH  11  12
HETATM   12  C   UNK N   1      30.662  16.460   4.449  0.00  0.00    -0.005 C 
HETATM   13  C   UNK N   1      31.730  17.513   4.658  0.00  0.00     0.005 C 
ENDBRANCH  11  12
ENDBRANCH  10  11
ENDBRANCH   9  10
ENDBRANCH   8   9
ENDBRANCH   6   7
ENDBRANCH   5   6
BRANCH   5  14
HETATM   14  O   UNK N   1      34.655  18.008   6.689  0.00  0.00    -0.391 OA
HETATM   15  H   UNK N   1      35.226  18.765   6.482  0.00  0.00     0.210 HD
ENDBRANCH   5  14
ENDBRANCH   4   5
ENDBRANCH   2   3
BRANCH   1  16
HETATM   16  C   UNK N   1      28.314  18.832   8.108  0.00  0.00    -0.002 C 
HETATM   17  C   UNK N   1      27.836  19.294   6.952  0.00  0.00     0.004 C 
BRANCH  17  18
HETATM   18  C   UNK N   1      28.225  18.840   5.587  0.00  0.00     0.141 C 
BRANCH  18  19
HETATM   19  C   UNK N   1      27.898  20.017   4.679  0.00  0.00     0.036 C 
BRANCH  19  20
HETATM   20  C   UNK N   1      26.462  20.496   4.762  0.00  0.00     0.013 C 
BRANCH  20  21
HETATM   21  C   UNK N   1      25.858  20.407   3.366  0.00  0.00     0.110 C 
BRANCH  21  22
HETATM   22  C   UNK N   1      24.365  20.249   3.348  0.00  0.00     0.139 C 
HETATM   23  O   UNK N   1      23.642  21.124   2.893  0.00  0.00    -0.650 OA
BRANCH  22  24
HETATM   24  O   UNK N   1      23.816  19.125   3.844  0.00  0.00    -0.776 OA
HETATM   25  H   UNK N   1      23.812  18.321   3.362  0.00  0.00     0.167 HD
ENDBRANCH  22  24
ENDBRANCH  21  22
ENDBRANCH  20  21
ENDBRANCH  19  20
ENDBRANCH  18  19
BRANCH  18  26
HETATM   26  O   UNK N   1      27.436  17.737   5.248  0.00  0.00    -0.392 OA
HETATM   27  H   UNK N   1      26.495  17.843   5.036  0.00  0.00     0.210 HD
ENDBRANCH  18  26
ENDBRANCH  17  18
ENDBRANCH   1  16
TORSDOF 17
ENDMDL
MODEL 6
REMARK VINA RESULT:      -5.1     15.441     17.855
REMARK  17 active torsions:
REMARK  status: ('A' for Active; 'I' for Inactive)
REMARK    1  A    between atoms: C_1  and  C_3 
REMARK    2  A    between atoms: C_2  and  C_4 
REMARK    3  A    between atoms: C_3  and  C_5 
REMARK    4  A    between atoms: C_3  and  O_6 
REMARK    5  A    between atoms: C_5  and  C_8 
REMARK    6  A    between atoms: C_7  and  C_9 
REMARK    7  A    between atoms: C_8  and  C_10 
REMARK    8  A    between atoms: C_10  and  C_12 
REMARK    9  A    between atoms: C_11  and  C_13 
REMARK   10  A    between atoms: C_12  and  O_14 
REMARK   11  A    between atoms: C_13  and  C_16 
REMARK   12  A    between atoms: C_13  and  O_17 
REMARK   13  A    between atoms: C_16  and  C_18 
REMARK   14  A    between atoms: C_19  and  C_20 
REMARK   15  A    between atoms: C_20  and  C_21 
REMARK   16  A    between atoms: C_21  and  C_22 
REMARK   17  A    between atoms: C_22  and  C_23 
ROOT
HETATM    1  C   UNK N   1      28.858  23.817  -4.393  0.00  0.00    -0.000 C 
HETATM    2  C   UNK N   1      27.812  23.977  -3.591  0.00  0.00    -0.000 C 
ENDROOT
BRANCH   2   3
HETATM    3  C   UNK N   1      27.032  25.204  -3.480  0.00  0.00    -0.002 C 
HETATM    4  C   UNK N   1      27.657  26.320  -3.842  0.00  0.00     0.005 C 
BRANCH   4   5
HETATM    5  C   UNK N   1      27.102  27.673  -3.591  0.00  0.00     0.144 C 
BRANCH   5   6
HETATM    6  C   UNK N   1      26.567  28.187  -4.921  0.00  0.00     0.062 C 
BRANCH   6   7
HETATM    7  C   UNK N   1      25.330  27.459  -5.367  0.00  0.00    -0.028 C 
HETATM    8  C   UNK N   1      25.215  26.705  -6.473  0.00  0.00    -0.031 C 
BRANCH   8   9
HETATM    9  C   UNK N   1      26.305  26.460  -7.466  0.00  0.00     0.027 C 
BRANCH   9  10
HETATM   10  C   UNK N   1      26.794  25.033  -7.280  0.00  0.00     0.004 C 
BRANCH  10  11
HETATM   11  C   UNK N   1      25.719  24.153  -6.672  0.00  0.00    -0.000 C 
BRANCH  11  12
HETATM   12  C   UNK N   1      25.957  22.719  -7.111  0.00  0.00    -0.005 C 
HETATM   13  C   UNK N   1      27.385  22.548  -7.585  0.00  0.00     0.005 C 
ENDBRANCH  11  12
ENDBRANCH  10  11
ENDBRANCH   9  10
ENDBRANCH   8   9
ENDBRANCH   6   7
ENDBRANCH   5   6
BRANCH   5  14
HETATM   14  O   UNK N   1      26.043  27.563  -2.690  0.00  0.00    -0.391 OA
HETATM   15  H   UNK N   1      25.133  27.770  -2.956  0.00  0.00     0.210 HD
ENDBRANCH   5  14
ENDBRANCH   4   5
ENDBRANCH   2   3
BRANCH   1  16
HETATM   16  C   UNK N   1      29.352  22.442  -4.506  0.00  0.00    -0.002 C 
HETATM   17  C   UNK N   1      30.443  21.937  -3.931  0.00  0.00     0.004 C 
BRANCH  17  18
HETATM   18  C   UNK N   1      31.333  22.629  -2.955  0.00  0.00     0.141 C 
BRANCH  18  19
HETATM   19  C   UNK N   1      32.537  21.708  -2.808  0.00  0.00     0.036 C 
BRANCH  19  20
HETATM   20  C   UNK N   1      33.301  21.460  -4.093  0.00  0.00     0.013 C 
BRANCH  20  21
HETATM   21  C   UNK N   1      34.470  20.537  -3.771  0.00  0.00     0.110 C 
BRANCH  21  22
HETATM   22  C   UNK N   1      34.304  19.131  -4.272  0.00  0.00     0.139 C 
HETATM   23  O   UNK N   1      34.914  18.734  -5.253  0.00  0.00    -0.650 OA
BRANCH  22  24
HETATM   24  O   UNK N   1      33.465  18.298  -3.629  0.00  0.00    -0.776 OA
HETATM   25  H   UNK N   1      32.609  18.568  -3.358  0.00  0.00     0.167 HD
ENDBRANCH  22  24
ENDBRANCH  21  22
ENDBRANCH  20  21
ENDBRANCH  19  20
ENDBRANCH  18  19
BRANCH  18  26
HETATM   26  O   UNK N   1      30.655  22.732  -1.737  0.00  0.00    -0.392 OA
HETATM   27  H   UNK N   1      30.953  23.349  -1.051  0.00  0.00     0.210 HD
ENDBRANCH  18  26
ENDBRANCH  17  18
ENDBRANCH   1  16
TORSDOF 17
ENDMDL
MODEL 7
REMARK VINA RESULT:      -5.0     15.419     17.230
REMARK  17 active torsions:
REMARK  status: ('A' for Active; 'I' for Inactive)
REMARK    1  A    between atoms: C_1  and  C_3 
REMARK    2  A    between atoms: C_2  and  C_4 
REMARK    3  A    between atoms: C_3  and  C_5 
REMARK    4  A    between atoms: C_3  and  O_6 
REMARK    5  A    between atoms: C_5  and  C_8 
REMARK    6  A    between atoms: C_7  and  C_9 
REMARK    7  A    between atoms: C_8  and  C_10 
REMARK    8  A    between atoms: C_10  and  C_12 
REMARK    9  A    between atoms: C_11  and  C_13 
REMARK   10  A    between atoms: C_12  and  O_14 
REMARK   11  A    between atoms: C_13  and  C_16 
REMARK   12  A    between atoms: C_13  and  O_17 
REMARK   13  A    between atoms: C_16  and  C_18 
REMARK   14  A    between atoms: C_19  and  C_20 
REMARK   15  A    between atoms: C_20  and  C_21 
REMARK   16  A    between atoms: C_21  and  C_22 
REMARK   17  A    between atoms: C_22  and  C_23 
ROOT
HETATM    1  C   UNK N   1      30.602  20.699  -6.083  0.00  0.00    -0.000 C 
HETATM    2  C   UNK N   1      31.007  20.319  -4.877  0.00  0.00    -0.000 C 
ENDROOT
BRANCH   2   3
HETATM    3  C   UNK N   1      31.004  21.174  -3.695  0.00  0.00    -0.002 C 
HETATM    4  C   UNK N   1      30.392  22.345  -3.831  0.00  0.00     0.005 C 
BRANCH   4   5
HETATM    5  C   UNK N   1      30.480  23.423  -2.815  0.00  0.00     0.144 C 
BRANCH   5   6
HETATM    6  C   UNK N   1      29.187  24.224  -2.905  0.00  0.00     0.062 C 
BRANCH   6   7
HETATM    7  C   UNK N   1      28.963  24.809  -4.271  0.00  0.00    -0.028 C 
HETATM    8  C   UNK N   1      27.784  24.893  -4.909  0.00  0.00    -0.031 C 
BRANCH   8   9
HETATM    9  C   UNK N   1      26.475  24.410  -4.369  0.00  0.00     0.027 C 
BRANCH   9  10
HETATM   10  C   UNK N   1      25.406  24.703  -5.408  0.00  0.00     0.004 C 
BRANCH  10  11
HETATM   11  C   UNK N   1      25.695  25.991  -6.155  0.00  0.00    -0.000 C 
BRANCH  11  12
HETATM   12  C   UNK N   1      24.743  27.066  -5.663  0.00  0.00    -0.005 C 
HETATM   13  C   UNK N   1      25.412  27.907  -4.597  0.00  0.00     0.005 C 
ENDBRANCH  11  12
ENDBRANCH  10  11
ENDBRANCH   9  10
ENDBRANCH   8   9
ENDBRANCH   6   7
ENDBRANCH   5   6
BRANCH   5  14
HETATM   14  O   UNK N   1      30.565  22.843  -1.550  0.00  0.00    -0.391 OA
HETATM   15  H   UNK N   1      31.239  22.174  -1.348  0.00  0.00     0.210 HD
ENDBRANCH   5  14
ENDBRANCH   4   5
ENDBRANCH   2   3
BRANCH   1  16
HETATM   16  C   UNK N   1      30.484  19.620  -7.069  0.00  0.00    -0.002 C 
HETATM   17  C   UNK N   1      29.777  19.645  -8.198  0.00  0.00     0.004 C 
BRANCH  17  18
HETATM   18  C   UNK N   1      29.048  20.817  -8.762  0.00  0.00     0.141 C 
BRANCH  18  19
HETATM   19  C   UNK N   1      27.656  20.739  -8.149  0.00  0.00     0.036 C 
BRANCH  19  20
HETATM   20  C   UNK N   1      27.156  22.040  -7.552  0.00  0.00     0.013 C 
BRANCH  20  21
HETATM   21  C   UNK N   1      26.802  22.975  -8.702  0.00  0.00     0.110 C 
BRANCH  21  22
HETATM   22  C   UNK N   1      25.341  23.305  -8.803  0.00  0.00     0.139 C 
HETATM   23  O   UNK N   1      24.962  24.347  -9.316  0.00  0.00    -0.650 OA
BRANCH  22  24
HETATM   24  O   UNK N   1      24.435  22.437  -8.315  0.00  0.00    -0.776 OA
HETATM   25  H   UNK N   1      24.359  22.262  -7.398  0.00  0.00     0.167 HD
ENDBRANCH  22  24
ENDBRANCH  21  22
ENDBRANCH  20  21
ENDBRANCH  19  20
ENDBRANCH  18  19
BRANCH  18  26
HETATM   26  O   UNK N   1      28.971  20.663 -10.149  0.00  0.00    -0.392 OA
HETATM   27  H   UNK N   1      29.714  20.295 -10.652  0.00  0.00     0.210 HD
ENDBRANCH  18  26
ENDBRANCH  17  18
ENDBRANCH   1  16
TORSDOF 17
ENDMDL
MODEL 8
REMARK VINA RESULT:      -5.0      8.812     13.086
REMARK  17 active torsions:
REMARK  status: ('A' for Active; 'I' for Inactive)
REMARK    1  A    between atoms: C_1  and  C_3 
REMARK    2  A    between atoms: C_2  and  C_4 
REMARK    3  A    between atoms: C_3  and  C_5 
REMARK    4  A    between atoms: C_3  and  O_6 
REMARK    5  A    between atoms: C_5  and  C_8 
REMARK    6  A    between atoms: C_7  and  C_9 
REMARK    7  A    between atoms: C_8  and  C_10 
REMARK    8  A    between atoms: C_10  and  C_12 
REMARK    9  A    between atoms: C_11  and  C_13 
REMARK   10  A    between atoms: C_12  and  O_14 
REMARK   11  A    between atoms: C_13  and  C_16 
REMARK   12  A    between atoms: C_13  and  O_17 
REMARK   13  A    between atoms: C_16  and  C_18 
REMARK   14  A    between atoms: C_19  and  C_20 
REMARK   15  A    between atoms: C_20  and  C_21 
REMARK   16  A    between atoms: C_21  and  C_22 
REMARK   17  A    between atoms: C_22  and  C_23 
ROOT
HETATM    1  C   UNK N   1      31.941  16.127   8.420  0.00  0.00    -0.000 C 
HETATM    2  C   UNK N   1      32.002  17.453   8.373  0.00  0.00    -0.000 C 
ENDROOT
BRANCH   2   3
HETATM    3  C   UNK N   1      30.913  18.347   8.745  0.00  0.00    -0.002 C 
HETATM    4  C   UNK N   1      29.688  17.907   8.477  0.00  0.00     0.005 C 
BRANCH   4   5
HETATM    5  C   UNK N   1      28.482  18.765   8.582  0.00  0.00     0.144 C 
BRANCH   5   6
HETATM    6  C   UNK N   1      27.938  18.941   7.170  0.00  0.00     0.062 C 
BRANCH   6   7
HETATM    7  C   UNK N   1      27.256  20.266   6.974  0.00  0.00    -0.028 C 
HETATM    8  C   UNK N   1      27.016  20.862   5.795  0.00  0.00    -0.031 C 
BRANCH   8   9
HETATM    9  C   UNK N   1      27.391  20.309   4.457  0.00  0.00     0.027 C 
BRANCH   9  10
HETATM   10  C   UNK N   1      26.231  19.464   3.959  0.00  0.00     0.004 C 
BRANCH  10  11
HETATM   11  C   UNK N   1      25.602  20.062   2.715  0.00  0.00    -0.000 C 
BRANCH  11  12
HETATM   12  C   UNK N   1      24.283  20.709   3.097  0.00  0.00    -0.005 C 
HETATM   13  C   UNK N   1      23.270  19.647   3.471  0.00  0.00     0.005 C 
ENDBRANCH  11  12
ENDBRANCH  10  11
ENDBRANCH   9  10
ENDBRANCH   8   9
ENDBRANCH   6   7
ENDBRANCH   5   6
BRANCH   5  14
HETATM   14  O   UNK N   1      27.527  18.104   9.355  0.00  0.00    -0.391 OA
HETATM   15  H   UNK N   1      27.785  17.561  10.116  0.00  0.00     0.210 HD
ENDBRANCH   5  14
ENDBRANCH   4   5
ENDBRANCH   2   3
BRANCH   1  16
HETATM   16  C   UNK N   1      33.217  15.436   8.214  0.00  0.00    -0.002 C 
HETATM   17  C   UNK N   1      34.211  15.317   9.093  0.00  0.00     0.004 C 
BRANCH  17  18
HETATM   18  C   UNK N   1      34.193  15.759  10.516  0.00  0.00     0.141 C 
BRANCH  18  19
HETATM   19  C   UNK N   1      35.641  15.648  10.975  0.00  0.00     0.036 C 
BRANCH  19  20
HETATM   20  C   UNK N   1      36.273  14.291  10.740  0.00  0.00     0.013 C 
BRANCH  20  21
HETATM   21  C   UNK N   1      36.601  13.687  12.101  0.00  0.00     0.110 C 
BRANCH  21  22
HETATM   22  C   UNK N   1      35.700  12.557  12.508  0.00  0.00     0.139 C 
HETATM   23  O   UNK N   1      36.073  11.395  12.437  0.00  0.00    -0.650 OA
BRANCH  22  24
HETATM   24  O   UNK N   1      34.461  12.831  12.955  0.00  0.00    -0.776 OA
HETATM   25  H   UNK N   1      34.293  13.535  13.550  0.00  0.00     0.167 HD
ENDBRANCH  22  24
ENDBRANCH  21  22
ENDBRANCH  20  21
ENDBRANCH  19  20
ENDBRANCH  18  19
BRANCH  18  26
HETATM   26  O   UNK N   1      33.390  14.875  11.243  0.00  0.00    -0.392 OA
HETATM   27  H   UNK N   1      32.882  14.179  10.796  0.00  0.00     0.210 HD
ENDBRANCH  18  26
ENDBRANCH  17  18
ENDBRANCH   1  16
TORSDOF 17
ENDMDL
MODEL 9
REMARK VINA RESULT:      -4.9     14.884     17.833
REMARK  17 active torsions:
REMARK  status: ('A' for Active; 'I' for Inactive)
REMARK    1  A    between atoms: C_1  and  C_3 
REMARK    2  A    between atoms: C_2  and  C_4 
REMARK    3  A    between atoms: C_3  and  C_5 
REMARK    4  A    between atoms: C_3  and  O_6 
REMARK    5  A    between atoms: C_5  and  C_8 
REMARK    6  A    between atoms: C_7  and  C_9 
REMARK    7  A    between atoms: C_8  and  C_10 
REMARK    8  A    between atoms: C_10  and  C_12 
REMARK    9  A    between atoms: C_11  and  C_13 
REMARK   10  A    between atoms: C_12  and  O_14 
REMARK   11  A    between atoms: C_13  and  C_16 
REMARK   12  A    between atoms: C_13  and  O_17 
REMARK   13  A    between atoms: C_16  and  C_18 
REMARK   14  A    between atoms: C_19  and  C_20 
REMARK   15  A    between atoms: C_20  and  C_21 
REMARK   16  A    between atoms: C_21  and  C_22 
REMARK   17  A    between atoms: C_22  and  C_23 
ROOT
HETATM    1  C   UNK N   1      28.034  23.798  -3.514  0.00  0.00    -0.000 C 
HETATM    2  C   UNK N   1      26.799  24.286  -3.501  0.00  0.00    -0.000 C 
ENDROOT
BRANCH   2   3
HETATM    3  C   UNK N   1      25.987  24.520  -4.690  0.00  0.00    -0.002 C 
HETATM    4  C   UNK N   1      26.629  24.442  -5.851  0.00  0.00     0.005 C 
BRANCH   4   5
HETATM    5  C   UNK N   1      26.021  24.863  -7.138  0.00  0.00     0.144 C 
BRANCH   5   6
HETATM    6  C   UNK N   1      25.717  26.351  -7.019  0.00  0.00     0.062 C 
BRANCH   6   7
HETATM    7  C   UNK N   1      26.929  27.209  -7.255  0.00  0.00    -0.028 C 
HETATM    8  C   UNK N   1      27.411  28.139  -6.415  0.00  0.00    -0.031 C 
BRANCH   8   9
HETATM    9  C   UNK N   1      26.820  28.492  -5.087  0.00  0.00     0.027 C 
BRANCH   9  10
HETATM   10  C   UNK N   1      27.720  27.917  -4.007  0.00  0.00     0.004 C 
BRANCH  10  11
HETATM   11  C   UNK N   1      29.177  27.942  -4.427  0.00  0.00    -0.000 C 
BRANCH  11  12
HETATM   12  C   UNK N   1      29.770  26.561  -4.217  0.00  0.00    -0.005 C 
HETATM   13  C   UNK N   1      31.044  26.657  -3.405  0.00  0.00     0.005 C 
ENDBRANCH  11  12
ENDBRANCH  10  11
ENDBRANCH   9  10
ENDBRANCH   8   9
ENDBRANCH   6   7
ENDBRANCH   5   6
BRANCH   5  14
HETATM   14  O   UNK N   1      26.953  24.672  -8.158  0.00  0.00    -0.391 OA
HETATM   15  H   UNK N   1      26.694  24.280  -9.007  0.00  0.00     0.210 HD
ENDBRANCH   5  14
ENDBRANCH   4   5
ENDBRANCH   2   3
BRANCH   1  16
HETATM   16  C   UNK N   1      28.576  23.440  -2.200  0.00  0.00    -0.002 C 
HETATM   17  C   UNK N   1      29.726  22.813  -1.956  0.00  0.00     0.004 C 
BRANCH  17  18
HETATM   18  C   UNK N   1      30.765  22.445  -2.959  0.00  0.00     0.141 C 
BRANCH  18  19
HETATM   19  C   UNK N   1      30.199  21.224  -3.671  0.00  0.00     0.036 C 
BRANCH  19  20
HETATM   20  C   UNK N   1      30.774  20.977  -5.052  0.00  0.00     0.013 C 
BRANCH  20  21
HETATM   21  C   UNK N   1      30.066  21.911  -6.027  0.00  0.00     0.110 C 
BRANCH  21  22
HETATM   22  C   UNK N   1      29.131  21.219  -6.976  0.00  0.00     0.139 C 
HETATM   23  O   UNK N   1      29.372  20.096  -7.395  0.00  0.00    -0.650 OA
BRANCH  22  24
HETATM   24  O   UNK N   1      28.010  21.850  -7.373  0.00  0.00    -0.776 OA
HETATM   25  H   UNK N   1      27.994  22.771  -7.543  0.00  0.00     0.167 HD
ENDBRANCH  22  24
ENDBRANCH  21  22
ENDBRANCH  20  21
ENDBRANCH  19  20
ENDBRANCH  18  19
BRANCH  18  26
HETATM   26  O   UNK N   1      31.936  22.102  -2.276  0.00  0.00    -0.392 OA
HETATM   27  H   UNK N   1      32.638  22.755  -2.130  0.00  0.00     0.210 HD
ENDBRANCH  18  26
ENDBRANCH  17  18
ENDBRANCH   1  16
TORSDOF 17
ENDMDL
