MODEL 1
REMARK VINA RESULT:      -8.8      0.000      0.000
REMARK  22 active torsions:
REMARK  status: ('A' for Active; 'I' for Inactive)
REMARK    1  A    between atoms: C_2  and  C_67 
REMARK    2  A    between atoms: C_4  and  N_25 
REMARK    3  A    between atoms: C_5  and  O_19 
REMARK    4  A    between atoms: C_6  and  N_7 
REMARK       I    between atoms: N_7  and  C_8 
REMARK    5  A    between atoms: C_8  and  C_10 
REMARK    6  A    between atoms: C_10  and  C_11 
REMARK    7  A    between atoms: C_11  and  C_12 
REMARK    8  A    between atoms: C_12  and  C_13 
REMARK    9  A    between atoms: C_13  and  N_14 
REMARK       I    between atoms: N_14  and  C_15 
REMARK       I    between atoms: C_15  and  N_18 
REMARK   10  A    between atoms: C_20  and  O_19 
REMARK       I    between atoms: N_25  and  C_26 
REMARK   11  A    between atoms: C_26  and  C_28 
REMARK   12  A    between atoms: C_30  and  C_36 
REMARK       I    between atoms: C_36  and  N_38 
REMARK   13  A    between atoms: N_38  and  C_39 
REMARK   14  A    between atoms: C_41  and  C_63 
REMARK   15  A    between atoms: C_43  and  N_51 
REMARK   16  A    between atoms: C_44  and  O_45 
REMARK   17  A    between atoms: C_46  and  O_45 
REMARK       I    between atoms: N_51  and  C_52 
REMARK   18  A    between atoms: C_52  and  C_54 
REMARK   19  A    between atoms: C_54  and  C_55 
REMARK   20  A    between atoms: C_55  and  C_56 
REMARK   21  A    between atoms: C_56  and  C_57 
REMARK   22  A    between atoms: C_57  and  N_58 
REMARK       I    between atoms: N_58  and  C_59 
REMARK       I    between atoms: C_59  and  N_62 
ROOT
HETATM    1  C   UNK N   1      34.522  13.372   4.529  0.00  0.00     0.104 C 
HETATM    2  C   UNK N   1      33.190  13.380   4.887  0.00  0.00     0.070 C 
HETATM    3  C   UNK N   1      32.292  14.071   4.118  0.00  0.00     0.104 C 
HETATM    4  N   UNK N   1      32.734  14.764   3.032  0.00  0.00    -0.348 N 
ATOM      5  HN  UNK N   1      32.085  15.357   2.515  1.00  0.00     0.167 HD
HETATM    6  C   UNK N   1      34.029  14.674   2.628  0.00  0.00     0.181 C 
HETATM    7  N   UNK N   1      34.930  14.019   3.407  0.00  0.00    -0.348 N 
ATOM      8  HN  UNK N   1      35.916  14.013   3.148  1.00  0.00     0.167 HD
ENDROOT
BRANCH   1   9
HETATM    9  C   UNK N   1      35.471  12.935   5.546  0.00  0.00     0.272 C 
HETATM   10  N   UNK N   1      36.103  13.844   6.319  0.00  0.00    -0.319 N 
HETATM   11  H   UNK N   1      37.040  14.049   6.099  0.00  0.00     0.169 HD
HETATM   12  O   UNK N   1      35.914  11.797   5.483  0.00  0.00    -0.266 OA
BRANCH  10  13
HETATM   13  C   UNK N   1      35.529  14.532   7.427  0.00  0.00     0.071 A 
HETATM   14  C   UNK N   1      34.906  15.755   7.172  0.00  0.00     0.048 A 
HETATM   15  C   UNK N   1      34.582  16.631   8.212  0.00  0.00     0.052 A 
HETATM   16  C   UNK N   1      34.984  16.320   9.515  0.00  0.00     0.048 A 
HETATM   17  C   UNK N   1      35.593  15.089   9.787  0.00  0.00     0.071 A 
HETATM   18  C   UNK N   1      35.808  14.158   8.763  0.00  0.00     0.122 A 
BRANCH  15  19
HETATM   19  C   UNK N   1      33.908  17.932   7.891  0.00  0.00     0.417 C 
HETATM   20  F   UNK N   1      33.580  17.953   6.547  0.00  0.00    -0.166 F 
HETATM   21  F   UNK N   1      32.749  18.054   8.639  0.00  0.00    -0.166 F 
HETATM   22  F   UNK N   1      34.733  19.009   8.167  0.00  0.00    -0.166 F 
ENDBRANCH  15  19
BRANCH  17  23
HETATM   23  N   UNK N   1      36.234  14.840  11.022  0.00  0.00    -0.325 N 
HETATM   24  C   UNK N   1      35.530  14.464  12.125  0.00  0.00     0.222 C 
HETATM   25  O   UNK N   1      34.340  14.191  12.047  0.00  0.00    -0.273 OA
HETATM   26  H   UNK N   1      37.212  14.939  11.086  0.00  0.00     0.169 HD
BRANCH  24  27
HETATM   27  C   UNK N   1      36.166  14.512  13.474  0.00  0.00     0.103 C 
BRANCH  27  28
HETATM   28  C   UNK N   1      36.681  13.151  13.919  0.00  0.00     0.011 C 
BRANCH  28  29
HETATM   29  C   UNK N   1      36.558  12.967  15.425  0.00  0.00     0.021 C 
BRANCH  29  30
HETATM   30  C   UNK N   1      35.167  13.328  15.937  0.00  0.00     0.138 C 
BRANCH  30  31
HETATM   31  N   UNK N   1      35.017  12.794  17.267  0.00  0.00    -0.227 N 
HETATM   32  C   UNK N   1      35.242  13.569  18.434  0.00  0.00     0.665 C 
HETATM   33  N   UNK N   1      35.227  13.000  19.581  0.00  0.00    -0.235 N 
HETATM   34  N   UNK N   1      35.554  14.944  18.340  0.00  0.00    -0.235 N 
HETATM   35  H   UNK N   1      35.657  13.062  20.464  0.00  0.00     0.174 HD
ATOM     36  HN  UNK N   1      34.550  12.236  19.579  1.00  0.00     0.174 HD
HETATM   37  H   UNK N   1      35.958  15.403  17.569  0.00  0.00     0.174 HD
HETATM   38  H   UNK N   1      35.345  15.500  19.127  0.00  0.00     0.174 HD
HETATM   39  H   UNK N   1      34.747  11.851  17.370  0.00  0.00     0.177 HD
ENDBRANCH  30  31
ENDBRANCH  29  30
ENDBRANCH  28  29
ENDBRANCH  27  28
ENDBRANCH  24  27
ENDBRANCH  17  23
BRANCH  18  40
HETATM   40  O   UNK N   1      36.377  12.967   9.071  0.00  0.00    -0.340 OA
BRANCH  40  41
HETATM   41  C   UNK N   1      35.657  11.785   8.923  0.00  0.00     0.148 C 
HETATM   42  C   UNK N   1      36.201  10.720   9.830  0.00  0.00     0.053 C 
HETATM   43  C   UNK N   1      35.412  10.882  11.111  0.00  0.00     0.116 C 
HETATM   44  N   UNK N   1      34.146  11.527  10.786  0.00  0.00    -0.419 N 
HETATM   45  C   UNK N   1      34.214  11.913   9.381  0.00  0.00     0.146 C 
HETATM   46  H   UNK N   1      33.361  11.679  11.420  0.00  0.00     0.153 HD
ENDBRANCH  40  41
ENDBRANCH  18  40
ENDBRANCH  10  13
ENDBRANCH   1   9
BRANCH   3  47
HETATM   47  C   UNK N   1      31.183  14.585   4.875  0.00  0.00     0.272 C 
HETATM   48  O   UNK N   1      30.571  13.896   5.678  0.00  0.00    -0.266 OA
HETATM   49  N   UNK N   1      30.985  15.919   4.782  0.00  0.00    -0.319 N 
HETATM   50  H   UNK N   1      31.594  16.432   4.205  0.00  0.00     0.169 HD
BRANCH  49  51
HETATM   51  C   UNK N   1      29.973  16.621   5.445  0.00  0.00     0.071 A 
HETATM   52  C   UNK N   1      30.160  16.931   6.792  0.00  0.00     0.048 A 
HETATM   53  C   UNK N   1      29.204  17.658   7.493  0.00  0.00     0.052 A 
HETATM   54  C   UNK N   1      28.054  18.093   6.826  0.00  0.00     0.048 A 
HETATM   55  C   UNK N   1      27.848  17.806   5.468  0.00  0.00     0.071 A 
HETATM   56  C   UNK N   1      28.810  17.042   4.757  0.00  0.00     0.122 A 
BRANCH  53  57
HETATM   57  C   UNK N   1      29.392  17.955   8.955  0.00  0.00     0.417 C 
HETATM   58  F   UNK N   1      30.128  16.947   9.548  0.00  0.00    -0.166 F 
HETATM   59  F   UNK N   1      30.067  19.154   9.099  0.00  0.00    -0.166 F 
HETATM   60  F   UNK N   1      28.173  18.057   9.607  0.00  0.00    -0.166 F 
ENDBRANCH  53  57
BRANCH  55  61
HETATM   61  N   UNK N   1      26.618  18.226   4.882  0.00  0.00    -0.325 N 
HETATM   62  C   UNK N   1      25.388  17.668   5.049  0.00  0.00     0.222 C 
HETATM   63  O   UNK N   1      24.411  18.265   4.629  0.00  0.00    -0.273 OA
HETATM   64  H   UNK N   1      26.664  19.008   4.287  0.00  0.00     0.169 HD
BRANCH  62  65
HETATM   65  C   UNK N   1      25.198  16.335   5.716  0.00  0.00     0.103 C 
BRANCH  65  66
HETATM   66  C   UNK N   1      23.742  15.921   5.886  0.00  0.00     0.011 C 
BRANCH  66  67
HETATM   67  C   UNK N   1      23.559  14.667   6.754  0.00  0.00     0.021 C 
BRANCH  67  68
HETATM   68  C   UNK N   1      24.824  13.836   6.986  0.00  0.00     0.138 C 
BRANCH  68  69
HETATM   69  N   UNK N   1      25.287  13.943   8.348  0.00  0.00    -0.227 N 
HETATM   70  C   UNK N   1      24.917  13.008   9.345  0.00  0.00     0.665 C 
HETATM   71  N   UNK N   1      24.224  11.972   9.045  0.00  0.00    -0.235 N 
HETATM   72  N   UNK N   1      25.330  13.210  10.679  0.00  0.00    -0.235 N 
HETATM   73  H   UNK N   1      23.668  11.522   9.721  0.00  0.00     0.174 HD
ATOM     74  HN  UNK N   1      24.249  11.610   8.091  1.00  0.00     0.174 HD
HETATM   75  H   UNK N   1      26.012  13.862  10.962  0.00  0.00     0.174 HD
HETATM   76  H   UNK N   1      24.907  12.660  11.376  0.00  0.00     0.174 HD
HETATM   77  H   UNK N   1      25.879  14.691   8.592  0.00  0.00     0.177 HD
ENDBRANCH  68  69
ENDBRANCH  67  68
ENDBRANCH  66  67
ENDBRANCH  65  66
ENDBRANCH  62  65
ENDBRANCH  55  61
BRANCH  56  78
HETATM   78  O   UNK N   1      28.583  16.725   3.445  0.00  0.00    -0.340 OA
BRANCH  78  79
HETATM   79  C   UNK N   1      27.941  15.601   2.966  0.00  0.00     0.148 C 
HETATM   80  C   UNK N   1      27.608  14.611   4.036  0.00  0.00     0.053 C 
HETATM   81  C   UNK N   1      27.479  13.320   3.250  0.00  0.00     0.116 C 
HETATM   82  N   UNK N   1      28.244  13.463   2.010  0.00  0.00    -0.419 N 
HETATM   83  C   UNK N   1      28.806  14.807   2.031  0.00  0.00     0.146 C 
HETATM   84  H   UNK N   1      28.359  12.762   1.277  0.00  0.00     0.153 HD
ENDBRANCH  78  79
ENDBRANCH  56  78
ENDBRANCH  49  51
ENDBRANCH   3  47
TORSDOF 22
ENDMDL
MODEL 2
REMARK VINA RESULT:      -8.7      1.769      2.896
REMARK  22 active torsions:
REMARK  status: ('A' for Active; 'I' for Inactive)
REMARK    1  A    between atoms: C_2  and  C_67 
REMARK    2  A    between atoms: C_4  and  N_25 
REMARK    3  A    between atoms: C_5  and  O_19 
REMARK    4  A    between atoms: C_6  and  N_7 
REMARK       I    between atoms: N_7  and  C_8 
REMARK    5  A    between atoms: C_8  and  C_10 
REMARK    6  A    between atoms: C_10  and  C_11 
REMARK    7  A    between atoms: C_11  and  C_12 
REMARK    8  A    between atoms: C_12  and  C_13 
REMARK    9  A    between atoms: C_13  and  N_14 
REMARK       I    between atoms: N_14  and  C_15 
REMARK       I    between atoms: C_15  and  N_18 
REMARK   10  A    between atoms: C_20  and  O_19 
REMARK       I    between atoms: N_25  and  C_26 
REMARK   11  A    between atoms: C_26  and  C_28 
REMARK   12  A    between atoms: C_30  and  C_36 
REMARK       I    between atoms: C_36  and  N_38 
REMARK   13  A    between atoms: N_38  and  C_39 
REMARK   14  A    between atoms: C_41  and  C_63 
REMARK   15  A    between atoms: C_43  and  N_51 
REMARK   16  A    between atoms: C_44  and  O_45 
REMARK   17  A    between atoms: C_46  and  O_45 
REMARK       I    between atoms: N_51  and  C_52 
REMARK   18  A    between atoms: C_52  and  C_54 
REMARK   19  A    between atoms: C_54  and  C_55 
REMARK   20  A    between atoms: C_55  and  C_56 
REMARK   21  A    between atoms: C_56  and  C_57 
REMARK   22  A    between atoms: C_57  and  N_58 
REMARK       I    between atoms: N_58  and  C_59 
REMARK       I    between atoms: C_59  and  N_62 
ROOT
HETATM    1  C   UNK N   1      34.715  13.447   4.602  0.00  0.00     0.104 C 
HETATM    2  C   UNK N   1      33.385  13.279   4.924  0.00  0.00     0.070 C 
HETATM    3  C   UNK N   1      32.428  13.906   4.173  0.00  0.00     0.104 C 
HETATM    4  N   UNK N   1      32.807  14.709   3.140  0.00  0.00    -0.348 N 
ATOM      5  HN  UNK N   1      32.104  15.253   2.640  1.00  0.00     0.167 HD
HETATM    6  C   UNK N   1      34.112  14.793   2.765  0.00  0.00     0.181 C 
HETATM    7  N   UNK N   1      35.067  14.202   3.530  0.00  0.00    -0.348 N 
ATOM      8  HN  UNK N   1      36.052  14.325   3.297  1.00  0.00     0.167 HD
ENDROOT
BRANCH   1   9
HETATM    9  C   UNK N   1      35.689  13.063   5.618  0.00  0.00     0.272 C 
HETATM   10  N   UNK N   1      36.267  14.005   6.394  0.00  0.00    -0.319 N 
HETATM   11  H   UNK N   1      37.190  14.265   6.173  0.00  0.00     0.169 HD
HETATM   12  O   UNK N   1      36.197  11.952   5.551  0.00  0.00    -0.266 OA
BRANCH  10  13
HETATM   13  C   UNK N   1      35.654  14.655   7.503  0.00  0.00     0.071 A 
HETATM   14  C   UNK N   1      34.946  15.830   7.249  0.00  0.00     0.048 A 
HETATM   15  C   UNK N   1      34.568  16.685   8.288  0.00  0.00     0.052 A 
HETATM   16  C   UNK N   1      35.001  16.408   9.590  0.00  0.00     0.048 A 
HETATM   17  C   UNK N   1      35.697  15.223   9.861  0.00  0.00     0.071 A 
HETATM   18  C   UNK N   1      35.969  14.306   8.839  0.00  0.00     0.122 A 
BRANCH  15  19
HETATM   19  C   UNK N   1      33.802  17.934   7.968  0.00  0.00     0.417 C 
HETATM   20  F   UNK N   1      32.635  17.951   8.709  0.00  0.00    -0.166 F 
HETATM   21  F   UNK N   1      34.561  19.044   8.298  0.00  0.00    -0.166 F 
HETATM   22  F   UNK N   1      33.480  17.998   6.624  0.00  0.00    -0.166 F 
ENDBRANCH  15  19
BRANCH  17  23
HETATM   23  N   UNK N   1      36.363  15.024  11.092  0.00  0.00    -0.325 N 
HETATM   24  C   UNK N   1      35.695  14.607  12.202  0.00  0.00     0.222 C 
HETATM   25  O   UNK N   1      34.526  14.253  12.134  0.00  0.00    -0.273 OA
HETATM   26  H   UNK N   1      37.332  15.191  11.148  0.00  0.00     0.169 HD
BRANCH  24  27
HETATM   27  C   UNK N   1      36.337  14.704  13.545  0.00  0.00     0.103 C 
BRANCH  27  28
HETATM   28  C   UNK N   1      36.376  13.365  14.266  0.00  0.00     0.011 C 
BRANCH  28  29
HETATM   29  C   UNK N   1      36.333  13.536  15.778  0.00  0.00     0.021 C 
BRANCH  29  30
HETATM   30  C   UNK N   1      34.964  13.191  16.357  0.00  0.00     0.138 C 
BRANCH  30  31
HETATM   31  N   UNK N   1      35.154  12.613  17.664  0.00  0.00    -0.227 N 
HETATM   32  C   UNK N   1      35.208  13.395  18.847  0.00  0.00     0.665 C 
HETATM   33  N   UNK N   1      35.516  12.837  19.957  0.00  0.00    -0.235 N 
HETATM   34  N   UNK N   1      34.997  14.792  18.801  0.00  0.00    -0.235 N 
HETATM   35  H   UNK N   1      35.986  13.034  20.800  0.00  0.00     0.174 HD
ATOM     36  HN  UNK N   1      35.160  11.881  19.974  1.00  0.00     0.174 HD
HETATM   37  H   UNK N   1      35.129  15.381  18.022  0.00  0.00     0.174 HD
HETATM   38  H   UNK N   1      34.687  15.221  19.632  0.00  0.00     0.174 HD
HETATM   39  H   UNK N   1      35.250  11.635  17.739  0.00  0.00     0.177 HD
ENDBRANCH  30  31
ENDBRANCH  29  30
ENDBRANCH  28  29
ENDBRANCH  27  28
ENDBRANCH  24  27
ENDBRANCH  17  23
BRANCH  18  40
HETATM   40  O   UNK N   1      36.622  13.159   9.146  0.00  0.00    -0.340 OA
BRANCH  40  41
HETATM   41  C   UNK N   1      35.980  11.930   9.024  0.00  0.00     0.148 C 
HETATM   42  C   UNK N   1      36.571  10.931   9.975  0.00  0.00     0.053 C 
HETATM   43  C   UNK N   1      35.749  11.083  11.235  0.00  0.00     0.116 C 
HETATM   44  N   UNK N   1      34.451  11.636  10.867  0.00  0.00    -0.419 N 
HETATM   45  C   UNK N   1      34.524  11.982   9.452  0.00  0.00     0.146 C 
HETATM   46  H   UNK N   1      33.647  11.758  11.482  0.00  0.00     0.153 HD
ENDBRANCH  40  41
ENDBRANCH  18  40
ENDBRANCH  10  13
ENDBRANCH   1   9
BRANCH   3  47
HETATM   47  C   UNK N   1      31.252  14.242   4.928  0.00  0.00     0.272 C 
HETATM   48  O   UNK N   1      30.722  13.449   5.692  0.00  0.00    -0.266 OA
HETATM   49  N   UNK N   1      30.884  15.543   4.881  0.00  0.00    -0.319 N 
HETATM   50  H   UNK N   1      31.430  16.153   4.336  0.00  0.00     0.169 HD
BRANCH  49  51
HETATM   51  C   UNK N   1      29.781  16.082   5.552  0.00  0.00     0.071 A 
HETATM   52  C   UNK N   1      29.993  16.680   6.793  0.00  0.00     0.048 A 
HETATM   53  C   UNK N   1      28.940  17.264   7.490  0.00  0.00     0.052 A 
HETATM   54  C   UNK N   1      27.662  17.261   6.921  0.00  0.00     0.048 A 
HETATM   55  C   UNK N   1      27.424  16.677   5.668  0.00  0.00     0.071 A 
HETATM   56  C   UNK N   1      28.492  16.059   4.967  0.00  0.00     0.122 A 
BRANCH  53  57
HETATM   57  C   UNK N   1      29.166  17.872   8.847  0.00  0.00     0.417 C 
HETATM   58  F   UNK N   1      29.884  19.046   8.721  0.00  0.00    -0.166 F 
HETATM   59  F   UNK N   1      27.945  18.149   9.437  0.00  0.00    -0.166 F 
HETATM   60  F   UNK N   1      29.867  17.008   9.673  0.00  0.00    -0.166 F 
ENDBRANCH  53  57
BRANCH  55  61
HETATM   61  N   UNK N   1      26.081  16.655   5.191  0.00  0.00    -0.325 N 
HETATM   62  C   UNK N   1      25.522  17.467   4.253  0.00  0.00     0.222 C 
HETATM   63  O   UNK N   1      24.415  17.189   3.822  0.00  0.00    -0.273 OA
HETATM   64  H   UNK N   1      25.490  15.975   5.586  0.00  0.00     0.169 HD
BRANCH  62  65
HETATM   65  C   UNK N   1      26.215  18.700   3.746  0.00  0.00     0.103 C 
BRANCH  65  66
HETATM   66  C   UNK N   1      25.459  19.996   4.009  0.00  0.00     0.011 C 
BRANCH  66  67
HETATM   67  C   UNK N   1      24.790  20.581   2.757  0.00  0.00     0.021 C 
BRANCH  67  68
HETATM   68  C   UNK N   1      23.258  20.586   2.771  0.00  0.00     0.138 C 
BRANCH  68  69
HETATM   69  N   UNK N   1      22.730  19.471   3.518  0.00  0.00    -0.227 N 
HETATM   70  C   UNK N   1      21.357  19.366   3.845  0.00  0.00     0.665 C 
HETATM   71  N   UNK N   1      20.513  20.225   3.403  0.00  0.00    -0.235 N 
HETATM   72  N   UNK N   1      20.910  18.297   4.650  0.00  0.00    -0.235 N 
HETATM   73  H   UNK N   1      19.666  20.392   3.877  0.00  0.00     0.174 HD
ATOM     74  HN  UNK N   1      20.722  20.743   2.549  1.00  0.00     0.174 HD
HETATM   75  H   UNK N   1      21.445  17.500   4.871  0.00  0.00     0.174 HD
HETATM   76  H   UNK N   1      19.999  18.352   5.017  0.00  0.00     0.174 HD
HETATM   77  H   UNK N   1      23.346  18.760   3.809  0.00  0.00     0.177 HD
ENDBRANCH  68  69
ENDBRANCH  67  68
ENDBRANCH  66  67
ENDBRANCH  65  66
ENDBRANCH  62  65
ENDBRANCH  55  61
BRANCH  56  78
HETATM   78  O   UNK N   1      28.248  15.450   3.765  0.00  0.00    -0.340 OA
BRANCH  78  79
HETATM   79  C   UNK N   1      27.507  14.305   3.555  0.00  0.00     0.148 C 
HETATM   80  C   UNK N   1      28.341  13.120   3.188  0.00  0.00     0.053 C 
HETATM   81  C   UNK N   1      27.341  12.232   2.474  0.00  0.00     0.116 C 
HETATM   82  N   UNK N   1      26.256  13.077   1.972  0.00  0.00    -0.419 N 
HETATM   83  C   UNK N   1      26.577  14.438   2.384  0.00  0.00     0.146 C 
HETATM   84  H   UNK N   1      25.439  12.774   1.442  0.00  0.00     0.153 HD
ENDBRANCH  78  79
ENDBRANCH  56  78
ENDBRANCH  49  51
ENDBRANCH   3  47
TORSDOF 22
ENDMDL
MODEL 3
REMARK VINA RESULT:      -8.5      3.296      6.378
REMARK  22 active torsions:
REMARK  status: ('A' for Active; 'I' for Inactive)
REMARK    1  A    between atoms: C_2  and  C_67 
REMARK    2  A    between atoms: C_4  and  N_25 
REMARK    3  A    between atoms: C_5  and  O_19 
REMARK    4  A    between atoms: C_6  and  N_7 
REMARK       I    between atoms: N_7  and  C_8 
REMARK    5  A    between atoms: C_8  and  C_10 
REMARK    6  A    between atoms: C_10  and  C_11 
REMARK    7  A    between atoms: C_11  and  C_12 
REMARK    8  A    between atoms: C_12  and  C_13 
REMARK    9  A    between atoms: C_13  and  N_14 
REMARK       I    between atoms: N_14  and  C_15 
REMARK       I    between atoms: C_15  and  N_18 
REMARK   10  A    between atoms: C_20  and  O_19 
REMARK       I    between atoms: N_25  and  C_26 
REMARK   11  A    between atoms: C_26  and  C_28 
REMARK   12  A    between atoms: C_30  and  C_36 
REMARK       I    between atoms: C_36  and  N_38 
REMARK   13  A    between atoms: N_38  and  C_39 
REMARK   14  A    between atoms: C_41  and  C_63 
REMARK   15  A    between atoms: C_43  and  N_51 
REMARK   16  A    between atoms: C_44  and  O_45 
REMARK   17  A    between atoms: C_46  and  O_45 
REMARK       I    between atoms: N_51  and  C_52 
REMARK   18  A    between atoms: C_52  and  C_54 
REMARK   19  A    between atoms: C_54  and  C_55 
REMARK   20  A    between atoms: C_55  and  C_56 
REMARK   21  A    between atoms: C_56  and  C_57 
REMARK   22  A    between atoms: C_57  and  N_58 
REMARK       I    between atoms: N_58  and  C_59 
REMARK       I    between atoms: C_59  and  N_62 
ROOT
HETATM    1  C   UNK N   1      28.029  17.581   3.761  0.00  0.00     0.104 C 
HETATM    2  C   UNK N   1      27.000  16.685   3.957  0.00  0.00     0.070 C 
HETATM    3  C   UNK N   1      25.768  17.149   4.332  0.00  0.00     0.104 C 
HETATM    4  N   UNK N   1      25.588  18.484   4.533  0.00  0.00    -0.348 N 
ATOM      5  HN  UNK N   1      24.700  18.822   4.905  1.00  0.00     0.167 HD
HETATM    6  C   UNK N   1      26.576  19.372   4.244  0.00  0.00     0.181 C 
HETATM    7  N   UNK N   1      27.810  18.914   3.908  0.00  0.00    -0.348 N 
ATOM      8  HN  UNK N   1      28.575  19.573   3.764  1.00  0.00     0.167 HD
ENDROOT
BRANCH   1   9
HETATM    9  C   UNK N   1      29.379  17.031   3.715  0.00  0.00     0.272 C 
HETATM   10  N   UNK N   1      30.356  17.564   4.480  0.00  0.00    -0.319 N 
HETATM   11  H   UNK N   1      31.007  18.151   4.032  0.00  0.00     0.169 HD
HETATM   12  O   UNK N   1      29.685  16.308   2.776  0.00  0.00    -0.266 OA
BRANCH  10  13
HETATM   13  C   UNK N   1      30.524  17.351   5.878  0.00  0.00     0.071 A 
HETATM   14  C   UNK N   1      29.450  17.670   6.711  0.00  0.00     0.048 A 
HETATM   15  C   UNK N   1      29.616  17.776   8.095  0.00  0.00     0.052 A 
HETATM   16  C   UNK N   1      30.901  17.664   8.638  0.00  0.00     0.048 A 
HETATM   17  C   UNK N   1      31.983  17.326   7.815  0.00  0.00     0.071 A 
HETATM   18  C   UNK N   1      31.796  17.099   6.447  0.00  0.00     0.122 A 
BRANCH  15  19
HETATM   19  C   UNK N   1      28.433  18.115   8.951  0.00  0.00     0.417 C 
HETATM   20  F   UNK N   1      28.876  18.518  10.197  0.00  0.00    -0.166 F 
HETATM   21  F   UNK N   1      27.718  19.149   8.371  0.00  0.00    -0.166 F 
HETATM   22  F   UNK N   1      27.593  17.025   9.106  0.00  0.00    -0.166 F 
ENDBRANCH  15  19
BRANCH  17  23
HETATM   23  N   UNK N   1      33.317  17.447   8.266  0.00  0.00    -0.325 N 
HETATM   24  C   UNK N   1      33.851  16.564   9.154  0.00  0.00     0.222 C 
HETATM   25  O   UNK N   1      33.239  15.556   9.480  0.00  0.00    -0.273 OA
HETATM   26  H   UNK N   1      33.874  18.187   7.930  0.00  0.00     0.169 HD
BRANCH  24  27
HETATM   27  C   UNK N   1      35.132  16.881   9.850  0.00  0.00     0.103 C 
BRANCH  27  28
HETATM   28  C   UNK N   1      35.551  15.784  10.818  0.00  0.00     0.011 C 
BRANCH  28  29
HETATM   29  C   UNK N   1      36.703  14.956  10.267  0.00  0.00     0.021 C 
BRANCH  29  30
HETATM   30  C   UNK N   1      36.848  13.619  10.988  0.00  0.00     0.138 C 
BRANCH  30  31
HETATM   31  N   UNK N   1      36.871  13.866  12.408  0.00  0.00    -0.227 N 
HETATM   32  C   UNK N   1      35.844  13.418  13.280  0.00  0.00     0.665 C 
HETATM   33  N   UNK N   1      35.853  13.788  14.505  0.00  0.00    -0.235 N 
HETATM   34  N   UNK N   1      34.776  12.631  12.795  0.00  0.00    -0.235 N 
HETATM   35  H   UNK N   1      35.231  14.010  15.235  0.00  0.00     0.174 HD
ATOM     36  HN  UNK N   1      36.816  13.883  14.831  1.00  0.00     0.174 HD
HETATM   37  H   UNK N   1      34.445  12.596  11.868  0.00  0.00     0.174 HD
HETATM   38  H   UNK N   1      34.314  12.059  13.451  0.00  0.00     0.174 HD
HETATM   39  H   UNK N   1      37.630  14.366  12.789  0.00  0.00     0.177 HD
ENDBRANCH  30  31
ENDBRANCH  29  30
ENDBRANCH  28  29
ENDBRANCH  27  28
ENDBRANCH  24  27
ENDBRANCH  17  23
BRANCH  18  40
HETATM   40  O   UNK N   1      32.864  16.749   5.690  0.00  0.00    -0.340 OA
BRANCH  40  41
HETATM   41  C   UNK N   1      32.955  15.468   5.153  0.00  0.00     0.148 C 
HETATM   42  C   UNK N   1      34.393  15.079   4.963  0.00  0.00     0.053 C 
HETATM   43  C   UNK N   1      34.775  14.415   6.267  0.00  0.00     0.116 C 
HETATM   44  N   UNK N   1      33.559  13.911   6.894  0.00  0.00    -0.419 N 
HETATM   45  C   UNK N   1      32.438  14.397   6.097  0.00  0.00     0.146 C 
HETATM   46  H   UNK N   1      33.502  13.329   7.731  0.00  0.00     0.153 HD
ENDBRANCH  40  41
ENDBRANCH  18  40
ENDBRANCH  10  13
ENDBRANCH   1   9
BRANCH   3  47
HETATM   47  C   UNK N   1      25.037  16.212   5.140  0.00  0.00     0.272 C 
HETATM   48  O   UNK N   1      25.548  15.634   6.088  0.00  0.00    -0.266 OA
HETATM   49  N   UNK N   1      23.707  16.155   4.903  0.00  0.00    -0.319 N 
HETATM   50  H   UNK N   1      23.343  16.739   4.200  0.00  0.00     0.169 HD
BRANCH  49  51
HETATM   51  C   UNK N   1      22.812  15.322   5.584  0.00  0.00     0.071 A 
HETATM   52  C   UNK N   1      22.186  15.822   6.725  0.00  0.00     0.048 A 
HETATM   53  C   UNK N   1      21.261  15.053   7.422  0.00  0.00     0.052 A 
HETATM   54  C   UNK N   1      20.950  13.772   6.955  0.00  0.00     0.048 A 
HETATM   55  C   UNK N   1      21.556  13.250   5.802  0.00  0.00     0.071 A 
HETATM   56  C   UNK N   1      22.519  14.024   5.103  0.00  0.00     0.122 A 
BRANCH  53  57
HETATM   57  C   UNK N   1      20.617  15.581   8.675  0.00  0.00     0.417 C 
HETATM   58  F   UNK N   1      21.162  14.957   9.781  0.00  0.00    -0.166 F 
HETATM   59  F   UNK N   1      20.840  16.944   8.768  0.00  0.00    -0.166 F 
HETATM   60  F   UNK N   1      19.249  15.359   8.668  0.00  0.00    -0.166 F 
ENDBRANCH  53  57
BRANCH  55  61
HETATM   61  N   UNK N   1      21.236  11.911   5.433  0.00  0.00    -0.325 N 
HETATM   62  C   UNK N   1      21.925  10.779   5.744  0.00  0.00     0.222 C 
HETATM   63  O   UNK N   1      21.410   9.698   5.513  0.00  0.00    -0.273 OA
HETATM   64  H   UNK N   1      20.423  11.791   4.892  0.00  0.00     0.169 HD
BRANCH  62  65
HETATM   65  C   UNK N   1      23.303  10.820   6.342  0.00  0.00     0.103 C 
BRANCH  65  66
HETATM   66  C   UNK N   1      23.324  10.909   7.862  0.00  0.00     0.011 C 
BRANCH  66  67
HETATM   67  C   UNK N   1      24.226  12.030   8.397  0.00  0.00     0.021 C 
BRANCH  67  68
HETATM   68  C   UNK N   1      23.553  13.015   9.358  0.00  0.00     0.138 C 
BRANCH  68  69
HETATM   69  N   UNK N   1      23.954  12.781  10.724  0.00  0.00    -0.227 N 
HETATM   70  C   UNK N   1      23.090  12.176  11.669  0.00  0.00     0.665 C 
HETATM   71  N   UNK N   1      21.942  11.729  11.313  0.00  0.00    -0.235 N 
HETATM   72  N   UNK N   1      23.504  12.048  13.012  0.00  0.00    -0.235 N 
HETATM   73  H   UNK N   1      21.209  11.642  11.964  0.00  0.00     0.174 HD
ATOM     74  HN  UNK N   1      21.787  11.458  10.341  1.00  0.00     0.174 HD
HETATM   75  H   UNK N   1      24.426  12.187  13.330  0.00  0.00     0.174 HD
HETATM   76  H   UNK N   1      22.823  11.804  13.679  0.00  0.00     0.174 HD
HETATM   77  H   UNK N   1      24.857  13.051  11.008  0.00  0.00     0.177 HD
ENDBRANCH  68  69
ENDBRANCH  67  68
ENDBRANCH  66  67
ENDBRANCH  65  66
ENDBRANCH  62  65
ENDBRANCH  55  61
BRANCH  56  78
HETATM   78  O   UNK N   1      23.143  13.494   4.006  0.00  0.00    -0.340 OA
BRANCH  78  79
HETATM   79  C   UNK N   1      22.803  13.698   2.684  0.00  0.00     0.148 C 
HETATM   80  C   UNK N   1      22.413  12.442   1.974  0.00  0.00     0.053 C 
HETATM   81  C   UNK N   1      22.661  12.803   0.522  0.00  0.00     0.116 C 
HETATM   82  N   UNK N   1      23.639  13.892   0.483  0.00  0.00    -0.419 N 
HETATM   83  C   UNK N   1      23.962  14.197   1.871  0.00  0.00     0.146 C 
HETATM   84  H   UNK N   1      24.016  14.347  -0.349  0.00  0.00     0.153 HD
ENDBRANCH  78  79
ENDBRANCH  56  78
ENDBRANCH  49  51
ENDBRANCH   3  47
TORSDOF 22
ENDMDL
MODEL 4
REMARK VINA RESULT:      -8.5      3.030      6.579
REMARK  22 active torsions:
REMARK  status: ('A' for Active; 'I' for Inactive)
REMARK    1  A    between atoms: C_2  and  C_67 
REMARK    2  A    between atoms: C_4  and  N_25 
REMARK    3  A    between atoms: C_5  and  O_19 
REMARK    4  A    between atoms: C_6  and  N_7 
REMARK       I    between atoms: N_7  and  C_8 
REMARK    5  A    between atoms: C_8  and  C_10 
REMARK    6  A    between atoms: C_10  and  C_11 
REMARK    7  A    between atoms: C_11  and  C_12 
REMARK    8  A    between atoms: C_12  and  C_13 
REMARK    9  A    between atoms: C_13  and  N_14 
REMARK       I    between atoms: N_14  and  C_15 
REMARK       I    between atoms: C_15  and  N_18 
REMARK   10  A    between atoms: C_20  and  O_19 
REMARK       I    between atoms: N_25  and  C_26 
REMARK   11  A    between atoms: C_26  and  C_28 
REMARK   12  A    between atoms: C_30  and  C_36 
REMARK       I    between atoms: C_36  and  N_38 
REMARK   13  A    between atoms: N_38  and  C_39 
REMARK   14  A    between atoms: C_41  and  C_63 
REMARK   15  A    between atoms: C_43  and  N_51 
REMARK   16  A    between atoms: C_44  and  O_45 
REMARK   17  A    between atoms: C_46  and  O_45 
REMARK       I    between atoms: N_51  and  C_52 
REMARK   18  A    between atoms: C_52  and  C_54 
REMARK   19  A    between atoms: C_54  and  C_55 
REMARK   20  A    between atoms: C_55  and  C_56 
REMARK   21  A    between atoms: C_56  and  C_57 
REMARK   22  A    between atoms: C_57  and  N_58 
REMARK       I    between atoms: N_58  and  C_59 
REMARK       I    between atoms: C_59  and  N_62 
ROOT
HETATM    1  C   UNK N   1      27.561  18.617   4.019  0.00  0.00     0.104 C 
HETATM    2  C   UNK N   1      26.232  18.454   3.690  0.00  0.00     0.070 C 
HETATM    3  C   UNK N   1      25.309  19.349   4.161  0.00  0.00     0.104 C 
HETATM    4  N   UNK N   1      25.716  20.368   4.969  0.00  0.00    -0.348 N 
ATOM      5  HN  UNK N   1      25.020  20.977   5.398  1.00  0.00     0.167 HD
HETATM    6  C   UNK N   1      27.037  20.581   5.209  0.00  0.00     0.181 C 
HETATM    7  N   UNK N   1      27.952  19.675   4.775  0.00  0.00    -0.348 N 
ATOM      8  HN  UNK N   1      28.935  19.790   5.018  1.00  0.00     0.167 HD
ENDROOT
BRANCH   1   9
HETATM    9  C   UNK N   1      28.436  17.471   3.801  0.00  0.00     0.272 C 
HETATM   10  N   UNK N   1      29.680  17.456   4.327  0.00  0.00    -0.319 N 
HETATM   11  H   UNK N   1      30.428  17.642   3.716  0.00  0.00     0.169 HD
HETATM   12  O   UNK N   1      28.159  16.685   2.905  0.00  0.00    -0.266 OA
BRANCH  10  13
HETATM   13  C   UNK N   1      29.999  17.197   5.691  0.00  0.00     0.071 A 
HETATM   14  C   UNK N   1      29.125  17.690   6.661  0.00  0.00     0.048 A 
HETATM   15  C   UNK N   1      29.498  17.746   8.007  0.00  0.00     0.052 A 
HETATM   16  C   UNK N   1      30.805  17.401   8.368  0.00  0.00     0.048 A 
HETATM   17  C   UNK N   1      31.686  16.888   7.407  0.00  0.00     0.071 A 
HETATM   18  C   UNK N   1      31.273  16.717   6.080  0.00  0.00     0.122 A 
BRANCH  15  19
HETATM   19  C   UNK N   1      28.524  18.277   9.016  0.00  0.00     0.417 C 
HETATM   20  F   UNK N   1      29.223  18.830  10.073  0.00  0.00    -0.166 F 
HETATM   21  F   UNK N   1      27.738  19.257   8.434  0.00  0.00    -0.166 F 
HETATM   22  F   UNK N   1      27.701  17.275   9.500  0.00  0.00    -0.166 F 
ENDBRANCH  15  19
BRANCH  17  23
HETATM   23  N   UNK N   1      33.070  16.765   7.666  0.00  0.00    -0.325 N 
HETATM   24  C   UNK N   1      33.588  15.648   8.246  0.00  0.00     0.222 C 
HETATM   25  O   UNK N   1      32.894  14.658   8.429  0.00  0.00    -0.273 OA
HETATM   26  H   UNK N   1      33.673  17.504   7.422  0.00  0.00     0.169 HD
BRANCH  24  27
HETATM   27  C   UNK N   1      34.976  15.660   8.793  0.00  0.00     0.103 C 
BRANCH  27  28
HETATM   28  C   UNK N   1      35.098  16.522  10.041  0.00  0.00     0.011 C 
BRANCH  28  29
HETATM   29  C   UNK N   1      36.168  15.996  10.987  0.00  0.00     0.021 C 
BRANCH  29  30
HETATM   30  C   UNK N   1      35.590  15.068  12.051  0.00  0.00     0.138 C 
BRANCH  30  31
HETATM   31  N   UNK N   1      36.504  15.025  13.165  0.00  0.00    -0.227 N 
HETATM   32  C   UNK N   1      36.392  14.072  14.211  0.00  0.00     0.665 C 
HETATM   33  N   UNK N   1      37.149  14.173  15.238  0.00  0.00    -0.235 N 
HETATM   34  N   UNK N   1      35.408  13.059  14.164  0.00  0.00    -0.235 N 
HETATM   35  H   UNK N   1      37.138  14.005  16.208  0.00  0.00     0.174 HD
ATOM     36  HN  UNK N   1      38.058  14.548  14.963  1.00  0.00     0.174 HD
HETATM   37  H   UNK N   1      34.559  13.086  13.665  0.00  0.00     0.174 HD
HETATM   38  H   UNK N   1      35.589  12.241  14.684  0.00  0.00     0.174 HD
HETATM   39  H   UNK N   1      37.236  15.683  13.201  0.00  0.00     0.177 HD
ENDBRANCH  30  31
ENDBRANCH  29  30
ENDBRANCH  28  29
ENDBRANCH  27  28
ENDBRANCH  24  27
ENDBRANCH  17  23
BRANCH  18  40
HETATM   40  O   UNK N   1      32.146  16.194   5.186  0.00  0.00    -0.340 OA
BRANCH  40  41
HETATM   41  C   UNK N   1      31.870  14.981   4.560  0.00  0.00     0.148 C 
HETATM   42  C   UNK N   1      32.241  15.043   3.107  0.00  0.00     0.053 C 
HETATM   43  C   UNK N   1      33.680  14.580   3.069  0.00  0.00     0.116 C 
HETATM   44  N   UNK N   1      33.924  13.755   4.246  0.00  0.00    -0.419 N 
HETATM   45  C   UNK N   1      32.730  13.842   5.080  0.00  0.00     0.146 C 
HETATM   46  H   UNK N   1      34.768  13.218   4.448  0.00  0.00     0.153 HD
ENDBRANCH  40  41
ENDBRANCH  18  40
ENDBRANCH  10  13
ENDBRANCH   1   9
BRANCH   3  47
HETATM   47  C   UNK N   1      24.013  18.764   4.367  0.00  0.00     0.272 C 
HETATM   48  O   UNK N   1      23.010  19.200   3.823  0.00  0.00    -0.266 OA
HETATM   49  N   UNK N   1      24.005  17.595   5.046  0.00  0.00    -0.319 N 
HETATM   50  H   UNK N   1      24.870  17.240   5.355  0.00  0.00     0.169 HD
BRANCH  49  51
HETATM   51  C   UNK N   1      22.856  16.854   5.343  0.00  0.00     0.071 A 
HETATM   52  C   UNK N   1      22.090  17.240   6.442  0.00  0.00     0.048 A 
HETATM   53  C   UNK N   1      20.918  16.563   6.763  0.00  0.00     0.052 A 
HETATM   54  C   UNK N   1      20.503  15.498   5.958  0.00  0.00     0.048 A 
HETATM   55  C   UNK N   1      21.248  15.099   4.838  0.00  0.00     0.071 A 
HETATM   56  C   UNK N   1      22.458  15.771   4.523  0.00  0.00     0.122 A 
BRANCH  53  57
HETATM   57  C   UNK N   1      20.116  16.957   7.974  0.00  0.00     0.417 C 
HETATM   58  F   UNK N   1      20.129  18.331   8.119  0.00  0.00    -0.166 F 
HETATM   59  F   UNK N   1      18.809  16.529   7.821  0.00  0.00    -0.166 F 
HETATM   60  F   UNK N   1      20.633  16.383   9.126  0.00  0.00    -0.166 F 
ENDBRANCH  53  57
BRANCH  55  61
HETATM   61  N   UNK N   1      20.793  13.960   4.111  0.00  0.00    -0.325 N 
HETATM   62  C   UNK N   1      20.978  12.649   4.425  0.00  0.00     0.222 C 
HETATM   63  O   UNK N   1      20.359  11.804   3.800  0.00  0.00    -0.273 OA
HETATM   64  H   UNK N   1      20.288  14.143   3.286  0.00  0.00     0.169 HD
BRANCH  62  65
HETATM   65  C   UNK N   1      21.930  12.210   5.501  0.00  0.00     0.103 C 
BRANCH  65  66
HETATM   66  C   UNK N   1      21.275  11.952   6.852  0.00  0.00     0.011 C 
BRANCH  66  67
HETATM   67  C   UNK N   1      22.069  12.520   8.037  0.00  0.00     0.021 C 
BRANCH  67  68
HETATM   68  C   UNK N   1      23.167  11.608   8.592  0.00  0.00     0.138 C 
BRANCH  68  69
HETATM   69  N   UNK N   1      24.339  12.359   8.973  0.00  0.00    -0.227 N 
HETATM   70  C   UNK N   1      24.599  12.718  10.318  0.00  0.00     0.665 C 
HETATM   71  N   UNK N   1      23.838  12.302  11.264  0.00  0.00    -0.235 N 
HETATM   72  N   UNK N   1      25.715  13.525  10.622  0.00  0.00    -0.235 N 
HETATM   73  H   UNK N   1      23.770  12.796  12.112  0.00  0.00     0.174 HD
ATOM     74  HN  UNK N   1      23.297  11.447  11.134  1.00  0.00     0.174 HD
HETATM   75  H   UNK N   1      26.447  13.728   9.996  0.00  0.00     0.174 HD
HETATM   76  H   UNK N   1      25.765  13.914  11.525  0.00  0.00     0.174 HD
HETATM   77  H   UNK N   1      24.977  12.631   8.275  0.00  0.00     0.177 HD
ENDBRANCH  68  69
ENDBRANCH  67  68
ENDBRANCH  66  67
ENDBRANCH  65  66
ENDBRANCH  62  65
ENDBRANCH  55  61
BRANCH  56  78
HETATM   78  O   UNK N   1      23.207  15.350   3.457  0.00  0.00    -0.340 OA
BRANCH  78  79
HETATM   79  C   UNK N   1      24.221  14.414   3.479  0.00  0.00     0.148 C 
HETATM   80  C   UNK N   1      24.835  14.241   4.830  0.00  0.00     0.053 C 
HETATM   81  C   UNK N   1      26.200  13.672   4.492  0.00  0.00     0.116 C 
HETATM   82  N   UNK N   1      26.527  14.057   3.118  0.00  0.00    -0.419 N 
HETATM   83  C   UNK N   1      25.388  14.822   2.628  0.00  0.00     0.146 C 
HETATM   84  H   UNK N   1      27.381  13.832   2.606  0.00  0.00     0.153 HD
ENDBRANCH  78  79
ENDBRANCH  56  78
ENDBRANCH  49  51
ENDBRANCH   3  47
TORSDOF 22
ENDMDL
MODEL 5
REMARK VINA RESULT:      -8.5      3.565      7.161
REMARK  22 active torsions:
REMARK  status: ('A' for Active; 'I' for Inactive)
REMARK    1  A    between atoms: C_2  and  C_67 
REMARK    2  A    between atoms: C_4  and  N_25 
REMARK    3  A    between atoms: C_5  and  O_19 
REMARK    4  A    between atoms: C_6  and  N_7 
REMARK       I    between atoms: N_7  and  C_8 
REMARK    5  A    between atoms: C_8  and  C_10 
REMARK    6  A    between atoms: C_10  and  C_11 
REMARK    7  A    between atoms: C_11  and  C_12 
REMARK    8  A    between atoms: C_12  and  C_13 
REMARK    9  A    between atoms: C_13  and  N_14 
REMARK       I    between atoms: N_14  and  C_15 
REMARK       I    between atoms: C_15  and  N_18 
REMARK   10  A    between atoms: C_20  and  O_19 
REMARK       I    between atoms: N_25  and  C_26 
REMARK   11  A    between atoms: C_26  and  C_28 
REMARK   12  A    between atoms: C_30  and  C_36 
REMARK       I    between atoms: C_36  and  N_38 
REMARK   13  A    between atoms: N_38  and  C_39 
REMARK   14  A    between atoms: C_41  and  C_63 
REMARK   15  A    between atoms: C_43  and  N_51 
REMARK   16  A    between atoms: C_44  and  O_45 
REMARK   17  A    between atoms: C_46  and  O_45 
REMARK       I    between atoms: N_51  and  C_52 
REMARK   18  A    between atoms: C_52  and  C_54 
REMARK   19  A    between atoms: C_54  and  C_55 
REMARK   20  A    between atoms: C_55  and  C_56 
REMARK   21  A    between atoms: C_56  and  C_57 
REMARK   22  A    between atoms: C_57  and  N_58 
REMARK       I    between atoms: N_58  and  C_59 
REMARK       I    between atoms: C_59  and  N_62 
ROOT
HETATM    1  C   UNK N   1      27.502  18.170   3.820  0.00  0.00     0.104 C 
HETATM    2  C   UNK N   1      26.186  17.760   3.811  0.00  0.00     0.070 C 
HETATM    3  C   UNK N   1      25.213  18.618   4.249  0.00  0.00     0.104 C 
HETATM    4  N   UNK N   1      25.565  19.849   4.714  0.00  0.00    -0.348 N 
ATOM      5  HN  UNK N   1      24.855  20.451   5.131  1.00  0.00     0.167 HD
HETATM    6  C   UNK N   1      26.850  20.284   4.631  0.00  0.00     0.181 C 
HETATM    7  N   UNK N   1      27.823  19.424   4.231  0.00  0.00    -0.348 N 
ATOM      8  HN  UNK N   1      28.799  19.722   4.239  1.00  0.00     0.167 HD
ENDROOT
BRANCH   1   9
HETATM    9  C   UNK N   1      28.514  17.128   3.688  0.00  0.00     0.272 C 
HETATM   10  N   UNK N   1      29.741  17.302   4.224  0.00  0.00    -0.319 N 
HETATM   11  H   UNK N   1      30.472  17.537   3.609  0.00  0.00     0.169 HD
HETATM   12  O   UNK N   1      28.351  16.258   2.844  0.00  0.00    -0.266 OA
BRANCH  10  13
HETATM   13  C   UNK N   1      30.067  17.174   5.606  0.00  0.00     0.071 A 
HETATM   14  C   UNK N   1      29.143  17.660   6.532  0.00  0.00     0.048 A 
HETATM   15  C   UNK N   1      29.494  17.848   7.871  0.00  0.00     0.052 A 
HETATM   16  C   UNK N   1      30.822  17.647   8.263  0.00  0.00     0.048 A 
HETATM   17  C   UNK N   1      31.755  17.144   7.347  0.00  0.00     0.071 A 
HETATM   18  C   UNK N   1      31.373  16.838   6.035  0.00  0.00     0.122 A 
BRANCH  15  19
HETATM   19  C   UNK N   1      28.466  18.367   8.833  0.00  0.00     0.417 C 
HETATM   20  F   UNK N   1      27.692  19.320   8.197  0.00  0.00    -0.166 F 
HETATM   21  F   UNK N   1      27.651  17.328   9.249  0.00  0.00    -0.166 F 
HETATM   22  F   UNK N   1      29.059  18.941   9.944  0.00  0.00    -0.166 F 
ENDBRANCH  15  19
BRANCH  17  23
HETATM   23  N   UNK N   1      33.141  17.162   7.622  0.00  0.00    -0.325 N 
HETATM   24  C   UNK N   1      33.734  16.179   8.354  0.00  0.00     0.222 C 
HETATM   25  O   UNK N   1      33.113  15.176   8.676  0.00  0.00    -0.273 OA
HETATM   26  H   UNK N   1      33.691  17.902   7.275  0.00  0.00     0.169 HD
BRANCH  24  27
HETATM   27  C   UNK N   1      35.112  16.373   8.894  0.00  0.00     0.103 C 
BRANCH  27  28
HETATM   28  C   UNK N   1      35.133  16.446  10.413  0.00  0.00     0.011 C 
BRANCH  28  29
HETATM   29  C   UNK N   1      36.126  15.460  11.011  0.00  0.00     0.021 C 
BRANCH  29  30
HETATM   30  C   UNK N   1      35.571  14.765  12.251  0.00  0.00     0.138 C 
BRANCH  30  31
HETATM   31  N   UNK N   1      36.485  14.982  13.344  0.00  0.00    -0.227 N 
HETATM   32  C   UNK N   1      36.522  14.145  14.490  0.00  0.00     0.665 C 
HETATM   33  N   UNK N   1      37.259  14.472  15.485  0.00  0.00    -0.235 N 
HETATM   34  N   UNK N   1      35.702  12.997  14.574  0.00  0.00    -0.235 N 
HETATM   35  H   UNK N   1      37.276  14.413  16.467  0.00  0.00     0.174 HD
ATOM     36  HN  UNK N   1      38.099  14.946  15.152  1.00  0.00     0.174 HD
HETATM   37  H   UNK N   1      34.857  12.842  14.092  0.00  0.00     0.174 HD
HETATM   38  H   UNK N   1      36.006  12.279  15.175  0.00  0.00     0.174 HD
HETATM   39  H   UNK N   1      37.109  15.743  13.294  0.00  0.00     0.177 HD
ENDBRANCH  30  31
ENDBRANCH  29  30
ENDBRANCH  28  29
ENDBRANCH  27  28
ENDBRANCH  24  27
ENDBRANCH  17  23
BRANCH  18  40
HETATM   40  O   UNK N   1      32.299  16.328   5.187  0.00  0.00    -0.340 OA
BRANCH  40  41
HETATM   41  C   UNK N   1      32.411  14.951   5.015  0.00  0.00     0.148 C 
HETATM   42  C   UNK N   1      31.986  14.558   3.630  0.00  0.00     0.053 C 
HETATM   43  C   UNK N   1      33.258  14.628   2.815  0.00  0.00     0.116 C 
HETATM   44  N   UNK N   1      34.389  14.463   3.721  0.00  0.00    -0.419 N 
HETATM   45  C   UNK N   1      33.849  14.466   5.076  0.00  0.00     0.146 C 
HETATM   46  H   UNK N   1      35.369  14.365   3.457  0.00  0.00     0.153 HD
ENDBRANCH  40  41
ENDBRANCH  18  40
ENDBRANCH  10  13
ENDBRANCH   1   9
BRANCH   3  47
HETATM   47  C   UNK N   1      24.089  17.940   4.836  0.00  0.00     0.272 C 
HETATM   48  O   UNK N   1      23.190  18.543   5.401  0.00  0.00    -0.266 OA
HETATM   49  N   UNK N   1      23.999  16.619   4.559  0.00  0.00    -0.319 N 
HETATM   50  H   UNK N   1      24.701  16.222   3.996  0.00  0.00     0.169 HD
BRANCH  49  51
HETATM   51  C   UNK N   1      22.980  15.778   5.018  0.00  0.00     0.071 A 
HETATM   52  C   UNK N   1      23.084  15.261   6.309  0.00  0.00     0.048 A 
HETATM   53  C   UNK N   1      22.083  14.449   6.831  0.00  0.00     0.052 A 
HETATM   54  C   UNK N   1      20.957  14.168   6.051  0.00  0.00     0.048 A 
HETATM   55  C   UNK N   1      20.821  14.686   4.755  0.00  0.00     0.071 A 
HETATM   56  C   UNK N   1      21.853  15.495   4.210  0.00  0.00     0.122 A 
BRANCH  53  57
HETATM   57  C   UNK N   1      22.219  13.860   8.209  0.00  0.00     0.417 C 
HETATM   58  F   UNK N   1      23.556  13.686   8.515  0.00  0.00    -0.166 F 
HETATM   59  F   UNK N   1      21.650  14.717   9.134  0.00  0.00    -0.166 F 
HETATM   60  F   UNK N   1      21.579  12.633   8.295  0.00  0.00    -0.166 F 
ENDBRANCH  53  57
BRANCH  55  61
HETATM   61  N   UNK N   1      19.676  14.296   4.001  0.00  0.00    -0.325 N 
HETATM   62  C   UNK N   1      19.614  13.362   3.014  0.00  0.00     0.222 C 
HETATM   63  O   UNK N   1      18.519  13.013   2.605  0.00  0.00    -0.273 OA
HETATM   64  H   UNK N   1      18.833  14.755   4.220  0.00  0.00     0.169 HD
BRANCH  62  65
HETATM   65  C   UNK N   1      20.847  12.763   2.400  0.00  0.00     0.103 C 
BRANCH  65  66
HETATM   66  C   UNK N   1      21.045  13.104   0.929  0.00  0.00     0.011 C 
BRANCH  66  67
HETATM   67  C   UNK N   1      22.472  12.842   0.425  0.00  0.00     0.021 C 
BRANCH  67  68
HETATM   68  C   UNK N   1      23.472  13.978   0.661  0.00  0.00     0.138 C 
BRANCH  68  69
HETATM   69  N   UNK N   1      24.249  13.760   1.857  0.00  0.00    -0.227 N 
HETATM   70  C   UNK N   1      25.442  14.476   2.120  0.00  0.00     0.665 C 
HETATM   71  N   UNK N   1      25.826  15.416   1.337  0.00  0.00    -0.235 N 
HETATM   72  N   UNK N   1      26.206  14.162   3.264  0.00  0.00    -0.235 N 
HETATM   73  H   UNK N   1      26.775  15.672   1.282  0.00  0.00     0.174 HD
ATOM     74  HN  UNK N   1      25.139  15.906   0.764  1.00  0.00     0.174 HD
HETATM   75  H   UNK N   1      25.895  13.598   4.009  0.00  0.00     0.174 HD
HETATM   76  H   UNK N   1      27.115  14.534   3.322  0.00  0.00     0.174 HD
HETATM   77  H   UNK N   1      23.938  13.093   2.511  0.00  0.00     0.177 HD
ENDBRANCH  68  69
ENDBRANCH  67  68
ENDBRANCH  66  67
ENDBRANCH  65  66
ENDBRANCH  62  65
ENDBRANCH  55  61
BRANCH  56  78
HETATM   78  O   UNK N   1      21.739  15.962   2.928  0.00  0.00    -0.340 OA
BRANCH  78  79
HETATM   79  C   UNK N   1      21.102  17.117   2.523  0.00  0.00     0.148 C 
HETATM   80  C   UNK N   1      20.378  17.811   3.631  0.00  0.00     0.053 C 
HETATM   81  C   UNK N   1      19.349  18.632   2.877  0.00  0.00     0.116 C 
HETATM   82  N   UNK N   1      19.129  18.004   1.573  0.00  0.00    -0.419 N 
HETATM   83  C   UNK N   1      20.012  16.845   1.527  0.00  0.00     0.146 C 
HETATM   84  H   UNK N   1      18.489  18.316   0.843  0.00  0.00     0.153 HD
ENDBRANCH  78  79
ENDBRANCH  56  78
ENDBRANCH  49  51
ENDBRANCH   3  47
TORSDOF 22
ENDMDL
MODEL 6
REMARK VINA RESULT:      -8.4      3.514      7.135
REMARK  22 active torsions:
REMARK  status: ('A' for Active; 'I' for Inactive)
REMARK    1  A    between atoms: C_2  and  C_67 
REMARK    2  A    between atoms: C_4  and  N_25 
REMARK    3  A    between atoms: C_5  and  O_19 
REMARK    4  A    between atoms: C_6  and  N_7 
REMARK       I    between atoms: N_7  and  C_8 
REMARK    5  A    between atoms: C_8  and  C_10 
REMARK    6  A    between atoms: C_10  and  C_11 
REMARK    7  A    between atoms: C_11  and  C_12 
REMARK    8  A    between atoms: C_12  and  C_13 
REMARK    9  A    between atoms: C_13  and  N_14 
REMARK       I    between atoms: N_14  and  C_15 
REMARK       I    between atoms: C_15  and  N_18 
REMARK   10  A    between atoms: C_20  and  O_19 
REMARK       I    between atoms: N_25  and  C_26 
REMARK   11  A    between atoms: C_26  and  C_28 
REMARK   12  A    between atoms: C_30  and  C_36 
REMARK       I    between atoms: C_36  and  N_38 
REMARK   13  A    between atoms: N_38  and  C_39 
REMARK   14  A    between atoms: C_41  and  C_63 
REMARK   15  A    between atoms: C_43  and  N_51 
REMARK   16  A    between atoms: C_44  and  O_45 
REMARK   17  A    between atoms: C_46  and  O_45 
REMARK       I    between atoms: N_51  and  C_52 
REMARK   18  A    between atoms: C_52  and  C_54 
REMARK   19  A    between atoms: C_54  and  C_55 
REMARK   20  A    between atoms: C_55  and  C_56 
REMARK   21  A    between atoms: C_56  and  C_57 
REMARK   22  A    between atoms: C_57  and  N_58 
REMARK       I    between atoms: N_58  and  C_59 
REMARK       I    between atoms: C_59  and  N_62 
ROOT
HETATM    1  C   UNK N   1      27.584  18.448   4.284  0.00  0.00     0.104 C 
HETATM    2  C   UNK N   1      26.281  18.092   4.007  0.00  0.00     0.070 C 
HETATM    3  C   UNK N   1      25.256  18.807   4.567  0.00  0.00     0.104 C 
HETATM    4  N   UNK N   1      25.540  19.837   5.411  0.00  0.00    -0.348 N 
ATOM      5  HN  UNK N   1      24.782  20.308   5.904  1.00  0.00     0.167 HD
HETATM    6  C   UNK N   1      26.823  20.246   5.604  0.00  0.00     0.181 C 
HETATM    7  N   UNK N   1      27.844  19.518   5.080  0.00  0.00    -0.348 N 
ATOM      8  HN  UNK N   1      28.809  19.776   5.284  1.00  0.00     0.167 HD
ENDROOT
BRANCH   1   9
HETATM    9  C   UNK N   1      28.614  17.467   3.965  0.00  0.00     0.272 C 
HETATM   10  N   UNK N   1      29.812  17.514   4.586  0.00  0.00    -0.319 N 
HETATM   11  H   UNK N   1      30.568  17.886   4.077  0.00  0.00     0.169 HD
HETATM   12  O   UNK N   1      28.501  16.814   2.937  0.00  0.00    -0.266 OA
BRANCH  10  13
HETATM   13  C   UNK N   1      30.074  17.072   5.915  0.00  0.00     0.071 A 
HETATM   14  C   UNK N   1      29.346  17.667   6.946  0.00  0.00     0.048 A 
HETATM   15  C   UNK N   1      29.733  17.520   8.281  0.00  0.00     0.052 A 
HETATM   16  C   UNK N   1      30.928  16.855   8.575  0.00  0.00     0.048 A 
HETATM   17  C   UNK N   1      31.658  16.239   7.552  0.00  0.00     0.071 A 
HETATM   18  C   UNK N   1      31.206  16.281   6.227  0.00  0.00     0.122 A 
BRANCH  15  19
HETATM   19  C   UNK N   1      28.916  18.172   9.357  0.00  0.00     0.417 C 
HETATM   20  F   UNK N   1      29.745  18.940  10.152  0.00  0.00    -0.166 F 
HETATM   21  F   UNK N   1      27.958  18.990   8.783  0.00  0.00    -0.166 F 
HETATM   22  F   UNK N   1      28.282  17.231  10.149  0.00  0.00    -0.166 F 
ENDBRANCH  15  19
BRANCH  17  23
HETATM   23  N   UNK N   1      32.979  15.779   7.762  0.00  0.00    -0.325 N 
HETATM   24  C   UNK N   1      33.229  14.528   8.236  0.00  0.00     0.222 C 
HETATM   25  O   UNK N   1      32.327  13.712   8.359  0.00  0.00    -0.273 OA
HETATM   26  H   UNK N   1      33.734  16.378   7.560  0.00  0.00     0.169 HD
BRANCH  24  27
HETATM   27  C   UNK N   1      34.588  14.176   8.743  0.00  0.00     0.103 C 
BRANCH  27  28
HETATM   28  C   UNK N   1      35.363  15.396   9.217  0.00  0.00     0.011 C 
BRANCH  28  29
HETATM   29  C   UNK N   1      36.329  15.049  10.340  0.00  0.00     0.021 C 
BRANCH  29  30
HETATM   30  C   UNK N   1      35.813  15.497  11.704  0.00  0.00     0.138 C 
BRANCH  30  31
HETATM   31  N   UNK N   1      35.349  14.336  12.421  0.00  0.00    -0.227 N 
HETATM   32  C   UNK N   1      35.890  13.942  13.673  0.00  0.00     0.665 C 
HETATM   33  N   UNK N   1      35.532  12.827  14.191  0.00  0.00    -0.235 N 
HETATM   34  N   UNK N   1      36.872  14.729  14.317  0.00  0.00    -0.235 N 
HETATM   35  H   UNK N   1      35.893  12.098  14.744  0.00  0.00     0.174 HD
ATOM     36  HN  UNK N   1      34.559  12.633  13.954  1.00  0.00     0.174 HD
HETATM   37  H   UNK N   1      37.489  15.365  13.887  0.00  0.00     0.174 HD
HETATM   38  H   UNK N   1      36.946  14.632  15.294  0.00  0.00     0.174 HD
HETATM   39  H   UNK N   1      34.627  13.794  12.027  0.00  0.00     0.177 HD
ENDBRANCH  30  31
ENDBRANCH  29  30
ENDBRANCH  28  29
ENDBRANCH  27  28
ENDBRANCH  24  27
ENDBRANCH  17  23
BRANCH  18  40
HETATM   40  O   UNK N   1      31.928  15.650   5.270  0.00  0.00    -0.340 OA
BRANCH  40  41
HETATM   41  C   UNK N   1      33.039  16.270   4.704  0.00  0.00     0.148 C 
HETATM   42  C   UNK N   1      34.219  15.342   4.712  0.00  0.00     0.053 C 
HETATM   43  C   UNK N   1      34.125  14.608   3.393  0.00  0.00     0.116 C 
HETATM   44  N   UNK N   1      33.368  15.438   2.463  0.00  0.00    -0.419 N 
HETATM   45  C   UNK N   1      32.856  16.571   3.227  0.00  0.00     0.146 C 
HETATM   46  H   UNK N   1      33.223  15.260   1.469  0.00  0.00     0.153 HD
ENDBRANCH  40  41
ENDBRANCH  18  40
ENDBRANCH  10  13
ENDBRANCH   1   9
BRANCH   3  47
HETATM   47  C   UNK N   1      24.079  18.014   4.798  0.00  0.00     0.272 C 
HETATM   48  O   UNK N   1      22.985  18.333   4.358  0.00  0.00    -0.266 OA
HETATM   49  N   UNK N   1      24.295  16.807   5.367  0.00  0.00    -0.319 N 
HETATM   50  H   UNK N   1      25.223  16.566   5.589  0.00  0.00     0.169 HD
BRANCH  49  51
HETATM   51  C   UNK N   1      23.293  15.877   5.665  0.00  0.00     0.071 A 
HETATM   52  C   UNK N   1      22.665  15.961   6.907  0.00  0.00     0.048 A 
HETATM   53  C   UNK N   1      21.638  15.086   7.244  0.00  0.00     0.052 A 
HETATM   54  C   UNK N   1      21.226  14.127   6.313  0.00  0.00     0.048 A 
HETATM   55  C   UNK N   1      21.832  14.031   5.051  0.00  0.00     0.071 A 
HETATM   56  C   UNK N   1      22.898  14.906   4.715  0.00  0.00     0.122 A 
BRANCH  53  57
HETATM   57  C   UNK N   1      20.991  15.154   8.601  0.00  0.00     0.417 C 
HETATM   58  F   UNK N   1      19.770  14.507   8.571  0.00  0.00    -0.166 F 
HETATM   59  F   UNK N   1      21.808  14.538   9.532  0.00  0.00    -0.166 F 
HETATM   60  F   UNK N   1      20.789  16.468   8.995  0.00  0.00    -0.166 F 
ENDBRANCH  53  57
BRANCH  55  61
HETATM   61  N   UNK N   1      21.401  12.982   4.188  0.00  0.00    -0.325 N 
HETATM   62  C   UNK N   1      20.477  13.056   3.192  0.00  0.00     0.222 C 
HETATM   63  O   UNK N   1      20.366  12.116   2.423  0.00  0.00    -0.273 OA
HETATM   64  H   UNK N   1      21.820  12.102   4.328  0.00  0.00     0.169 HD
BRANCH  62  65
HETATM   65  C   UNK N   1      19.579  14.249   3.021  0.00  0.00     0.103 C 
BRANCH  65  66
HETATM   66  C   UNK N   1      19.961  15.160   1.862  0.00  0.00     0.011 C 
BRANCH  66  67
HETATM   67  C   UNK N   1      20.650  16.459   2.305  0.00  0.00     0.021 C 
BRANCH  67  68
HETATM   68  C   UNK N   1      20.121  17.741   1.654  0.00  0.00     0.138 C 
BRANCH  68  69
HETATM   69  N   UNK N   1      20.414  18.904   2.456  0.00  0.00    -0.227 N 
HETATM   70  C   UNK N   1      20.690  20.166   1.878  0.00  0.00     0.665 C 
HETATM   71  N   UNK N   1      20.597  20.340   0.610  0.00  0.00    -0.235 N 
HETATM   72  N   UNK N   1      21.054  21.249   2.706  0.00  0.00    -0.235 N 
HETATM   73  H   UNK N   1      21.104  21.052   0.158  0.00  0.00     0.174 HD
ATOM     74  HN  UNK N   1      19.988  19.730   0.063  1.00  0.00     0.174 HD
HETATM   75  H   UNK N   1      20.966  21.258   3.687  0.00  0.00     0.174 HD
HETATM   76  H   UNK N   1      21.422  22.052   2.273  0.00  0.00     0.174 HD
HETATM   77  H   UNK N   1      20.423  18.815   3.436  0.00  0.00     0.177 HD
ENDBRANCH  68  69
ENDBRANCH  67  68
ENDBRANCH  66  67
ENDBRANCH  65  66
ENDBRANCH  62  65
ENDBRANCH  55  61
BRANCH  56  78
HETATM   78  O   UNK N   1      23.518  14.778   3.501  0.00  0.00    -0.340 OA
BRANCH  78  79
HETATM   79  C   UNK N   1      24.640  14.025   3.222  0.00  0.00     0.148 C 
HETATM   80  C   UNK N   1      25.441  13.686   4.438  0.00  0.00     0.053 C 
HETATM   81  C   UNK N   1      26.813  13.413   3.853  0.00  0.00     0.116 C 
HETATM   82  N   UNK N   1      26.908  14.108   2.568  0.00  0.00    -0.419 N 
HETATM   83  C   UNK N   1      25.625  14.770   2.368  0.00  0.00     0.146 C 
HETATM   84  H   UNK N   1      27.711  14.124   1.938  0.00  0.00     0.153 HD
ENDBRANCH  78  79
ENDBRANCH  56  78
ENDBRANCH  49  51
ENDBRANCH   3  47
TORSDOF 22
ENDMDL
MODEL 7
REMARK VINA RESULT:      -8.4      4.969     12.032
REMARK  22 active torsions:
REMARK  status: ('A' for Active; 'I' for Inactive)
REMARK    1  A    between atoms: C_2  and  C_67 
REMARK    2  A    between atoms: C_4  and  N_25 
REMARK    3  A    between atoms: C_5  and  O_19 
REMARK    4  A    between atoms: C_6  and  N_7 
REMARK       I    between atoms: N_7  and  C_8 
REMARK    5  A    between atoms: C_8  and  C_10 
REMARK    6  A    between atoms: C_10  and  C_11 
REMARK    7  A    between atoms: C_11  and  C_12 
REMARK    8  A    between atoms: C_12  and  C_13 
REMARK    9  A    between atoms: C_13  and  N_14 
REMARK       I    between atoms: N_14  and  C_15 
REMARK       I    between atoms: C_15  and  N_18 
REMARK   10  A    between atoms: C_20  and  O_19 
REMARK       I    between atoms: N_25  and  C_26 
REMARK   11  A    between atoms: C_26  and  C_28 
REMARK   12  A    between atoms: C_30  and  C_36 
REMARK       I    between atoms: C_36  and  N_38 
REMARK   13  A    between atoms: N_38  and  C_39 
REMARK   14  A    between atoms: C_41  and  C_63 
REMARK   15  A    between atoms: C_43  and  N_51 
REMARK   16  A    between atoms: C_44  and  O_45 
REMARK   17  A    between atoms: C_46  and  O_45 
REMARK       I    between atoms: N_51  and  C_52 
REMARK   18  A    between atoms: C_52  and  C_54 
REMARK   19  A    between atoms: C_54  and  C_55 
REMARK   20  A    between atoms: C_55  and  C_56 
REMARK   21  A    between atoms: C_56  and  C_57 
REMARK   22  A    between atoms: C_57  and  N_58 
REMARK       I    between atoms: N_58  and  C_59 
REMARK       I    between atoms: C_59  and  N_62 
ROOT
HETATM    1  C   UNK N   1      20.840  18.801   3.406  0.00  0.00     0.104 C 
HETATM    2  C   UNK N   1      21.883  18.320   4.169  0.00  0.00     0.070 C 
HETATM    3  C   UNK N   1      23.097  18.951   4.119  0.00  0.00     0.104 C 
HETATM    4  N   UNK N   1      23.263  20.022   3.295  0.00  0.00    -0.348 N 
ATOM      5  HN  UNK N   1      24.189  20.432   3.183  1.00  0.00     0.167 HD
HETATM    6  C   UNK N   1      22.208  20.551   2.620  0.00  0.00     0.181 C 
HETATM    7  N   UNK N   1      21.011  19.908   2.638  0.00  0.00    -0.348 N 
ATOM      8  HN  UNK N   1      20.237  20.258   2.073  1.00  0.00     0.167 HD
ENDROOT
BRANCH   1   9
HETATM    9  C   UNK N   1      19.700  17.911   3.218  0.00  0.00     0.272 C 
HETATM   10  N   UNK N   1      19.860  16.573   3.316  0.00  0.00    -0.319 N 
HETATM   11  H   UNK N   1      19.893  16.061   2.477  0.00  0.00     0.169 HD
HETATM   12  O   UNK N   1      18.696  18.352   2.678  0.00  0.00    -0.266 OA
BRANCH  10  13
HETATM   13  C   UNK N   1      19.987  15.841   4.532  0.00  0.00     0.071 A 
HETATM   14  C   UNK N   1      19.485  16.431   5.693  0.00  0.00     0.048 A 
HETATM   15  C   UNK N   1      19.820  15.936   6.957  0.00  0.00     0.052 A 
HETATM   16  C   UNK N   1      20.757  14.902   7.058  0.00  0.00     0.048 A 
HETATM   17  C   UNK N   1      21.254  14.290   5.900  0.00  0.00     0.071 A 
HETATM   18  C   UNK N   1      20.825  14.705   4.634  0.00  0.00     0.122 A 
BRANCH  15  19
HETATM   19  C   UNK N   1      19.251  16.598   8.177  0.00  0.00     0.417 C 
HETATM   20  F   UNK N   1      19.853  17.831   8.344  0.00  0.00    -0.166 F 
HETATM   21  F   UNK N   1      17.888  16.779   8.017  0.00  0.00    -0.166 F 
HETATM   22  F   UNK N   1      19.470  15.836   9.312  0.00  0.00    -0.166 F 
ENDBRANCH  15  19
BRANCH  17  23
HETATM   23  N   UNK N   1      22.373  13.427   5.945  0.00  0.00    -0.325 N 
HETATM   24  C   UNK N   1      22.247  12.119   6.301  0.00  0.00     0.222 C 
HETATM   25  O   UNK N   1      21.144  11.614   6.454  0.00  0.00    -0.273 OA
HETATM   26  H   UNK N   1      23.263  13.779   5.713  0.00  0.00     0.169 HD
BRANCH  24  27
HETATM   27  C   UNK N   1      23.457  11.315   6.644  0.00  0.00     0.103 C 
BRANCH  27  28
HETATM   28  C   UNK N   1      23.673  11.209   8.146  0.00  0.00     0.011 C 
BRANCH  28  29
HETATM   29  C   UNK N   1      24.385  12.435   8.701  0.00  0.00     0.021 C 
BRANCH  29  30
HETATM   30  C   UNK N   1      23.529  13.189   9.714  0.00  0.00     0.138 C 
BRANCH  30  31
HETATM   31  N   UNK N   1      23.761  12.624  11.019  0.00  0.00    -0.227 N 
HETATM   32  C   UNK N   1      22.735  12.004  11.778  0.00  0.00     0.665 C 
HETATM   33  N   UNK N   1      22.972  11.647  12.985  0.00  0.00    -0.235 N 
HETATM   34  N   UNK N   1      21.436  11.843  11.244  0.00  0.00    -0.235 N 
HETATM   35  H   UNK N   1      22.519  11.566  13.855  0.00  0.00     0.174 HD
ATOM     36  HN  UNK N   1      23.944  11.349  13.072  1.00  0.00     0.174 HD
HETATM   37  H   UNK N   1      21.024  12.381  10.529  0.00  0.00     0.174 HD
HETATM   38  H   UNK N   1      20.887  11.119  11.625  0.00  0.00     0.174 HD
HETATM   39  H   UNK N   1      24.669  12.671  11.400  0.00  0.00     0.177 HD
ENDBRANCH  30  31
ENDBRANCH  29  30
ENDBRANCH  28  29
ENDBRANCH  27  28
ENDBRANCH  24  27
ENDBRANCH  17  23
BRANCH  18  40
HETATM   40  O   UNK N   1      21.310  14.070   3.539  0.00  0.00    -0.340 OA
BRANCH  40  41
HETATM   41  C   UNK N   1      20.546  13.107   2.888  0.00  0.00     0.148 C 
HETATM   42  C   UNK N   1      20.263  13.525   1.474  0.00  0.00     0.053 C 
HETATM   43  C   UNK N   1      21.416  12.954   0.679  0.00  0.00     0.116 C 
HETATM   44  N   UNK N   1      21.959  11.819   1.417  0.00  0.00    -0.419 N 
HETATM   45  C   UNK N   1      21.284  11.792   2.709  0.00  0.00     0.146 C 
HETATM   46  H   UNK N   1      22.675  11.169   1.091  0.00  0.00     0.153 HD
ENDBRANCH  40  41
ENDBRANCH  18  40
ENDBRANCH  10  13
ENDBRANCH   1   9
BRANCH   3  47
HETATM   47  C   UNK N   1      24.202  18.059   4.342  0.00  0.00     0.272 C 
HETATM   48  O   UNK N   1      24.165  17.177   5.187  0.00  0.00    -0.266 OA
HETATM   49  N   UNK N   1      25.203  18.137   3.436  0.00  0.00    -0.319 N 
HETATM   50  H   UNK N   1      25.111  18.793   2.709  0.00  0.00     0.169 HD
BRANCH  49  51
HETATM   51  C   UNK N   1      26.361  17.351   3.460  0.00  0.00     0.071 A 
HETATM   52  C   UNK N   1      26.234  15.983   3.223  0.00  0.00     0.048 A 
HETATM   53  C   UNK N   1      27.355  15.160   3.199  0.00  0.00     0.052 A 
HETATM   54  C   UNK N   1      28.619  15.724   3.399  0.00  0.00     0.048 A 
HETATM   55  C   UNK N   1      28.775  17.099   3.627  0.00  0.00     0.071 A 
HETATM   56  C   UNK N   1      27.631  17.937   3.676  0.00  0.00     0.122 A 
BRANCH  53  57
HETATM   57  C   UNK N   1      27.209  13.678   2.983  0.00  0.00     0.417 C 
HETATM   58  F   UNK N   1      26.100  13.425   2.198  0.00  0.00    -0.166 F 
HETATM   59  F   UNK N   1      28.337  13.192   2.346  0.00  0.00    -0.166 F 
HETATM   60  F   UNK N   1      27.063  13.008   4.188  0.00  0.00    -0.166 F 
ENDBRANCH  53  57
BRANCH  55  61
HETATM   61  N   UNK N   1      30.090  17.582   3.890  0.00  0.00    -0.325 N 
HETATM   62  C   UNK N   1      30.998  17.075   4.769  0.00  0.00     0.222 C 
HETATM   63  O   UNK N   1      32.144  17.490   4.732  0.00  0.00    -0.273 OA
HETATM   64  H   UNK N   1      30.375  18.372   3.378  0.00  0.00     0.169 HD
BRANCH  62  65
HETATM   65  C   UNK N   1      30.629  16.039   5.792  0.00  0.00     0.103 C 
BRANCH  65  66
HETATM   66  C   UNK N   1      30.071  16.609   7.089  0.00  0.00     0.011 C 
BRANCH  66  67
HETATM   67  C   UNK N   1      31.155  17.006   8.101  0.00  0.00     0.021 C 
BRANCH  67  68
HETATM   68  C   UNK N   1      32.277  15.983   8.301  0.00  0.00     0.138 C 
BRANCH  68  69
HETATM   69  N   UNK N   1      33.076  16.291   9.462  0.00  0.00    -0.227 N 
HETATM   70  C   UNK N   1      34.296  17.004   9.368  0.00  0.00     0.665 C 
HETATM   71  N   UNK N   1      34.688  17.484   8.245  0.00  0.00    -0.235 N 
HETATM   72  N   UNK N   1      35.078  17.204  10.525  0.00  0.00    -0.235 N 
HETATM   73  H   UNK N   1      35.642  17.653   8.073  0.00  0.00     0.174 HD
ATOM     74  HN  UNK N   1      34.001  17.693   7.520  1.00  0.00     0.174 HD
HETATM   75  H   UNK N   1      34.769  17.040  11.446  0.00  0.00     0.174 HD
HETATM   76  H   UNK N   1      35.999  17.529  10.404  0.00  0.00     0.174 HD
HETATM   77  H   UNK N   1      32.762  15.995  10.347  0.00  0.00     0.177 HD
ENDBRANCH  68  69
ENDBRANCH  67  68
ENDBRANCH  66  67
ENDBRANCH  65  66
ENDBRANCH  62  65
ENDBRANCH  55  61
BRANCH  56  78
HETATM   78  O   UNK N   1      27.783  19.271   3.944  0.00  0.00    -0.340 OA
BRANCH  78  79
HETATM   79  C   UNK N   1      27.809  19.866   5.190  0.00  0.00     0.148 C 
HETATM   80  C   UNK N   1      27.752  18.883   6.314  0.00  0.00     0.053 C 
HETATM   81  C   UNK N   1      27.219  19.729   7.454  0.00  0.00     0.116 C 
HETATM   82  N   UNK N   1      26.497  20.866   6.880  0.00  0.00    -0.419 N 
HETATM   83  C   UNK N   1      26.603  20.726   5.433  0.00  0.00     0.146 C 
HETATM   84  H   UNK N   1      26.019  21.609   7.390  0.00  0.00     0.153 HD
ENDBRANCH  78  79
ENDBRANCH  56  78
ENDBRANCH  49  51
ENDBRANCH   3  47
TORSDOF 22
ENDMDL
MODEL 8
REMARK VINA RESULT:      -8.3      3.485      6.829
REMARK  22 active torsions:
REMARK  status: ('A' for Active; 'I' for Inactive)
REMARK    1  A    between atoms: C_2  and  C_67 
REMARK    2  A    between atoms: C_4  and  N_25 
REMARK    3  A    between atoms: C_5  and  O_19 
REMARK    4  A    between atoms: C_6  and  N_7 
REMARK       I    between atoms: N_7  and  C_8 
REMARK    5  A    between atoms: C_8  and  C_10 
REMARK    6  A    between atoms: C_10  and  C_11 
REMARK    7  A    between atoms: C_11  and  C_12 
REMARK    8  A    between atoms: C_12  and  C_13 
REMARK    9  A    between atoms: C_13  and  N_14 
REMARK       I    between atoms: N_14  and  C_15 
REMARK       I    between atoms: C_15  and  N_18 
REMARK   10  A    between atoms: C_20  and  O_19 
REMARK       I    between atoms: N_25  and  C_26 
REMARK   11  A    between atoms: C_26  and  C_28 
REMARK   12  A    between atoms: C_30  and  C_36 
REMARK       I    between atoms: C_36  and  N_38 
REMARK   13  A    between atoms: N_38  and  C_39 
REMARK   14  A    between atoms: C_41  and  C_63 
REMARK   15  A    between atoms: C_43  and  N_51 
REMARK   16  A    between atoms: C_44  and  O_45 
REMARK   17  A    between atoms: C_46  and  O_45 
REMARK       I    between atoms: N_51  and  C_52 
REMARK   18  A    between atoms: C_52  and  C_54 
REMARK   19  A    between atoms: C_54  and  C_55 
REMARK   20  A    between atoms: C_55  and  C_56 
REMARK   21  A    between atoms: C_56  and  C_57 
REMARK   22  A    between atoms: C_57  and  N_58 
REMARK       I    between atoms: N_58  and  C_59 
REMARK       I    between atoms: C_59  and  N_62 
ROOT
HETATM    1  C   UNK N   1      27.667  18.234   4.143  0.00  0.00     0.104 C 
HETATM    2  C   UNK N   1      26.399  17.705   4.028  0.00  0.00     0.070 C 
HETATM    3  C   UNK N   1      25.339  18.378   4.573  0.00  0.00     0.104 C 
HETATM    4  N   UNK N   1      25.558  19.542   5.245  0.00  0.00    -0.348 N 
ATOM      5  HN  UNK N   1      24.785  19.994   5.734  1.00  0.00     0.167 HD
HETATM    6  C   UNK N   1      26.793  20.109   5.271  0.00  0.00     0.181 C 
HETATM    7  N   UNK N   1      27.854  19.428   4.764  0.00  0.00    -0.348 N 
ATOM      8  HN  UNK N   1      28.794  19.814   4.849  1.00  0.00     0.167 HD
ENDROOT
BRANCH   1   9
HETATM    9  C   UNK N   1      28.781  17.333   3.871  0.00  0.00     0.272 C 
HETATM   10  N   UNK N   1      29.940  17.463   4.551  0.00  0.00    -0.319 N 
HETATM   11  H   UNK N   1      30.691  17.893   4.083  0.00  0.00     0.169 HD
HETATM   12  O   UNK N   1      28.768  16.682   2.836  0.00  0.00    -0.266 OA
BRANCH  10  13
HETATM   13  C   UNK N   1      30.169  17.031   5.890  0.00  0.00     0.071 A 
HETATM   14  C   UNK N   1      29.430  17.648   6.900  0.00  0.00     0.048 A 
HETATM   15  C   UNK N   1      29.787  17.508   8.244  0.00  0.00     0.052 A 
HETATM   16  C   UNK N   1      30.965  16.826   8.569  0.00  0.00     0.048 A 
HETATM   17  C   UNK N   1      31.705  16.187   7.566  0.00  0.00     0.071 A 
HETATM   18  C   UNK N   1      31.280  16.224   6.233  0.00  0.00     0.122 A 
BRANCH  15  19
HETATM   19  C   UNK N   1      28.960  18.185   9.296  0.00  0.00     0.417 C 
HETATM   20  F   UNK N   1      28.046  19.023   8.684  0.00  0.00    -0.166 F 
HETATM   21  F   UNK N   1      28.276  17.235  10.035  0.00  0.00    -0.166 F 
HETATM   22  F   UNK N   1      29.749  18.933  10.154  0.00  0.00    -0.166 F 
ENDBRANCH  15  19
BRANCH  17  23
HETATM   23  N   UNK N   1      33.013  15.708   7.808  0.00  0.00    -0.325 N 
HETATM   24  C   UNK N   1      33.232  14.471   8.332  0.00  0.00     0.222 C 
HETATM   25  O   UNK N   1      32.310  13.680   8.478  0.00  0.00    -0.273 OA
HETATM   26  H   UNK N   1      33.784  16.282   7.590  0.00  0.00     0.169 HD
BRANCH  24  27
HETATM   27  C   UNK N   1      34.577  14.110   8.867  0.00  0.00     0.103 C 
BRANCH  27  28
HETATM   28  C   UNK N   1      35.254  15.277   9.569  0.00  0.00     0.011 C 
BRANCH  28  29
HETATM   29  C   UNK N   1      34.747  15.447  10.994  0.00  0.00     0.021 C 
BRANCH  29  30
HETATM   30  C   UNK N   1      35.888  15.574  11.999  0.00  0.00     0.138 C 
BRANCH  30  31
HETATM   31  N   UNK N   1      35.896  14.398  12.833  0.00  0.00    -0.227 N 
HETATM   32  C   UNK N   1      36.743  13.287  12.583  0.00  0.00     0.665 C 
HETATM   33  N   UNK N   1      36.604  12.220  13.276  0.00  0.00    -0.235 N 
HETATM   34  N   UNK N   1      37.688  13.320  11.532  0.00  0.00    -0.235 N 
HETATM   35  H   UNK N   1      36.685  11.243  13.188  0.00  0.00     0.174 HD
ATOM     36  HN  UNK N   1      36.317  12.459  14.225  1.00  0.00     0.174 HD
HETATM   37  H   UNK N   1      37.647  13.880  10.722  0.00  0.00     0.174 HD
HETATM   38  H   UNK N   1      38.467  12.723  11.618  0.00  0.00     0.174 HD
HETATM   39  H   UNK N   1      35.287  14.363  13.607  0.00  0.00     0.177 HD
ENDBRANCH  30  31
ENDBRANCH  29  30
ENDBRANCH  28  29
ENDBRANCH  27  28
ENDBRANCH  24  27
ENDBRANCH  17  23
BRANCH  18  40
HETATM   40  O   UNK N   1      32.010  15.571   5.296  0.00  0.00    -0.340 OA
BRANCH  40  41
HETATM   41  C   UNK N   1      33.140  16.168   4.744  0.00  0.00     0.148 C 
HETATM   42  C   UNK N   1      34.287  15.199   4.718  0.00  0.00     0.053 C 
HETATM   43  C   UNK N   1      34.162  14.509   3.379  0.00  0.00     0.116 C 
HETATM   44  N   UNK N   1      33.431  15.392   2.478  0.00  0.00    -0.419 N 
HETATM   45  C   UNK N   1      32.963  16.519   3.277  0.00  0.00     0.146 C 
HETATM   46  H   UNK N   1      33.276  15.250   1.480  0.00  0.00     0.153 HD
ENDBRANCH  40  41
ENDBRANCH  18  40
ENDBRANCH  10  13
ENDBRANCH   1   9
BRANCH   3  47
HETATM   47  C   UNK N   1      24.283  17.505   5.008  0.00  0.00     0.272 C 
HETATM   48  O   UNK N   1      24.505  16.472   5.622  0.00  0.00    -0.266 OA
HETATM   49  N   UNK N   1      23.030  17.991   4.860  0.00  0.00    -0.319 N 
HETATM   50  H   UNK N   1      22.931  18.886   4.464  0.00  0.00     0.169 HD
BRANCH  49  51
HETATM   51  C   UNK N   1      21.864  17.311   5.230  0.00  0.00     0.071 A 
HETATM   52  C   UNK N   1      21.384  17.484   6.528  0.00  0.00     0.048 A 
HETATM   53  C   UNK N   1      20.211  16.861   6.940  0.00  0.00     0.052 A 
HETATM   54  C   UNK N   1      19.503  16.070   6.029  0.00  0.00     0.048 A 
HETATM   55  C   UNK N   1      19.957  15.891   4.714  0.00  0.00     0.071 A 
HETATM   56  C   UNK N   1      21.167  16.505   4.298  0.00  0.00     0.122 A 
BRANCH  53  57
HETATM   57  C   UNK N   1      19.719  17.018   8.353  0.00  0.00     0.417 C 
HETATM   58  F   UNK N   1      20.509  16.275   9.210  0.00  0.00    -0.166 F 
HETATM   59  F   UNK N   1      19.783  18.351   8.718  0.00  0.00    -0.166 F 
HETATM   60  F   UNK N   1      18.406  16.591   8.476  0.00  0.00    -0.166 F 
ENDBRANCH  53  57
BRANCH  55  61
HETATM   61  N   UNK N   1      19.214  15.014   3.870  0.00  0.00    -0.325 N 
HETATM   62  C   UNK N   1      19.322  13.660   3.783  0.00  0.00     0.222 C 
HETATM   63  O   UNK N   1      18.480  13.044   3.152  0.00  0.00    -0.273 OA
HETATM   64  H   UNK N   1      18.547  15.436   3.283  0.00  0.00     0.169 HD
BRANCH  62  65
HETATM   65  C   UNK N   1      20.453  12.905   4.422  0.00  0.00     0.103 C 
BRANCH  65  66
HETATM   66  C   UNK N   1      20.340  12.767   5.935  0.00  0.00     0.011 C 
BRANCH  66  67
HETATM   67  C   UNK N   1      21.698  12.719   6.649  0.00  0.00     0.021 C 
BRANCH  67  68
HETATM   68  C   UNK N   1      21.897  13.757   7.757  0.00  0.00     0.138 C 
BRANCH  68  69
HETATM   69  N   UNK N   1      22.739  13.251   8.814  0.00  0.00    -0.227 N 
HETATM   70  C   UNK N   1      22.250  13.023  10.123  0.00  0.00     0.665 C 
HETATM   71  N   UNK N   1      21.004  13.174  10.390  0.00  0.00    -0.235 N 
HETATM   72  N   UNK N   1      23.137  12.607  11.137  0.00  0.00    -0.235 N 
HETATM   73  H   UNK N   1      20.704  13.372  11.307  0.00  0.00     0.174 HD
ATOM     74  HN  UNK N   1      20.315  13.087   9.643  1.00  0.00     0.174 HD
HETATM   75  H   UNK N   1      24.056  12.287  10.982  0.00  0.00     0.174 HD
HETATM   76  H   UNK N   1      22.816  12.641  12.067  0.00  0.00     0.174 HD
HETATM   77  H   UNK N   1      23.684  13.059   8.617  0.00  0.00     0.177 HD
ENDBRANCH  68  69
ENDBRANCH  67  68
ENDBRANCH  66  67
ENDBRANCH  65  66
ENDBRANCH  62  65
ENDBRANCH  55  61
BRANCH  56  78
HETATM   78  O   UNK N   1      21.632  16.290   3.028  0.00  0.00    -0.340 OA
BRANCH  78  79
HETATM   79  C   UNK N   1      22.247  15.149   2.555  0.00  0.00     0.148 C 
HETATM   80  C   UNK N   1      23.729  15.289   2.424  0.00  0.00     0.053 C 
HETATM   81  C   UNK N   1      24.063  14.220   1.401  0.00  0.00     0.116 C 
HETATM   82  N   UNK N   1      22.857  13.946   0.617  0.00  0.00    -0.419 N 
HETATM   83  C   UNK N   1      21.815  14.810   1.158  0.00  0.00     0.146 C 
HETATM   84  H   UNK N   1      22.765  13.283  -0.153  0.00  0.00     0.153 HD
ENDBRANCH  78  79
ENDBRANCH  56  78
ENDBRANCH  49  51
ENDBRANCH   3  47
TORSDOF 22
ENDMDL
MODEL 9
REMARK VINA RESULT:      -8.3      3.588      6.813
REMARK  22 active torsions:
REMARK  status: ('A' for Active; 'I' for Inactive)
REMARK    1  A    between atoms: C_2  and  C_67 
REMARK    2  A    between atoms: C_4  and  N_25 
REMARK    3  A    between atoms: C_5  and  O_19 
REMARK    4  A    between atoms: C_6  and  N_7 
REMARK       I    between atoms: N_7  and  C_8 
REMARK    5  A    between atoms: C_8  and  C_10 
REMARK    6  A    between atoms: C_10  and  C_11 
REMARK    7  A    between atoms: C_11  and  C_12 
REMARK    8  A    between atoms: C_12  and  C_13 
REMARK    9  A    between atoms: C_13  and  N_14 
REMARK       I    between atoms: N_14  and  C_15 
REMARK       I    between atoms: C_15  and  N_18 
REMARK   10  A    between atoms: C_20  and  O_19 
REMARK       I    between atoms: N_25  and  C_26 
REMARK   11  A    between atoms: C_26  and  C_28 
REMARK   12  A    between atoms: C_30  and  C_36 
REMARK       I    between atoms: C_36  and  N_38 
REMARK   13  A    between atoms: N_38  and  C_39 
REMARK   14  A    between atoms: C_41  and  C_63 
REMARK   15  A    between atoms: C_43  and  N_51 
REMARK   16  A    between atoms: C_44  and  O_45 
REMARK   17  A    between atoms: C_46  and  O_45 
REMARK       I    between atoms: N_51  and  C_52 
REMARK   18  A    between atoms: C_52  and  C_54 
REMARK   19  A    between atoms: C_54  and  C_55 
REMARK   20  A    between atoms: C_55  and  C_56 
REMARK   21  A    between atoms: C_56  and  C_57 
REMARK   22  A    between atoms: C_57  and  N_58 
REMARK       I    between atoms: N_58  and  C_59 
REMARK       I    between atoms: C_59  and  N_62 
ROOT
HETATM    1  C   UNK N   1      27.786  18.488   4.398  0.00  0.00     0.104 C 
HETATM    2  C   UNK N   1      26.506  18.131   4.034  0.00  0.00     0.070 C 
HETATM    3  C   UNK N   1      25.441  18.788   4.590  0.00  0.00     0.104 C 
HETATM    4  N   UNK N   1      25.665  19.763   5.515  0.00  0.00    -0.348 N 
ATOM      5  HN  UNK N   1      24.874  20.186   6.001  1.00  0.00     0.167 HD
HETATM    6  C   UNK N   1      26.928  20.178   5.799  0.00  0.00     0.181 C 
HETATM    7  N   UNK N   1      27.987  19.505   5.277  0.00  0.00    -0.348 N 
ATOM      8  HN  UNK N   1      28.936  19.763   5.546  1.00  0.00     0.167 HD
ENDROOT
BRANCH   1   9
HETATM    9  C   UNK N   1      28.850  17.548   4.064  0.00  0.00     0.272 C 
HETATM   10  N   UNK N   1      30.057  17.647   4.662  0.00  0.00    -0.319 N 
HETATM   11  H   UNK N   1      30.787  18.048   4.138  0.00  0.00     0.169 HD
HETATM   12  O   UNK N   1      28.745  16.886   3.041  0.00  0.00    -0.266 OA
BRANCH  10  13
HETATM   13  C   UNK N   1      30.362  17.224   5.987  0.00  0.00     0.071 A 
HETATM   14  C   UNK N   1      29.508  17.643   7.009  0.00  0.00     0.048 A 
HETATM   15  C   UNK N   1      29.880  17.531   8.352  0.00  0.00     0.052 A 
HETATM   16  C   UNK N   1      31.170  17.091   8.667  0.00  0.00     0.048 A 
HETATM   17  C   UNK N   1      32.030  16.651   7.653  0.00  0.00     0.071 A 
HETATM   18  C   UNK N   1      31.612  16.648   6.316  0.00  0.00     0.122 A 
BRANCH  15  19
HETATM   19  C   UNK N   1      28.928  17.988   9.416  0.00  0.00     0.417 C 
HETATM   20  F   UNK N   1      28.480  16.889  10.126  0.00  0.00    -0.166 F 
HETATM   21  F   UNK N   1      29.577  18.850  10.284  0.00  0.00    -0.166 F 
HETATM   22  F   UNK N   1      27.838  18.643   8.870  0.00  0.00    -0.166 F 
ENDBRANCH  15  19
BRANCH  17  23
HETATM   23  N   UNK N   1      33.407  16.439   7.893  0.00  0.00    -0.325 N 
HETATM   24  C   UNK N   1      33.871  15.251   8.369  0.00  0.00     0.222 C 
HETATM   25  O   UNK N   1      33.130  14.283   8.468  0.00  0.00    -0.273 OA
HETATM   26  H   UNK N   1      34.045  17.167   7.711  0.00  0.00     0.169 HD
BRANCH  24  27
HETATM   27  C   UNK N   1      35.259  15.149   8.907  0.00  0.00     0.103 C 
BRANCH  27  28
HETATM   28  C   UNK N   1      35.393  14.055   9.956  0.00  0.00     0.011 C 
BRANCH  28  29
HETATM   29  C   UNK N   1      34.997  14.548  11.340  0.00  0.00     0.021 C 
BRANCH  29  30
HETATM   30  C   UNK N   1      34.965  13.420  12.366  0.00  0.00     0.138 C 
BRANCH  30  31
HETATM   31  N   UNK N   1      35.570  13.895  13.586  0.00  0.00    -0.227 N 
HETATM   32  C   UNK N   1      36.818  13.413  14.060  0.00  0.00     0.665 C 
HETATM   33  N   UNK N   1      37.234  13.772  15.216  0.00  0.00    -0.235 N 
HETATM   34  N   UNK N   1      37.571  12.487  13.303  0.00  0.00    -0.235 N 
HETATM   35  H   UNK N   1      37.752  13.425  15.977  0.00  0.00     0.174 HD
ATOM     36  HN  UNK N   1      36.929  14.727  15.412  1.00  0.00     0.174 HD
HETATM   37  H   UNK N   1      37.224  11.862  12.625  0.00  0.00     0.174 HD
HETATM   38  H   UNK N   1      38.542  12.463  13.470  0.00  0.00     0.174 HD
HETATM   39  H   UNK N   1      35.098  14.582  14.112  0.00  0.00     0.177 HD
ENDBRANCH  30  31
ENDBRANCH  29  30
ENDBRANCH  28  29
ENDBRANCH  27  28
ENDBRANCH  24  27
ENDBRANCH  17  23
BRANCH  18  40
HETATM   40  O   UNK N   1      32.464  16.190   5.367  0.00  0.00    -0.340 OA
BRANCH  40  41
HETATM   41  C   UNK N   1      32.295  14.919   4.825  0.00  0.00     0.148 C 
HETATM   42  C   UNK N   1      32.068  15.004   3.343  0.00  0.00     0.053 C 
HETATM   43  C   UNK N   1      33.456  14.927   2.748  0.00  0.00     0.116 C 
HETATM   44  N   UNK N   1      34.324  14.249   3.703  0.00  0.00    -0.419 N 
HETATM   45  C   UNK N   1      33.548  14.066   4.925  0.00  0.00     0.146 C 
HETATM   46  H   UNK N   1      35.289  13.958   3.547  0.00  0.00     0.153 HD
ENDBRANCH  40  41
ENDBRANCH  18  40
ENDBRANCH  10  13
ENDBRANCH   1   9
BRANCH   3  47
HETATM   47  C   UNK N   1      24.271  17.963   4.708  0.00  0.00     0.272 C 
HETATM   48  O   UNK N   1      23.293  18.310   5.354  0.00  0.00    -0.266 OA
HETATM   49  N   UNK N   1      24.248  16.871   3.911  0.00  0.00    -0.319 N 
HETATM   50  H   UNK N   1      25.023  16.716   3.326  0.00  0.00     0.169 HD
BRANCH  49  51
HETATM   51  C   UNK N   1      23.200  15.945   3.860  0.00  0.00     0.071 A 
HETATM   52  C   UNK N   1      22.221  16.111   2.882  0.00  0.00     0.048 A 
HETATM   53  C   UNK N   1      21.176  15.202   2.762  0.00  0.00     0.052 A 
HETATM   54  C   UNK N   1      21.126  14.102   3.624  0.00  0.00     0.048 A 
HETATM   55  C   UNK N   1      22.106  13.904   4.608  0.00  0.00     0.071 A 
HETATM   56  C   UNK N   1      23.160  14.845   4.750  0.00  0.00     0.122 A 
BRANCH  53  57
HETATM   57  C   UNK N   1      20.099  15.408   1.731  0.00  0.00     0.417 C 
HETATM   58  F   UNK N   1      19.063  14.519   1.951  0.00  0.00    -0.166 F 
HETATM   59  F   UNK N   1      19.615  16.701   1.823  0.00  0.00    -0.166 F 
HETATM   60  F   UNK N   1      20.588  15.212   0.449  0.00  0.00    -0.166 F 
ENDBRANCH  53  57
BRANCH  55  61
HETATM   61  N   UNK N   1      21.944  12.797   5.492  0.00  0.00    -0.325 N 
HETATM   62  C   UNK N   1      21.226  12.758   6.647  0.00  0.00     0.222 C 
HETATM   63  O   UNK N   1      21.034  11.678   7.181  0.00  0.00    -0.273 OA
HETATM   64  H   UNK N   1      22.406  11.966   5.237  0.00  0.00     0.169 HD
BRANCH  62  65
HETATM   65  C   UNK N   1      20.679  14.000   7.292  0.00  0.00     0.103 C 
BRANCH  65  66
HETATM   66  C   UNK N   1      21.441  14.449   8.532  0.00  0.00     0.011 C 
BRANCH  66  67
HETATM   67  C   UNK N   1      20.799  13.985   9.847  0.00  0.00     0.021 C 
BRANCH  67  68
HETATM   68  C   UNK N   1      21.339  12.669  10.415  0.00  0.00     0.138 C 
BRANCH  68  69
HETATM   69  N   UNK N   1      22.762  12.547  10.210  0.00  0.00    -0.227 N 
HETATM   70  C   UNK N   1      23.662  12.337  11.283  0.00  0.00     0.665 C 
HETATM   71  N   UNK N   1      23.226  12.155  12.476  0.00  0.00    -0.235 N 
HETATM   72  N   UNK N   1      25.050  12.309  11.035  0.00  0.00    -0.235 N 
HETATM   73  H   UNK N   1      23.789  12.361  13.257  0.00  0.00     0.174 HD
ATOM     74  HN  UNK N   1      22.283  11.791  12.616  1.00  0.00     0.174 HD
HETATM   75  H   UNK N   1      25.459  12.250  10.140  0.00  0.00     0.174 HD
HETATM   76  H   UNK N   1      25.654  12.354  11.810  0.00  0.00     0.174 HD
HETATM   77  H   UNK N   1      23.118  12.612   9.295  0.00  0.00     0.177 HD
ENDBRANCH  68  69
ENDBRANCH  67  68
ENDBRANCH  66  67
ENDBRANCH  65  66
ENDBRANCH  62  65
ENDBRANCH  55  61
BRANCH  56  78
HETATM   78  O   UNK N   1      24.089  14.674   5.741  0.00  0.00    -0.340 OA
BRANCH  78  79
HETATM   79  C   UNK N   1      25.306  14.031   5.631  0.00  0.00     0.148 C 
HETATM   80  C   UNK N   1      26.470  14.920   5.925  0.00  0.00     0.053 C 
HETATM   81  C   UNK N   1      27.602  14.216   5.202  0.00  0.00     0.116 C 
HETATM   82  N   UNK N   1      27.023  13.390   4.141  0.00  0.00    -0.419 N 
HETATM   83  C   UNK N   1      25.579  13.572   4.228  0.00  0.00     0.146 C 
HETATM   84  H   UNK N   1      27.528  12.804   3.476  0.00  0.00     0.153 HD
ENDBRANCH  78  79
ENDBRANCH  56  78
ENDBRANCH  49  51
ENDBRANCH   3  47
TORSDOF 22
ENDMDL
