REMARK  3 active torsions:
REMARK  status: ('A' for Active; 'I' for Inactive)
REMARK    1  A    between atoms: C_9  and  N_8 
REMARK    2  A    between atoms: C_12  and  C_14 
REMARK    3  A    between atoms: C_14  and  O_15 
ROOT
HETATM    1  C   UNK N   1       1.615   1.416   0.074  0.00  0.00     0.128 A 
HETATM    2  C   UNK N   1       1.458   2.793  -0.073  0.00  0.00     0.117 A 
HETATM    3  C   UNK N   1       2.593   3.599  -0.108  0.00  0.00     0.272 A 
HETATM    4  O   UNK N   1       2.493   4.808  -0.223  0.00  0.00    -0.266 OA
HETATM    5  N   UNK N   1       3.831   3.028  -0.000  0.00  0.00    -0.274 N 
HETATM    6  C   UNK N   1       3.973   1.676   0.154  0.00  0.00     0.331 A 
HETATM    7  O   UNK N   1       5.095   1.212   0.284  0.00  0.00    -0.246 OA
HETATM    8  N   UNK N   1       2.856   0.853   0.179  0.00  0.00    -0.281 N 
HETATM    9 Cl   UNK N   1      -0.155   3.480  -0.180  0.00  0.00    -0.077 Cl
HETATM   10  H   UNK N   1       4.632   3.599  -0.033  0.00  0.00     0.173 HD
ENDROOT
BRANCH   8  11
HETATM   11  C   UNK N   1       2.939  -0.597   0.456  0.00  0.00     0.235 C 
HETATM   12  C   UNK N   1       4.169  -1.303  -0.073  0.00  0.00     0.094 C 
HETATM   13  C   UNK N   1       3.710  -2.694   0.156  0.00  0.00     0.205 C 
HETATM   14  C   UNK N   1       2.285  -2.596  -0.339  0.00  0.00     0.181 C 
HETATM   15  F   UNK N   1       4.454  -3.616  -0.555  0.00  0.00    -0.246 F 
HETATM   16  O   UNK N   1       1.807  -1.309  -0.004  0.00  0.00    -0.356 OA
BRANCH  14  17
HETATM   17  C   UNK N   1       1.416  -3.667   0.301  0.00  0.00     0.199 C 
BRANCH  17  18
HETATM   18  O   UNK N   1       1.872  -4.940  -0.048  0.00  0.00    -0.398 OA
HETATM   19  H   UNK N   1       1.265  -5.656  -0.291  0.00  0.00     0.209 HD
ENDBRANCH  17  18
ENDBRANCH  14  17
ENDBRANCH   8  11
TORSDOF 3
