MODEL 1
REMARK VINA RESULT:      -6.7      0.000      0.000
REMARK  9 active torsions:
REMARK  status: ('A' for Active; 'I' for Inactive)
REMARK    1  A    between atoms: C_6  and  O_7 
REMARK    2  A    between atoms: O_7  and  C_8 
REMARK    3  A    between atoms: C_8  and  C_9 
REMARK    4  A    between atoms: C_9  and  C_10 
REMARK    5  A    between atoms: C_10  and  C_11 
REMARK    6  A    between atoms: C_11  and  C_12 
REMARK    7  A    between atoms: C_12  and  C_13 
REMARK    8  A    between atoms: C_13  and  N_14 
REMARK       I    between atoms: N_14  and  C_15 
REMARK       I    between atoms: C_15  and  N_20 
REMARK    9  A    between atoms: N_20  and  C_21 
ROOT
HETATM    1  N   UNK N   1      33.304  14.814  10.745  0.00  0.00    -0.225 N 
HETATM    2  C   UNK N   1      34.538  14.454  11.337  0.00  0.00     0.687 C 
HETATM    3  N   UNK N   1      35.554  15.252  11.340  0.00  0.00    -0.126 N 
ATOM      4  HN  UNK N   1      36.408  14.899  11.774  1.00  0.00     0.197 HD
HETATM    5  C   UNK N   1      35.611  16.532  10.819  0.00  0.00     0.196 C 
HETATM    6  N   UNK N   1      35.727  17.604  10.406  0.00  0.00    -0.171 NA
HETATM    7  N   UNK N   1      34.616  13.222  12.042  0.00  0.00    -0.191 N 
HETATM    8  H   UNK N   1      32.553  15.080  11.322  0.00  0.00     0.177 HD
HETATM    9  H   UNK N   1      33.875  12.584  11.935  0.00  0.00     0.184 HD
ENDROOT
BRANCH   1  10
HETATM   10  C   UNK N   1      33.122  14.798   9.320  0.00  0.00     0.138 C 
BRANCH  10  11
HETATM   11  C   UNK N   1      33.310  13.382   8.819  0.00  0.00     0.020 C 
BRANCH  11  12
HETATM   12  C   UNK N   1      34.054  13.419   7.502  0.00  0.00     0.002 C 
BRANCH  12  13
HETATM   13  C   UNK N   1      35.393  14.103   7.715  0.00  0.00     0.002 C 
BRANCH  13  14
HETATM   14  C   UNK N   1      35.946  14.626   6.407  0.00  0.00     0.027 C 
BRANCH  14  15
HETATM   15  C   UNK N   1      34.821  15.005   5.487  0.00  0.00     0.175 C 
BRANCH  15  16
HETATM   16  O   UNK N   1      34.600  16.358   5.551  0.00  0.00    -0.351 OA
BRANCH  16  17
HETATM   17  C   UNK N   1      33.617  16.893   6.303  0.00  0.00     0.068 A 
HETATM   18  C   UNK N   1      32.266  16.538   6.123  0.00  0.00     0.038 A 
HETATM   19  C   UNK N   1      31.286  17.067   6.969  0.00  0.00     0.026 A 
HETATM   20  C   UNK N   1      31.653  17.935   8.003  0.00  0.00     0.034 A 
HETATM   21  C   UNK N   1      32.991  18.299   8.168  0.00  0.00     0.026 A 
HETATM   22 Cl   UNK N   1      30.448  18.551   9.110  0.00  0.00    -0.084 Cl
HETATM   23  C   UNK N   1      33.966  17.788   7.313  0.00  0.00     0.038 A 
ENDBRANCH  16  17
ENDBRANCH  15  16
ENDBRANCH  14  15
ENDBRANCH  13  14
ENDBRANCH  12  13
ENDBRANCH  11  12
ENDBRANCH  10  11
ENDBRANCH   1  10
BRANCH   7  24
HETATM   24  C   UNK N   1      35.696  12.850  12.892  0.00  0.00     0.051 A 
HETATM   25  C   UNK N   1      36.639  11.935  12.430  0.00  0.00     0.047 A 
HETATM   26  C   UNK N   1      37.683  11.540  13.271  0.00  0.00     0.090 A 
HETATM   27  N   UNK N   1      37.775  12.043  14.534  0.00  0.00    -0.375 N 
HETATM   28  C   UNK N   1      36.867  12.934  15.010  0.00  0.00     0.090 A 
ATOM     29  HN  UNK N   1      38.543  11.744  15.135  1.00  0.00     0.164 HD
HETATM   30  C   UNK N   1      35.814  13.346  14.200  0.00  0.00     0.047 A 
ENDBRANCH   7  24
TORSDOF 9
ENDMDL
MODEL 2
REMARK VINA RESULT:      -6.4      2.666      3.644
REMARK  9 active torsions:
REMARK  status: ('A' for Active; 'I' for Inactive)
REMARK    1  A    between atoms: C_6  and  O_7 
REMARK    2  A    between atoms: O_7  and  C_8 
REMARK    3  A    between atoms: C_8  and  C_9 
REMARK    4  A    between atoms: C_9  and  C_10 
REMARK    5  A    between atoms: C_10  and  C_11 
REMARK    6  A    between atoms: C_11  and  C_12 
REMARK    7  A    between atoms: C_12  and  C_13 
REMARK    8  A    between atoms: C_13  and  N_14 
REMARK       I    between atoms: N_14  and  C_15 
REMARK       I    between atoms: C_15  and  N_20 
REMARK    9  A    between atoms: N_20  and  C_21 
ROOT
HETATM    1  N   UNK N   1      33.142  14.931  10.595  0.00  0.00    -0.225 N 
HETATM    2  C   UNK N   1      34.379  14.566  11.178  0.00  0.00     0.687 C 
HETATM    3  N   UNK N   1      35.406  15.350  11.153  0.00  0.00    -0.126 N 
ATOM      4  HN  UNK N   1      36.261  14.994  11.581  1.00  0.00     0.197 HD
HETATM    5  C   UNK N   1      35.471  16.619  10.608  0.00  0.00     0.196 C 
HETATM    6  N   UNK N   1      35.596  17.682  10.174  0.00  0.00    -0.171 NA
HETATM    7  N   UNK N   1      34.451  13.345  11.903  0.00  0.00    -0.191 N 
HETATM    8  H   UNK N   1      32.402  15.217  11.178  0.00  0.00     0.177 HD
HETATM    9  H   UNK N   1      33.700  12.715  11.818  0.00  0.00     0.184 HD
ENDROOT
BRANCH   1  10
HETATM   10  C   UNK N   1      32.940  14.892   9.173  0.00  0.00     0.138 C 
BRANCH  10  11
HETATM   11  C   UNK N   1      31.884  15.912   8.803  0.00  0.00     0.020 C 
BRANCH  11  12
HETATM   12  C   UNK N   1      32.564  17.157   8.276  0.00  0.00     0.002 C 
BRANCH  12  13
HETATM   13  C   UNK N   1      32.338  17.241   6.776  0.00  0.00     0.002 C 
BRANCH  13  14
HETATM   14  C   UNK N   1      31.139  16.416   6.364  0.00  0.00     0.027 C 
BRANCH  14  15
HETATM   15  C   UNK N   1      30.644  16.863   5.018  0.00  0.00     0.175 C 
BRANCH  15  16
HETATM   16  O   UNK N   1      29.279  17.004   5.044  0.00  0.00    -0.351 OA
BRANCH  16  17
HETATM   17  C   UNK N   1      28.680  18.146   5.438  0.00  0.00     0.068 A 
HETATM   18  C   UNK N   1      28.199  19.091   4.511  0.00  0.00     0.038 A 
HETATM   19  C   UNK N   1      27.524  20.230   4.961  0.00  0.00     0.026 A 
HETATM   20  C   UNK N   1      27.316  20.420   6.331  0.00  0.00     0.034 A 
HETATM   21  C   UNK N   1      27.809  19.491   7.249  0.00  0.00     0.026 A 
HETATM   22 Cl   UNK N   1      26.416  21.805   6.905  0.00  0.00    -0.084 Cl
HETATM   23  C   UNK N   1      28.498  18.364   6.802  0.00  0.00     0.038 A 
ENDBRANCH  16  17
ENDBRANCH  15  16
ENDBRANCH  14  15
ENDBRANCH  13  14
ENDBRANCH  12  13
ENDBRANCH  11  12
ENDBRANCH  10  11
ENDBRANCH   1  10
BRANCH   7  24
HETATM   24  C   UNK N   1      35.537  12.974  12.746  0.00  0.00     0.051 A 
HETATM   25  C   UNK N   1      35.632  13.534  14.017  0.00  0.00     0.047 A 
HETATM   26  C   UNK N   1      36.713  13.199  14.837  0.00  0.00     0.090 A 
HETATM   27  N   UNK N   1      37.667  12.333  14.395  0.00  0.00    -0.375 N 
HETATM   28  C   UNK N   1      37.599  11.775  13.159  0.00  0.00     0.090 A 
ATOM     29  HN  UNK N   1      38.450  12.100  15.006  1.00  0.00     0.164 HD
HETATM   30  C   UNK N   1      36.538  12.088  12.317  0.00  0.00     0.047 A 
ENDBRANCH   7  24
TORSDOF 9
ENDMDL
MODEL 3
REMARK VINA RESULT:      -6.1      4.301      9.005
REMARK  9 active torsions:
REMARK  status: ('A' for Active; 'I' for Inactive)
REMARK    1  A    between atoms: C_6  and  O_7 
REMARK    2  A    between atoms: O_7  and  C_8 
REMARK    3  A    between atoms: C_8  and  C_9 
REMARK    4  A    between atoms: C_9  and  C_10 
REMARK    5  A    between atoms: C_10  and  C_11 
REMARK    6  A    between atoms: C_11  and  C_12 
REMARK    7  A    between atoms: C_12  and  C_13 
REMARK    8  A    between atoms: C_13  and  N_14 
REMARK       I    between atoms: N_14  and  C_15 
REMARK       I    between atoms: C_15  and  N_20 
REMARK    9  A    between atoms: N_20  and  C_21 
ROOT
HETATM    1  N   UNK N   1      33.369  15.663   8.350  0.00  0.00    -0.225 N 
HETATM    2  C   UNK N   1      32.368  16.663   8.307  0.00  0.00     0.687 C 
HETATM    3  N   UNK N   1      32.658  17.921   8.277  0.00  0.00    -0.126 N 
ATOM      4  HN  UNK N   1      31.871  18.570   8.267  1.00  0.00     0.197 HD
HETATM    5  C   UNK N   1      33.921  18.485   8.256  0.00  0.00     0.196 C 
HETATM    6  N   UNK N   1      34.944  19.021   8.238  0.00  0.00    -0.171 NA
HETATM    7  N   UNK N   1      31.011  16.257   8.185  0.00  0.00    -0.191 N 
HETATM    8  H   UNK N   1      33.579  15.159   7.531  0.00  0.00     0.177 HD
HETATM    9  H   UNK N   1      30.802  15.305   8.321  0.00  0.00     0.184 HD
ENDROOT
BRANCH   1  10
HETATM   10  C   UNK N   1      34.085  15.367   9.559  0.00  0.00     0.138 C 
BRANCH  10  11
HETATM   11  C   UNK N   1      35.458  14.842   9.197  0.00  0.00     0.020 C 
BRANCH  11  12
HETATM   12  C   UNK N   1      36.424  15.178  10.312  0.00  0.00     0.002 C 
BRANCH  12  13
HETATM   13  C   UNK N   1      36.714  13.916  11.106  0.00  0.00     0.002 C 
BRANCH  13  14
HETATM   14  C   UNK N   1      36.374  14.109  12.568  0.00  0.00     0.027 C 
BRANCH  14  15
HETATM   15  C   UNK N   1      35.302  13.141  12.980  0.00  0.00     0.175 C 
BRANCH  15  16
HETATM   16  O   UNK N   1      34.840  13.459  14.231  0.00  0.00    -0.351 OA
BRANCH  16  17
HETATM   17  C   UNK N   1      35.201  12.766  15.331  0.00  0.00     0.068 A 
HETATM   18  C   UNK N   1      34.818  13.171  16.624  0.00  0.00     0.038 A 
HETATM   19  C   UNK N   1      35.157  12.386  17.731  0.00  0.00     0.026 A 
HETATM   20  C   UNK N   1      35.862  11.192  17.548  0.00  0.00     0.034 A 
HETATM   21  C   UNK N   1      36.255  10.802  16.267  0.00  0.00     0.026 A 
HETATM   22 Cl   UNK N   1      36.235  10.168  18.915  0.00  0.00    -0.084 Cl
HETATM   23  C   UNK N   1      35.934  11.592  15.165  0.00  0.00     0.038 A 
ENDBRANCH  16  17
ENDBRANCH  15  16
ENDBRANCH  14  15
ENDBRANCH  13  14
ENDBRANCH  12  13
ENDBRANCH  11  12
ENDBRANCH  10  11
ENDBRANCH   1  10
BRANCH   7  24
HETATM   24  C   UNK N   1      29.934  17.136   7.878  0.00  0.00     0.051 A 
HETATM   25  C   UNK N   1      29.604  17.365   6.545  0.00  0.00     0.047 A 
HETATM   26  C   UNK N   1      28.569  18.252   6.236  0.00  0.00     0.090 A 
HETATM   27  N   UNK N   1      27.890  18.888   7.230  0.00  0.00    -0.375 N 
HETATM   28  C   UNK N   1      28.193  18.684   8.538  0.00  0.00     0.090 A 
ATOM     29  HN  UNK N   1      27.137  19.533   6.987  1.00  0.00     0.164 HD
HETATM   30  C   UNK N   1      29.219  17.810   8.881  0.00  0.00     0.047 A 
ENDBRANCH   7  24
TORSDOF 9
ENDMDL
MODEL 4
REMARK VINA RESULT:      -5.9      4.360      9.333
REMARK  9 active torsions:
REMARK  status: ('A' for Active; 'I' for Inactive)
REMARK    1  A    between atoms: C_6  and  O_7 
REMARK    2  A    between atoms: O_7  and  C_8 
REMARK    3  A    between atoms: C_8  and  C_9 
REMARK    4  A    between atoms: C_9  and  C_10 
REMARK    5  A    between atoms: C_10  and  C_11 
REMARK    6  A    between atoms: C_11  and  C_12 
REMARK    7  A    between atoms: C_12  and  C_13 
REMARK    8  A    between atoms: C_13  and  N_14 
REMARK       I    between atoms: N_14  and  C_15 
REMARK       I    between atoms: C_15  and  N_20 
REMARK    9  A    between atoms: N_20  and  C_21 
ROOT
HETATM    1  N   UNK N   1      34.036  15.579   8.331  0.00  0.00    -0.225 N 
HETATM    2  C   UNK N   1      33.084  16.432   7.726  0.00  0.00     0.687 C 
HETATM    3  N   UNK N   1      33.252  17.712   7.664  0.00  0.00    -0.126 N 
ATOM      4  HN  UNK N   1      32.502  18.249   7.227  1.00  0.00     0.197 HD
HETATM    5  C   UNK N   1      34.338  18.433   8.128  0.00  0.00     0.196 C 
HETATM    6  N   UNK N   1      35.211  19.095   8.491  0.00  0.00    -0.171 NA
HETATM    7  N   UNK N   1      31.966  15.844   7.074  0.00  0.00    -0.191 N 
HETATM    8  H   UNK N   1      34.633  15.044   7.759  0.00  0.00     0.177 HD
HETATM    9  H   UNK N   1      31.797  14.886   7.225  0.00  0.00     0.184 HD
ENDROOT
BRANCH   1  10
HETATM   10  C   UNK N   1      34.153  15.474   9.759  0.00  0.00     0.138 C 
BRANCH  10  11
HETATM   11  C   UNK N   1      35.617  15.548  10.136  0.00  0.00     0.020 C 
BRANCH  11  12
HETATM   12  C   UNK N   1      35.732  15.793  11.624  0.00  0.00     0.002 C 
BRANCH  12  13
HETATM   13  C   UNK N   1      35.448  14.494  12.358  0.00  0.00     0.002 C 
BRANCH  13  14
HETATM   14  C   UNK N   1      36.416  14.299  13.504  0.00  0.00     0.027 C 
BRANCH  14  15
HETATM   15  C   UNK N   1      36.535  12.838  13.835  0.00  0.00     0.175 C 
BRANCH  15  16
HETATM   16  O   UNK N   1      35.379  12.397  14.428  0.00  0.00    -0.351 OA
BRANCH  16  17
HETATM   17  C   UNK N   1      35.305  12.116  15.745  0.00  0.00     0.068 A 
HETATM   18  C   UNK N   1      35.470  10.807  16.236  0.00  0.00     0.038 A 
HETATM   19  C   UNK N   1      35.453  10.570  17.614  0.00  0.00     0.026 A 
HETATM   20  C   UNK N   1      35.289  11.639  18.502  0.00  0.00     0.034 A 
HETATM   21  C   UNK N   1      35.109  12.933  18.012  0.00  0.00     0.026 A 
HETATM   22 Cl   UNK N   1      35.333  11.368  20.229  0.00  0.00    -0.084 Cl
HETATM   23  C   UNK N   1      35.106  13.168  16.638  0.00  0.00     0.038 A 
ENDBRANCH  16  17
ENDBRANCH  15  16
ENDBRANCH  14  15
ENDBRANCH  13  14
ENDBRANCH  12  13
ENDBRANCH  11  12
ENDBRANCH  10  11
ENDBRANCH   1  10
BRANCH   7  24
HETATM   24  C   UNK N   1      31.074  16.547   6.216  0.00  0.00     0.051 A 
HETATM   25  C   UNK N   1      31.393  16.680   4.866  0.00  0.00     0.047 A 
HETATM   26  C   UNK N   1      30.539  17.397   4.025  0.00  0.00     0.090 A 
HETATM   27  N   UNK N   1      29.403  17.964   4.521  0.00  0.00    -0.375 N 
HETATM   28  C   UNK N   1      29.070  17.851   5.832  0.00  0.00     0.090 A 
ATOM     29  HN  UNK N   1      28.791  18.484   3.893  1.00  0.00     0.164 HD
HETATM   30  C   UNK N   1      29.899  17.146   6.698  0.00  0.00     0.047 A 
ENDBRANCH   7  24
TORSDOF 9
ENDMDL
MODEL 5
REMARK VINA RESULT:      -5.8      2.744      3.722
REMARK  9 active torsions:
REMARK  status: ('A' for Active; 'I' for Inactive)
REMARK    1  A    between atoms: C_6  and  O_7 
REMARK    2  A    between atoms: O_7  and  C_8 
REMARK    3  A    between atoms: C_8  and  C_9 
REMARK    4  A    between atoms: C_9  and  C_10 
REMARK    5  A    between atoms: C_10  and  C_11 
REMARK    6  A    between atoms: C_11  and  C_12 
REMARK    7  A    between atoms: C_12  and  C_13 
REMARK    8  A    between atoms: C_13  and  N_14 
REMARK       I    between atoms: N_14  and  C_15 
REMARK       I    between atoms: C_15  and  N_20 
REMARK    9  A    between atoms: N_20  and  C_21 
ROOT
HETATM    1  N   UNK N   1      33.127  14.923  10.598  0.00  0.00    -0.225 N 
HETATM    2  C   UNK N   1      34.366  14.555  11.174  0.00  0.00     0.687 C 
HETATM    3  N   UNK N   1      35.395  15.336  11.145  0.00  0.00    -0.126 N 
ATOM      4  HN  UNK N   1      36.251  14.978  11.569  1.00  0.00     0.197 HD
HETATM    5  C   UNK N   1      35.460  16.607  10.601  0.00  0.00     0.196 C 
HETATM    6  N   UNK N   1      35.585  17.669  10.168  0.00  0.00    -0.171 NA
HETATM    7  N   UNK N   1      34.439  13.333  11.898  0.00  0.00    -0.191 N 
HETATM    8  H   UNK N   1      32.391  15.211  11.185  0.00  0.00     0.177 HD
HETATM    9  H   UNK N   1      33.686  12.705  11.816  0.00  0.00     0.184 HD
ENDROOT
BRANCH   1  10
HETATM   10  C   UNK N   1      32.918  14.887   9.177  0.00  0.00     0.138 C 
BRANCH  10  11
HETATM   11  C   UNK N   1      31.888  15.933   8.808  0.00  0.00     0.020 C 
BRANCH  11  12
HETATM   12  C   UNK N   1      32.590  17.116   8.179  0.00  0.00     0.002 C 
BRANCH  12  13
HETATM   13  C   UNK N   1      32.155  17.228   6.728  0.00  0.00     0.002 C 
BRANCH  13  14
HETATM   14  C   UNK N   1      33.355  17.330   5.812  0.00  0.00     0.027 C 
BRANCH  14  15
HETATM   15  C   UNK N   1      32.905  17.589   4.401  0.00  0.00     0.175 C 
BRANCH  15  16
HETATM   16  O   UNK N   1      32.953  16.427   3.674  0.00  0.00    -0.351 OA
BRANCH  16  17
HETATM   17  C   UNK N   1      31.838  15.781   3.274  0.00  0.00     0.068 A 
HETATM   18  C   UNK N   1      31.805  14.381   3.124  0.00  0.00     0.038 A 
HETATM   19  C   UNK N   1      30.609  13.745   2.772  0.00  0.00     0.026 A 
HETATM   20  C   UNK N   1      29.447  14.501   2.586  0.00  0.00     0.034 A 
HETATM   21  C   UNK N   1      29.488  15.889   2.719  0.00  0.00     0.026 A 
HETATM   22 Cl   UNK N   1      27.932  13.713   2.212  0.00  0.00    -0.084 Cl
HETATM   23  C   UNK N   1      30.682  16.526   3.051  0.00  0.00     0.038 A 
ENDBRANCH  16  17
ENDBRANCH  15  16
ENDBRANCH  14  15
ENDBRANCH  13  14
ENDBRANCH  12  13
ENDBRANCH  11  12
ENDBRANCH  10  11
ENDBRANCH   1  10
BRANCH   7  24
HETATM   24  C   UNK N   1      35.528  12.958  12.735  0.00  0.00     0.051 A 
HETATM   25  C   UNK N   1      35.640  13.530  14.000  0.00  0.00     0.047 A 
HETATM   26  C   UNK N   1      36.724  13.191  14.814  0.00  0.00     0.090 A 
HETATM   27  N   UNK N   1      37.666  12.312  14.372  0.00  0.00    -0.375 N 
HETATM   28  C   UNK N   1      37.582  11.742  13.143  0.00  0.00     0.090 A 
ATOM     29  HN  UNK N   1      38.451  12.076  14.979  1.00  0.00     0.164 HD
HETATM   30  C   UNK N   1      36.517  12.059  12.306  0.00  0.00     0.047 A 
ENDBRANCH   7  24
TORSDOF 9
ENDMDL
MODEL 6
REMARK VINA RESULT:      -5.7      4.428      9.178
REMARK  9 active torsions:
REMARK  status: ('A' for Active; 'I' for Inactive)
REMARK    1  A    between atoms: C_6  and  O_7 
REMARK    2  A    between atoms: O_7  and  C_8 
REMARK    3  A    between atoms: C_8  and  C_9 
REMARK    4  A    between atoms: C_9  and  C_10 
REMARK    5  A    between atoms: C_10  and  C_11 
REMARK    6  A    between atoms: C_11  and  C_12 
REMARK    7  A    between atoms: C_12  and  C_13 
REMARK    8  A    between atoms: C_13  and  N_14 
REMARK       I    between atoms: N_14  and  C_15 
REMARK       I    between atoms: C_15  and  N_20 
REMARK    9  A    between atoms: N_20  and  C_21 
ROOT
HETATM    1  N   UNK N   1      33.178  15.966   9.160  0.00  0.00    -0.225 N 
HETATM    2  C   UNK N   1      32.209  16.765   8.508  0.00  0.00     0.687 C 
HETATM    3  N   UNK N   1      32.441  17.330   7.369  0.00  0.00    -0.126 N 
ATOM      4  HN  UNK N   1      31.690  17.903   6.984  1.00  0.00     0.197 HD
HETATM    5  C   UNK N   1      33.597  17.241   6.615  0.00  0.00     0.196 C 
HETATM    6  N   UNK N   1      34.531  17.211   5.936  0.00  0.00    -0.171 NA
HETATM    7  N   UNK N   1      30.910  16.853   9.078  0.00  0.00    -0.191 N 
HETATM    8  H   UNK N   1      33.087  14.987   9.138  0.00  0.00     0.177 HD
HETATM    9  H   UNK N   1      30.786  16.512   9.993  0.00  0.00     0.184 HD
ENDROOT
BRANCH   1  10
HETATM   10  C   UNK N   1      34.292  16.552   9.854  0.00  0.00     0.138 C 
BRANCH  10  11
HETATM   11  C   UNK N   1      35.407  15.531   9.935  0.00  0.00     0.020 C 
BRANCH  11  12
HETATM   12  C   UNK N   1      35.877  15.427  11.369  0.00  0.00     0.002 C 
BRANCH  12  13
HETATM   13  C   UNK N   1      36.274  13.988  11.651  0.00  0.00     0.002 C 
BRANCH  13  14
HETATM   14  C   UNK N   1      35.061  13.152  11.997  0.00  0.00     0.027 C 
BRANCH  14  15
HETATM   15  C   UNK N   1      35.315  12.373  13.256  0.00  0.00     0.175 C 
BRANCH  15  16
HETATM   16  O   UNK N   1      34.879  13.085  14.344  0.00  0.00    -0.351 OA
BRANCH  16  17
HETATM   17  C   UNK N   1      34.940  12.594  15.599  0.00  0.00     0.068 A 
HETATM   18  C   UNK N   1      34.977  11.210  15.854  0.00  0.00     0.038 A 
HETATM   19  C   UNK N   1      35.108  10.745  17.167  0.00  0.00     0.026 A 
HETATM   20  C   UNK N   1      35.217  11.658  18.221  0.00  0.00     0.034 A 
HETATM   21  C   UNK N   1      35.162  13.029  17.967  0.00  0.00     0.026 A 
HETATM   22 Cl   UNK N   1      35.447  11.093  19.860  0.00  0.00    -0.084 Cl
HETATM   23  C   UNK N   1      35.013  13.494  16.661  0.00  0.00     0.038 A 
ENDBRANCH  16  17
ENDBRANCH  15  16
ENDBRANCH  14  15
ENDBRANCH  13  14
ENDBRANCH  12  13
ENDBRANCH  11  12
ENDBRANCH  10  11
ENDBRANCH   1  10
BRANCH   7  24
HETATM   24  C   UNK N   1      29.776  17.401   8.414  0.00  0.00     0.051 A 
HETATM   25  C   UNK N   1      29.170  18.541   8.936  0.00  0.00     0.047 A 
HETATM   26  C   UNK N   1      28.036  19.065   8.308  0.00  0.00     0.090 A 
HETATM   27  N   UNK N   1      27.527  18.464   7.197  0.00  0.00    -0.375 N 
HETATM   28  C   UNK N   1      28.098  17.350   6.670  0.00  0.00     0.090 A 
ATOM     29  HN  UNK N   1      26.699  18.859   6.751  1.00  0.00     0.164 HD
HETATM   30  C   UNK N   1      29.225  16.801   7.271  0.00  0.00     0.047 A 
ENDBRANCH   7  24
TORSDOF 9
ENDMDL
MODEL 7
REMARK VINA RESULT:      -5.7     16.064     19.539
REMARK  9 active torsions:
REMARK  status: ('A' for Active; 'I' for Inactive)
REMARK    1  A    between atoms: C_6  and  O_7 
REMARK    2  A    between atoms: O_7  and  C_8 
REMARK    3  A    between atoms: C_8  and  C_9 
REMARK    4  A    between atoms: C_9  and  C_10 
REMARK    5  A    between atoms: C_10  and  C_11 
REMARK    6  A    between atoms: C_11  and  C_12 
REMARK    7  A    between atoms: C_12  and  C_13 
REMARK    8  A    between atoms: C_13  and  N_14 
REMARK       I    between atoms: N_14  and  C_15 
REMARK       I    between atoms: C_15  and  N_20 
REMARK    9  A    between atoms: N_20  and  C_21 
ROOT
HETATM    1  N   UNK N   1      29.071  26.762  -5.468  0.00  0.00    -0.225 N 
HETATM    2  C   UNK N   1      29.928  25.665  -5.213  0.00  0.00     0.687 C 
HETATM    3  N   UNK N   1      31.206  25.809  -5.090  0.00  0.00    -0.126 N 
ATOM      4  HN  UNK N   1      31.746  24.958  -4.927  1.00  0.00     0.197 HD
HETATM    5  C   UNK N   1      31.921  26.991  -5.155  0.00  0.00     0.196 C 
HETATM    6  N   UNK N   1      32.579  27.938  -5.198  0.00  0.00    -0.171 NA
HETATM    7  N   UNK N   1      29.343  24.390  -4.980  0.00  0.00    -0.191 N 
HETATM    8  H   UNK N   1      28.529  27.129  -4.732  0.00  0.00     0.177 HD
HETATM    9  H   UNK N   1      28.388  24.278  -5.187  0.00  0.00     0.184 HD
ENDROOT
BRANCH   1  10
HETATM   10  C   UNK N   1      28.973  27.352  -6.774  0.00  0.00     0.138 C 
BRANCH  10  11
HETATM   11  C   UNK N   1      28.345  28.724  -6.644  0.00  0.00     0.020 C 
BRANCH  11  12
HETATM   12  C   UNK N   1      28.594  29.250  -5.247  0.00  0.00     0.002 C 
BRANCH  12  13
HETATM   13  C   UNK N   1      27.934  30.612  -5.112  0.00  0.00     0.002 C 
BRANCH  13  14
HETATM   14  C   UNK N   1      26.743  30.545  -4.182  0.00  0.00     0.027 C 
BRANCH  14  15
HETATM   15  C   UNK N   1      26.920  29.423  -3.198  0.00  0.00     0.175 C 
BRANCH  15  16
HETATM   16  O   UNK N   1      25.833  28.589  -3.238  0.00  0.00    -0.351 OA
BRANCH  16  17
HETATM   17  C   UNK N   1      25.861  27.398  -3.871  0.00  0.00     0.068 A 
HETATM   18  C   UNK N   1      26.393  26.245  -3.262  0.00  0.00     0.038 A 
HETATM   19  C   UNK N   1      26.341  25.016  -3.928  0.00  0.00     0.026 A 
HETATM   20  C   UNK N   1      25.746  24.933  -5.191  0.00  0.00     0.034 A 
HETATM   21  C   UNK N   1      25.234  26.081  -5.799  0.00  0.00     0.026 A 
HETATM   22 Cl   UNK N   1      25.614  23.393  -6.007  0.00  0.00    -0.084 Cl
HETATM   23  C   UNK N   1      25.303  27.310  -5.145  0.00  0.00     0.038 A 
ENDBRANCH  16  17
ENDBRANCH  15  16
ENDBRANCH  14  15
ENDBRANCH  13  14
ENDBRANCH  12  13
ENDBRANCH  11  12
ENDBRANCH  10  11
ENDBRANCH   1  10
BRANCH   7  24
HETATM   24  C   UNK N   1      30.049  23.264  -4.468  0.00  0.00     0.051 A 
HETATM   25  C   UNK N   1      30.152  22.115  -5.249  0.00  0.00     0.047 A 
HETATM   26  C   UNK N   1      30.814  20.995  -4.739  0.00  0.00     0.090 A 
HETATM   27  N   UNK N   1      31.352  21.026  -3.488  0.00  0.00    -0.375 N 
HETATM   28  C   UNK N   1      31.263  22.132  -2.706  0.00  0.00     0.090 A 
ATOM     29  HN  UNK N   1      31.832  20.199  -3.132  1.00  0.00     0.164 HD
HETATM   30  C   UNK N   1      30.609  23.264  -3.181  0.00  0.00     0.047 A 
ENDBRANCH   7  24
TORSDOF 9
ENDMDL
MODEL 8
REMARK VINA RESULT:      -5.5      2.050      3.056
REMARK  9 active torsions:
REMARK  status: ('A' for Active; 'I' for Inactive)
REMARK    1  A    between atoms: C_6  and  O_7 
REMARK    2  A    between atoms: O_7  and  C_8 
REMARK    3  A    between atoms: C_8  and  C_9 
REMARK    4  A    between atoms: C_9  and  C_10 
REMARK    5  A    between atoms: C_10  and  C_11 
REMARK    6  A    between atoms: C_11  and  C_12 
REMARK    7  A    between atoms: C_12  and  C_13 
REMARK    8  A    between atoms: C_13  and  N_14 
REMARK       I    between atoms: N_14  and  C_15 
REMARK       I    between atoms: C_15  and  N_20 
REMARK    9  A    between atoms: N_20  and  C_21 
ROOT
HETATM    1  N   UNK N   1      36.641  13.077  11.761  0.00  0.00    -0.225 N 
HETATM    2  C   UNK N   1      36.595  13.885  12.922  0.00  0.00     0.687 C 
HETATM    3  N   UNK N   1      36.187  15.110  12.888  0.00  0.00    -0.126 N 
ATOM      4  HN  UNK N   1      36.207  15.621  13.771  1.00  0.00     0.197 HD
HETATM    5  C   UNK N   1      35.726  15.805  11.785  0.00  0.00     0.196 C 
HETATM    6  N   UNK N   1      35.331  16.442  10.906  0.00  0.00    -0.171 NA
HETATM    7  N   UNK N   1      36.905  13.288  14.174  0.00  0.00    -0.191 N 
HETATM    8  H   UNK N   1      35.946  12.394  11.624  0.00  0.00     0.177 HD
HETATM    9  H   UNK N   1      37.318  12.394  14.168  0.00  0.00     0.184 HD
ENDROOT
BRANCH   1  10
HETATM   10  C   UNK N   1      37.678  13.231  10.779  0.00  0.00     0.138 C 
BRANCH  10  11
HETATM   11  C   UNK N   1      37.135  12.819   9.427  0.00  0.00     0.020 C 
BRANCH  11  12
HETATM   12  C   UNK N   1      36.826  14.060   8.620  0.00  0.00     0.002 C 
BRANCH  12  13
HETATM   13  C   UNK N   1      35.442  13.916   8.011  0.00  0.00     0.002 C 
BRANCH  13  14
HETATM   14  C   UNK N   1      35.353  14.654   6.693  0.00  0.00     0.027 C 
BRANCH  14  15
HETATM   15  C   UNK N   1      33.961  15.183   6.491  0.00  0.00     0.175 C 
BRANCH  15  16
HETATM   16  O   UNK N   1      33.453  15.628   7.685  0.00  0.00    -0.351 OA
BRANCH  16  17
HETATM   17  C   UNK N   1      32.291  16.309   7.764  0.00  0.00     0.068 A 
HETATM   18  C   UNK N   1      32.110  17.369   8.674  0.00  0.00     0.038 A 
HETATM   19  C   UNK N   1      30.913  18.091   8.676  0.00  0.00     0.026 A 
HETATM   20  C   UNK N   1      29.903  17.768   7.763  0.00  0.00     0.034 A 
HETATM   21  C   UNK N   1      30.077  16.706   6.875  0.00  0.00     0.026 A 
HETATM   22 Cl   UNK N   1      28.427  18.704   7.710  0.00  0.00    -0.084 Cl
HETATM   23  C   UNK N   1      31.263  15.973   6.884  0.00  0.00     0.038 A 
ENDBRANCH  16  17
ENDBRANCH  15  16
ENDBRANCH  14  15
ENDBRANCH  13  14
ENDBRANCH  12  13
ENDBRANCH  11  12
ENDBRANCH  10  11
ENDBRANCH   1  10
BRANCH   7  24
HETATM   24  C   UNK N   1      36.659  13.896  15.438  0.00  0.00     0.051 A 
HETATM   25  C   UNK N   1      35.728  13.319  16.299  0.00  0.00     0.047 A 
HETATM   26  C   UNK N   1      35.457  13.929  17.527  0.00  0.00     0.090 A 
HETATM   27  N   UNK N   1      36.098  15.079  17.878  0.00  0.00    -0.375 N 
HETATM   28  C   UNK N   1      37.008  15.662  17.057  0.00  0.00     0.090 A 
ATOM     29  HN  UNK N   1      35.888  15.511  18.778  1.00  0.00     0.164 HD
HETATM   30  C   UNK N   1      37.299  15.083  15.827  0.00  0.00     0.047 A 
ENDBRANCH   7  24
TORSDOF 9
ENDMDL
MODEL 9
REMARK VINA RESULT:      -5.5      7.177     10.616
REMARK  9 active torsions:
REMARK  status: ('A' for Active; 'I' for Inactive)
REMARK    1  A    between atoms: C_6  and  O_7 
REMARK    2  A    between atoms: O_7  and  C_8 
REMARK    3  A    between atoms: C_8  and  C_9 
REMARK    4  A    between atoms: C_9  and  C_10 
REMARK    5  A    between atoms: C_10  and  C_11 
REMARK    6  A    between atoms: C_11  and  C_12 
REMARK    7  A    between atoms: C_12  and  C_13 
REMARK    8  A    between atoms: C_13  and  N_14 
REMARK       I    between atoms: N_14  and  C_15 
REMARK       I    between atoms: C_15  and  N_20 
REMARK    9  A    between atoms: N_20  and  C_21 
ROOT
HETATM    1  N   UNK N   1      27.823  19.391   3.942  0.00  0.00    -0.225 N 
HETATM    2  C   UNK N   1      26.812  18.421   3.745  0.00  0.00     0.687 C 
HETATM    3  N   UNK N   1      25.663  18.723   3.236  0.00  0.00    -0.126 N 
ATOM      4  HN  UNK N   1      24.989  17.962   3.150  1.00  0.00     0.197 HD
HETATM    5  C   UNK N   1      25.248  19.966   2.795  0.00  0.00     0.196 C 
HETATM    6  N   UNK N   1      24.838  20.974   2.409  0.00  0.00    -0.171 NA
HETATM    7  N   UNK N   1      27.117  17.060   4.018  0.00  0.00    -0.191 N 
HETATM    8  H   UNK N   1      28.585  19.423   3.320  0.00  0.00     0.177 HD
HETATM    9  H   UNK N   1      27.950  16.865   4.505  0.00  0.00     0.184 HD
ENDROOT
BRANCH   1  10
HETATM   10  C   UNK N   1      27.764  20.329   5.027  0.00  0.00     0.138 C 
BRANCH  10  11
HETATM   11  C   UNK N   1      27.217  19.626   6.252  0.00  0.00     0.020 C 
BRANCH  11  12
HETATM   12  C   UNK N   1      28.185  19.810   7.400  0.00  0.00     0.002 C 
BRANCH  12  13
HETATM   13  C   UNK N   1      28.199  18.542   8.237  0.00  0.00     0.002 C 
BRANCH  13  14
HETATM   14  C   UNK N   1      29.397  18.518   9.160  0.00  0.00     0.027 C 
BRANCH  14  15
HETATM   15  C   UNK N   1      30.101  17.195   9.056  0.00  0.00     0.175 C 
BRANCH  15  16
HETATM   16  O   UNK N   1      31.402  17.386   8.667  0.00  0.00    -0.351 OA
BRANCH  16  17
HETATM   17  C   UNK N   1      31.789  17.306   7.377  0.00  0.00     0.068 A 
HETATM   18  C   UNK N   1      33.098  17.630   6.971  0.00  0.00     0.038 A 
HETATM   19  C   UNK N   1      33.475  17.468   5.634  0.00  0.00     0.026 A 
HETATM   20  C   UNK N   1      32.554  16.969   4.707  0.00  0.00     0.034 A 
HETATM   21  C   UNK N   1      31.252  16.666   5.108  0.00  0.00     0.026 A 
HETATM   22 Cl   UNK N   1      33.031  16.699   3.046  0.00  0.00    -0.084 Cl
HETATM   23  C   UNK N   1      30.869  16.845   6.436  0.00  0.00     0.038 A 
ENDBRANCH  16  17
ENDBRANCH  15  16
ENDBRANCH  14  15
ENDBRANCH  13  14
ENDBRANCH  12  13
ENDBRANCH  11  12
ENDBRANCH  10  11
ENDBRANCH   1  10
BRANCH   7  24
HETATM   24  C   UNK N   1      26.300  15.959   3.632  0.00  0.00     0.051 A 
HETATM   25  C   UNK N   1      26.434  15.430   2.351  0.00  0.00     0.047 A 
HETATM   26  C   UNK N   1      25.613  14.372   1.955  0.00  0.00     0.090 A 
HETATM   27  N   UNK N   1      24.686  13.863   2.814  0.00  0.00    -0.375 N 
HETATM   28  C   UNK N   1      24.534  14.362   4.068  0.00  0.00     0.090 A 
ATOM     29  HN  UNK N   1      24.094  13.090   2.509  1.00  0.00     0.164 HD
HETATM   30  C   UNK N   1      25.333  15.417   4.493  0.00  0.00     0.047 A 
ENDBRANCH   7  24
TORSDOF 9
ENDMDL
