MODEL 1
REMARK VINA RESULT:      -6.1      0.000      0.000
REMARK  11 active torsions:
REMARK  status: ('A' for Active; 'I' for Inactive)
REMARK    1  A    between atoms: O_2  and  C_3 
REMARK    2  A    between atoms: C_6  and  C_16 
REMARK    3  A    between atoms: C_8  and  N_9 
REMARK       I    between atoms: N_9  and  C_10 
REMARK    4  A    between atoms: C_10  and  C_12 
REMARK    5  A    between atoms: C_12  and  C_13 
REMARK    6  A    between atoms: C_12  and  N_15 
REMARK    7  A    between atoms: C_13  and  O_14 
REMARK    8  A    between atoms: C_17  and  C_18 
REMARK    9  A    between atoms: C_20  and  O_28 
REMARK   10  A    between atoms: C_21  and  O_26 
REMARK   11  A    between atoms: C_22  and  O_24 
ROOT
HETATM    1  C   UNK N   1      21.477  14.282   8.495  0.00  0.00     0.095 C 
HETATM    2  C   UNK N   1      22.556  13.754   7.780  0.00  0.00     0.040 C 
HETATM    3  C   UNK N   1      22.588  13.852   6.398  0.00  0.00     0.014 C 
HETATM    4  C   UNK N   1      21.515  14.406   5.687  0.00  0.00    -0.034 C 
HETATM    5  C   UNK N   1      20.485  15.028   6.400  0.00  0.00     0.043 C 
HETATM    6  C   UNK N   1      20.478  14.984   7.806  0.00  0.00     0.069 C 
ENDROOT
BRANCH   4   7
HETATM    7  C   UNK N   1      21.413  14.257   4.211  0.00  0.00     0.012 C 
HETATM    8  C   UNK N   1      21.755  15.215   3.310  0.00  0.00     0.012 C 
BRANCH   8   9
HETATM    9  C   UNK N   1      22.475  16.474   3.644  0.00  0.00    -0.031 A 
HETATM   10  C   UNK N   1      23.856  16.448   3.788  0.00  0.00     0.051 A 
HETATM   11  C   UNK N   1      24.594  17.631   3.906  0.00  0.00     0.105 A 
HETATM   12  C   UNK N   1      23.929  18.893   3.837  0.00  0.00     0.135 A 
HETATM   13  C   UNK N   1      22.508  18.909   3.709  0.00  0.00     0.105 A 
HETATM   14  C   UNK N   1      21.812  17.705   3.664  0.00  0.00     0.051 A 
BRANCH  11  15
HETATM   15  O   UNK N   1      25.937  17.502   4.066  0.00  0.00    -0.353 OA
HETATM   16  C   UNK N   1      26.765  16.708   3.308  0.00  0.00     0.210 C 
ENDBRANCH  11  15
BRANCH  12  17
HETATM   17  O   UNK N   1      24.676  20.029   3.902  0.00  0.00    -0.351 OA
HETATM   18  C   UNK N   1      25.368  20.616   2.871  0.00  0.00     0.210 C 
ENDBRANCH  12  17
BRANCH  13  19
HETATM   19  O   UNK N   1      21.788  20.044   3.564  0.00  0.00    -0.353 OA
HETATM   20  C   UNK N   1      21.470  20.540   2.318  0.00  0.00     0.210 C 
ENDBRANCH  13  19
ENDBRANCH   8   9
ENDBRANCH   4   7
BRANCH   6  21
HETATM   21  N   UNK N   1      19.492  15.657   8.572  0.00  0.00    -0.323 N 
HETATM   22  C   UNK N   1      19.465  17.003   8.763  0.00  0.00     0.246 C 
HETATM   23  O   UNK N   1      20.298  17.726   8.243  0.00  0.00    -0.271 OA
HETATM   24  H   UNK N   1      18.785  15.117   8.991  0.00  0.00     0.169 HD
BRANCH  22  25
HETATM   25  C   UNK N   1      18.481  17.598   9.737  0.00  0.00     0.191 C 
BRANCH  25  26
HETATM   26  C   UNK N   1      17.028  17.487   9.284  0.00  0.00     0.198 C 
BRANCH  26  27
HETATM   27  O   UNK N   1      16.941  16.801   8.070  0.00  0.00    -0.398 OA
HETATM   28  H   UNK N   1      16.661  16.925   7.149  0.00  0.00     0.209 HD
ENDBRANCH  26  27
ENDBRANCH  25  26
BRANCH  25  29
HETATM   29  N   UNK N   1      18.808  18.989   9.987  0.00  0.00    -0.417 N 
HETATM   30  H   UNK N   1      19.216  19.784   9.496  0.00  0.00     0.150 HD
HETATM   31  H   UNK N   1      18.553  19.250  10.939  0.00  0.00     0.150 HD
ENDBRANCH  25  29
ENDBRANCH  22  25
ENDBRANCH   6  21
BRANCH   1  32
HETATM   32  O   UNK N   1      21.399  14.151   9.839  0.00  0.00    -0.354 OA
HETATM   33  C   UNK N   1      21.328  12.931  10.475  0.00  0.00     0.210 C 
ENDBRANCH   1  32
TORSDOF 11
ENDMDL
MODEL 2
REMARK VINA RESULT:      -6.0      3.176      5.269
REMARK  11 active torsions:
REMARK  status: ('A' for Active; 'I' for Inactive)
REMARK    1  A    between atoms: O_2  and  C_3 
REMARK    2  A    between atoms: C_6  and  C_16 
REMARK    3  A    between atoms: C_8  and  N_9 
REMARK       I    between atoms: N_9  and  C_10 
REMARK    4  A    between atoms: C_10  and  C_12 
REMARK    5  A    between atoms: C_12  and  C_13 
REMARK    6  A    between atoms: C_12  and  N_15 
REMARK    7  A    between atoms: C_13  and  O_14 
REMARK    8  A    between atoms: C_17  and  C_18 
REMARK    9  A    between atoms: C_20  and  O_28 
REMARK   10  A    between atoms: C_21  and  O_26 
REMARK   11  A    between atoms: C_22  and  O_24 
ROOT
HETATM    1  C   UNK N   1      21.379  16.175   5.396  0.00  0.00     0.095 C 
HETATM    2  C   UNK N   1      22.151  15.731   6.475  0.00  0.00     0.040 C 
HETATM    3  C   UNK N   1      23.477  15.382   6.282  0.00  0.00     0.014 C 
HETATM    4  C   UNK N   1      24.049  15.389   5.002  0.00  0.00    -0.034 C 
HETATM    5  C   UNK N   1      23.317  15.930   3.941  0.00  0.00     0.043 C 
HETATM    6  C   UNK N   1      21.987  16.343   4.144  0.00  0.00     0.069 C 
ENDROOT
BRANCH   4   7
HETATM    7  C   UNK N   1      25.368  14.750   4.746  0.00  0.00     0.012 C 
HETATM    8  C   UNK N   1      26.547  15.418   4.650  0.00  0.00     0.012 C 
BRANCH   8   9
HETATM    9  C   UNK N   1      26.737  16.855   4.990  0.00  0.00    -0.031 A 
HETATM   10  C   UNK N   1      27.338  17.192   6.195  0.00  0.00     0.051 A 
HETATM   11  C   UNK N   1      27.716  18.511   6.471  0.00  0.00     0.105 A 
HETATM   12  C   UNK N   1      27.520  19.527   5.486  0.00  0.00     0.135 A 
HETATM   13  C   UNK N   1      26.884  19.174   4.259  0.00  0.00     0.105 A 
HETATM   14  C   UNK N   1      26.465  17.862   4.060  0.00  0.00     0.051 A 
BRANCH  11  15
HETATM   15  O   UNK N   1      28.276  18.747   7.686  0.00  0.00    -0.353 OA
HETATM   16  C   UNK N   1      28.860  17.804   8.499  0.00  0.00     0.210 C 
ENDBRANCH  11  15
BRANCH  12  17
HETATM   17  O   UNK N   1      27.943  20.791   5.760  0.00  0.00    -0.351 OA
HETATM   18  C   UNK N   1      27.201  21.802   6.321  0.00  0.00     0.210 C 
ENDBRANCH  12  17
BRANCH  13  19
HETATM   19  O   UNK N   1      26.713  20.039   3.235  0.00  0.00    -0.353 OA
HETATM   20  C   UNK N   1      25.455  20.416   2.814  0.00  0.00     0.210 C 
ENDBRANCH  13  19
ENDBRANCH   8   9
ENDBRANCH   4   7
BRANCH   6  21
HETATM   21  N   UNK N   1      21.228  16.959   3.116  0.00  0.00    -0.323 N 
HETATM   22  C   UNK N   1      21.259  18.289   2.841  0.00  0.00     0.246 C 
HETATM   23  O   UNK N   1      21.988  19.042   3.467  0.00  0.00    -0.271 OA
HETATM   24  H   UNK N   1      20.644  16.388   2.568  0.00  0.00     0.169 HD
BRANCH  22  25
HETATM   25  C   UNK N   1      20.284  18.869   1.849  0.00  0.00     0.191 C 
BRANCH  25  26
HETATM   26  C   UNK N   1      20.619  20.296   1.423  0.00  0.00     0.198 C 
BRANCH  26  27
HETATM   27  O   UNK N   1      20.580  20.416   0.031  0.00  0.00    -0.398 OA
HETATM   28  H   UNK N   1      19.952  20.498  -0.704  0.00  0.00     0.209 HD
ENDBRANCH  26  27
ENDBRANCH  25  26
BRANCH  25  29
HETATM   29  N   UNK N   1      18.939  18.826   2.390  0.00  0.00    -0.417 N 
HETATM   30  H   UNK N   1      18.296  18.149   2.801  0.00  0.00     0.150 HD
HETATM   31  H   UNK N   1      18.506  19.748   2.346  0.00  0.00     0.150 HD
ENDBRANCH  25  29
ENDBRANCH  22  25
ENDBRANCH   6  21
BRANCH   1  32
HETATM   32  O   UNK N   1      20.068  16.471   5.551  0.00  0.00    -0.354 OA
HETATM   33  C   UNK N   1      19.060  15.554   5.349  0.00  0.00     0.210 C 
ENDBRANCH   1  32
TORSDOF 11
ENDMDL
MODEL 3
REMARK VINA RESULT:      -6.0      3.076      5.559
REMARK  11 active torsions:
REMARK  status: ('A' for Active; 'I' for Inactive)
REMARK    1  A    between atoms: O_2  and  C_3 
REMARK    2  A    between atoms: C_6  and  C_16 
REMARK    3  A    between atoms: C_8  and  N_9 
REMARK       I    between atoms: N_9  and  C_10 
REMARK    4  A    between atoms: C_10  and  C_12 
REMARK    5  A    between atoms: C_12  and  C_13 
REMARK    6  A    between atoms: C_12  and  N_15 
REMARK    7  A    between atoms: C_13  and  O_14 
REMARK    8  A    between atoms: C_17  and  C_18 
REMARK    9  A    between atoms: C_20  and  O_28 
REMARK   10  A    between atoms: C_21  and  O_26 
REMARK   11  A    between atoms: C_22  and  O_24 
ROOT
HETATM    1  C   UNK N   1      22.577  16.026   5.618  0.00  0.00     0.095 C 
HETATM    2  C   UNK N   1      23.564  15.525   6.471  0.00  0.00     0.040 C 
HETATM    3  C   UNK N   1      24.857  15.347   6.007  0.00  0.00     0.014 C 
HETATM    4  C   UNK N   1      25.184  15.587   4.665  0.00  0.00    -0.034 C 
HETATM    5  C   UNK N   1      24.230  16.185   3.836  0.00  0.00     0.043 C 
HETATM    6  C   UNK N   1      22.931  16.424   4.321  0.00  0.00     0.069 C 
ENDROOT
BRANCH   4   7
HETATM    7  C   UNK N   1      26.481  15.130   4.097  0.00  0.00     0.012 C 
HETATM    8  C   UNK N   1      27.581  15.914   3.952  0.00  0.00     0.012 C 
BRANCH   8   9
HETATM    9  C   UNK N   1      27.731  17.279   4.524  0.00  0.00    -0.031 A 
HETATM   10  C   UNK N   1      27.194  18.363   3.842  0.00  0.00     0.051 A 
HETATM   11  C   UNK N   1      27.135  19.631   4.429  0.00  0.00     0.105 A 
HETATM   12  C   UNK N   1      27.596  19.816   5.768  0.00  0.00     0.135 A 
HETATM   13  C   UNK N   1      28.164  18.701   6.454  0.00  0.00     0.105 A 
HETATM   14  C   UNK N   1      28.261  17.476   5.802  0.00  0.00     0.051 A 
BRANCH  11  15
HETATM   15  O   UNK N   1      26.614  20.633   3.674  0.00  0.00    -0.353 OA
HETATM   16  C   UNK N   1      25.643  20.492   2.710  0.00  0.00     0.210 C 
ENDBRANCH  11  15
BRANCH  12  17
HETATM   17  O   UNK N   1      27.480  21.048   6.334  0.00  0.00    -0.351 OA
HETATM   18  C   UNK N   1      26.398  21.535   7.027  0.00  0.00     0.210 C 
ENDBRANCH  12  17
BRANCH  13  19
HETATM   19  O   UNK N   1      28.565  18.748   7.744  0.00  0.00    -0.353 OA
HETATM   20  C   UNK N   1      28.074  17.863   8.681  0.00  0.00     0.210 C 
ENDBRANCH  13  19
ENDBRANCH   8   9
ENDBRANCH   4   7
BRANCH   6  21
HETATM   21  N   UNK N   1      21.951  17.089   3.540  0.00  0.00    -0.323 N 
HETATM   22  C   UNK N   1      21.853  18.440   3.432  0.00  0.00     0.246 C 
HETATM   23  O   UNK N   1      22.649  19.173   3.996  0.00  0.00    -0.271 OA
HETATM   24  H   UNK N   1      21.302  16.538   3.047  0.00  0.00     0.169 HD
BRANCH  22  25
HETATM   25  C   UNK N   1      20.671  19.048   2.723  0.00  0.00     0.191 C 
BRANCH  25  26
HETATM   26  C   UNK N   1      20.353  20.472   3.171  0.00  0.00     0.198 C 
BRANCH  26  27
HETATM   27  O   UNK N   1      21.350  21.356   2.748  0.00  0.00    -0.398 OA
HETATM   28  H   UNK N   1      22.051  21.929   3.095  0.00  0.00     0.209 HD
ENDBRANCH  26  27
ENDBRANCH  25  26
BRANCH  25  29
HETATM   29  N   UNK N   1      19.500  18.210   2.899  0.00  0.00    -0.417 N 
HETATM   30  H   UNK N   1      19.273  17.232   3.079  0.00  0.00     0.150 HD
HETATM   31  H   UNK N   1      18.648  18.765   2.821  0.00  0.00     0.150 HD
ENDBRANCH  25  29
ENDBRANCH  22  25
ENDBRANCH   6  21
BRANCH   1  32
HETATM   32  O   UNK N   1      21.296  16.159   6.034  0.00  0.00    -0.354 OA
HETATM   33  C   UNK N   1      20.915  17.029   7.032  0.00  0.00     0.210 C 
ENDBRANCH   1  32
TORSDOF 11
ENDMDL
MODEL 4
REMARK VINA RESULT:      -6.0      3.963      7.470
REMARK  11 active torsions:
REMARK  status: ('A' for Active; 'I' for Inactive)
REMARK    1  A    between atoms: O_2  and  C_3 
REMARK    2  A    between atoms: C_6  and  C_16 
REMARK    3  A    between atoms: C_8  and  N_9 
REMARK       I    between atoms: N_9  and  C_10 
REMARK    4  A    between atoms: C_10  and  C_12 
REMARK    5  A    between atoms: C_12  and  C_13 
REMARK    6  A    between atoms: C_12  and  N_15 
REMARK    7  A    between atoms: C_13  and  O_14 
REMARK    8  A    between atoms: C_17  and  C_18 
REMARK    9  A    between atoms: C_20  and  O_28 
REMARK   10  A    between atoms: C_21  and  O_26 
REMARK   11  A    between atoms: C_22  and  O_24 
ROOT
HETATM    1  C   UNK N   1      27.115  19.753   5.068  0.00  0.00     0.095 C 
HETATM    2  C   UNK N   1      26.343  19.960   3.921  0.00  0.00     0.040 C 
HETATM    3  C   UNK N   1      25.695  18.893   3.319  0.00  0.00     0.014 C 
HETATM    4  C   UNK N   1      25.862  17.585   3.793  0.00  0.00    -0.034 C 
HETATM    5  C   UNK N   1      26.545  17.386   4.996  0.00  0.00     0.043 C 
HETATM    6  C   UNK N   1      27.154  18.476   5.645  0.00  0.00     0.069 C 
ENDROOT
BRANCH   4   7
HETATM    7  C   UNK N   1      25.410  16.415   2.992  0.00  0.00     0.012 C 
HETATM    8  C   UNK N   1      24.330  15.645   3.288  0.00  0.00     0.012 C 
BRANCH   8   9
HETATM    9  C   UNK N   1      23.316  15.971   4.327  0.00  0.00    -0.031 A 
HETATM   10  C   UNK N   1      23.252  15.197   5.478  0.00  0.00     0.051 A 
HETATM   11  C   UNK N   1      22.456  15.579   6.564  0.00  0.00     0.105 A 
HETATM   12  C   UNK N   1      21.725  16.804   6.512  0.00  0.00     0.135 A 
HETATM   13  C   UNK N   1      21.781  17.583   5.318  0.00  0.00     0.105 A 
HETATM   14  C   UNK N   1      22.533  17.126   4.240  0.00  0.00     0.051 A 
BRANCH  11  15
HETATM   15  O   UNK N   1      22.442  14.744   7.636  0.00  0.00    -0.353 OA
HETATM   16  C   UNK N   1      21.642  13.634   7.781  0.00  0.00     0.210 C 
ENDBRANCH  11  15
BRANCH  12  17
HETATM   17  O   UNK N   1      21.000  17.178   7.602  0.00  0.00    -0.351 OA
HETATM   18  C   UNK N   1      19.688  16.862   7.862  0.00  0.00     0.210 C 
ENDBRANCH  12  17
BRANCH  13  19
HETATM   19  O   UNK N   1      21.186  18.789   5.188  0.00  0.00    -0.353 OA
HETATM   20  C   UNK N   1      20.990  19.364   3.951  0.00  0.00     0.210 C 
ENDBRANCH  13  19
ENDBRANCH   8   9
ENDBRANCH   4   7
BRANCH   6  21
HETATM   21  N   UNK N   1      27.799  18.335   6.901  0.00  0.00    -0.323 N 
HETATM   22  C   UNK N   1      29.051  17.830   7.060  0.00  0.00     0.246 C 
HETATM   23  O   UNK N   1      29.716  17.488   6.097  0.00  0.00    -0.271 OA
HETATM   24  H   UNK N   1      27.310  18.620   7.705  0.00  0.00     0.169 HD
BRANCH  22  25
HETATM   25  C   UNK N   1      29.574  17.558   8.447  0.00  0.00     0.191 C 
BRANCH  25  26
HETATM   26  C   UNK N   1      28.583  17.907   9.555  0.00  0.00     0.198 C 
BRANCH  26  27
HETATM   27  O   UNK N   1      27.414  17.152   9.427  0.00  0.00    -0.398 OA
HETATM   28  H   UNK N   1      26.606  17.093   8.894  0.00  0.00     0.209 HD
ENDBRANCH  26  27
ENDBRANCH  25  26
BRANCH  25  29
HETATM   29  N   UNK N   1      30.816  18.276   8.661  0.00  0.00    -0.417 N 
HETATM   30  H   UNK N   1      31.700  18.445   8.181  0.00  0.00     0.150 HD
HETATM   31  H   UNK N   1      30.801  18.756   9.561  0.00  0.00     0.150 HD
ENDBRANCH  25  29
ENDBRANCH  22  25
ENDBRANCH   6  21
BRANCH   1  32
HETATM   32  O   UNK N   1      27.798  20.770   5.643  0.00  0.00    -0.354 OA
HETATM   33  C   UNK N   1      27.185  21.805   6.314  0.00  0.00     0.210 C 
ENDBRANCH   1  32
TORSDOF 11
ENDMDL
MODEL 5
REMARK VINA RESULT:      -5.9      7.814     11.438
REMARK  11 active torsions:
REMARK  status: ('A' for Active; 'I' for Inactive)
REMARK    1  A    between atoms: O_2  and  C_3 
REMARK    2  A    between atoms: C_6  and  C_16 
REMARK    3  A    between atoms: C_8  and  N_9 
REMARK       I    between atoms: N_9  and  C_10 
REMARK    4  A    between atoms: C_10  and  C_12 
REMARK    5  A    between atoms: C_12  and  C_13 
REMARK    6  A    between atoms: C_12  and  N_15 
REMARK    7  A    between atoms: C_13  and  O_14 
REMARK    8  A    between atoms: C_17  and  C_18 
REMARK    9  A    between atoms: C_20  and  O_28 
REMARK   10  A    between atoms: C_21  and  O_26 
REMARK   11  A    between atoms: C_22  and  O_24 
ROOT
HETATM    1  C   UNK N   1      32.805  14.083   7.149  0.00  0.00     0.095 C 
HETATM    2  C   UNK N   1      32.491  13.498   5.919  0.00  0.00     0.040 C 
HETATM    3  C   UNK N   1      32.779  14.166   4.740  0.00  0.00     0.014 C 
HETATM    4  C   UNK N   1      33.312  15.462   4.754  0.00  0.00    -0.034 C 
HETATM    5  C   UNK N   1      33.724  16.008   5.973  0.00  0.00     0.043 C 
HETATM    6  C   UNK N   1      33.489  15.307   7.170  0.00  0.00     0.069 C 
ENDROOT
BRANCH   4   7
HETATM    7  C   UNK N   1      33.354  16.289   3.517  0.00  0.00     0.012 C 
HETATM    8  C   UNK N   1      32.271  16.863   2.932  0.00  0.00     0.012 C 
BRANCH   8   9
HETATM    9  C   UNK N   1      30.916  16.933   3.543  0.00  0.00    -0.031 A 
HETATM   10  C   UNK N   1      29.854  16.297   2.913  0.00  0.00     0.051 A 
HETATM   11  C   UNK N   1      28.611  16.167   3.542  0.00  0.00     0.105 A 
HETATM   12  C   UNK N   1      28.434  16.658   4.871  0.00  0.00     0.135 A 
HETATM   13  C   UNK N   1      29.524  17.327   5.503  0.00  0.00     0.105 A 
HETATM   14  C   UNK N   1      30.719  17.491   4.809  0.00  0.00     0.051 A 
BRANCH  11  15
HETATM   15  O   UNK N   1      27.629  15.550   2.836  0.00  0.00    -0.353 OA
HETATM   16  C   UNK N   1      27.808  14.536   1.924  0.00  0.00     0.210 C 
ENDBRANCH  11  15
BRANCH  12  17
HETATM   17  O   UNK N   1      27.230  16.473   5.480  0.00  0.00    -0.351 OA
HETATM   18  C   UNK N   1      26.845  15.383   6.222  0.00  0.00     0.210 C 
ENDBRANCH  12  17
BRANCH  13  19
HETATM   19  O   UNK N   1      29.486  17.767   6.780  0.00  0.00    -0.353 OA
HETATM   20  C   UNK N   1      30.380  17.309   7.725  0.00  0.00     0.210 C 
ENDBRANCH  13  19
ENDBRANCH   8   9
ENDBRANCH   4   7
BRANCH   6  21
HETATM   21  N   UNK N   1      33.949  15.788   8.423  0.00  0.00    -0.323 N 
HETATM   22  C   UNK N   1      35.129  15.425   8.991  0.00  0.00     0.246 C 
HETATM   23  O   UNK N   1      35.891  14.663   8.419  0.00  0.00    -0.271 OA
HETATM   24  H   UNK N   1      33.378  16.424   8.910  0.00  0.00     0.169 HD
BRANCH  22  25
HETATM   25  C   UNK N   1      35.441  15.854  10.401  0.00  0.00     0.191 C 
BRANCH  25  26
HETATM   26  C   UNK N   1      34.738  15.016  11.466  0.00  0.00     0.198 C 
BRANCH  26  27
HETATM   27  O   UNK N   1      33.385  14.857  11.155  0.00  0.00    -0.398 OA
HETATM   28  H   UNK N   1      32.501  14.986  11.533  0.00  0.00     0.209 HD
ENDBRANCH  26  27
ENDBRANCH  25  26
BRANCH  25  29
HETATM   29  N   UNK N   1      35.103  17.253  10.582  0.00  0.00    -0.417 N 
HETATM   30  H   UNK N   1      34.467  17.948  10.192  0.00  0.00     0.150 HD
HETATM   31  H   UNK N   1      35.673  17.665  11.321  0.00  0.00     0.150 HD
ENDBRANCH  25  29
ENDBRANCH  22  25
ENDBRANCH   6  21
BRANCH   1  32
HETATM   32  O   UNK N   1      32.487  13.473   8.314  0.00  0.00    -0.354 OA
HETATM   33  C   UNK N   1      33.120  12.336   8.766  0.00  0.00     0.210 C 
ENDBRANCH   1  32
TORSDOF 11
ENDMDL
MODEL 6
REMARK VINA RESULT:      -5.8      3.207      5.374
REMARK  11 active torsions:
REMARK  status: ('A' for Active; 'I' for Inactive)
REMARK    1  A    between atoms: O_2  and  C_3 
REMARK    2  A    between atoms: C_6  and  C_16 
REMARK    3  A    between atoms: C_8  and  N_9 
REMARK       I    between atoms: N_9  and  C_10 
REMARK    4  A    between atoms: C_10  and  C_12 
REMARK    5  A    between atoms: C_12  and  C_13 
REMARK    6  A    between atoms: C_12  and  N_15 
REMARK    7  A    between atoms: C_13  and  O_14 
REMARK    8  A    between atoms: C_17  and  C_18 
REMARK    9  A    between atoms: C_20  and  O_28 
REMARK   10  A    between atoms: C_21  and  O_26 
REMARK   11  A    between atoms: C_22  and  O_24 
ROOT
HETATM    1  C   UNK N   1      23.121  14.596   7.002  0.00  0.00     0.095 C 
HETATM    2  C   UNK N   1      23.307  14.708   5.620  0.00  0.00     0.040 C 
HETATM    3  C   UNK N   1      24.490  14.278   5.043  0.00  0.00     0.014 C 
HETATM    4  C   UNK N   1      25.548  13.799   5.828  0.00  0.00    -0.034 C 
HETATM    5  C   UNK N   1      25.330  13.588   7.193  0.00  0.00     0.043 C 
HETATM    6  C   UNK N   1      24.107  13.968   7.776  0.00  0.00     0.069 C 
ENDROOT
BRANCH   4   7
HETATM    7  C   UNK N   1      26.907  13.609   5.254  0.00  0.00     0.012 C 
HETATM    8  C   UNK N   1      27.760  14.617   4.933  0.00  0.00     0.012 C 
BRANCH   8   9
HETATM    9  C   UNK N   1      27.558  16.046   5.295  0.00  0.00    -0.031 A 
HETATM   10  C   UNK N   1      28.075  16.521   6.493  0.00  0.00     0.051 A 
HETATM   11  C   UNK N   1      28.084  17.889   6.785  0.00  0.00     0.105 A 
HETATM   12  C   UNK N   1      27.593  18.824   5.824  0.00  0.00     0.135 A 
HETATM   13  C   UNK N   1      27.046  18.325   4.605  0.00  0.00     0.105 A 
HETATM   14  C   UNK N   1      26.997  16.951   4.390  0.00  0.00     0.051 A 
BRANCH  11  15
HETATM   15  O   UNK N   1      28.589  18.255   7.993  0.00  0.00    -0.353 OA
HETATM   16  C   UNK N   1      28.139  17.821   9.218  0.00  0.00     0.210 C 
ENDBRANCH  11  15
BRANCH  12  17
HETATM   17  O   UNK N   1      27.660  20.153   6.112  0.00  0.00    -0.351 OA
HETATM   18  C   UNK N   1      26.684  20.914   6.708  0.00  0.00     0.210 C 
ENDBRANCH  12  17
BRANCH  13  19
HETATM   19  O   UNK N   1      26.619  19.123   3.600  0.00  0.00    -0.353 OA
HETATM   20  C   UNK N   1      25.301  19.516   3.507  0.00  0.00     0.210 C 
ENDBRANCH  13  19
ENDBRANCH   8   9
ENDBRANCH   4   7
BRANCH   6  21
HETATM   21  N   UNK N   1      23.816  13.711   9.140  0.00  0.00    -0.323 N 
HETATM   22  C   UNK N   1      23.199  12.586   9.588  0.00  0.00     0.246 C 
HETATM   23  O   UNK N   1      22.880  11.697   8.816  0.00  0.00    -0.271 OA
HETATM   24  H   UNK N   1      24.076  14.390   9.803  0.00  0.00     0.169 HD
BRANCH  22  25
HETATM   25  C   UNK N   1      22.776  12.491  11.031  0.00  0.00     0.191 C 
BRANCH  25  26
HETATM   26  C   UNK N   1      23.835  11.873  11.940  0.00  0.00     0.198 C 
BRANCH  26  27
HETATM   27  O   UNK N   1      25.103  12.376  11.633  0.00  0.00    -0.398 OA
HETATM   28  H   UNK N   1      25.793  12.327  10.953  0.00  0.00     0.209 HD
ENDBRANCH  26  27
ENDBRANCH  25  26
BRANCH  25  29
HETATM   29  N   UNK N   1      21.542  11.737  11.140  0.00  0.00    -0.417 N 
HETATM   30  H   UNK N   1      21.061  11.140  11.813  0.00  0.00     0.150 HD
HETATM   31  H   UNK N   1      20.988  11.833  10.289  0.00  0.00     0.150 HD
ENDBRANCH  25  29
ENDBRANCH  22  25
ENDBRANCH   6  21
BRANCH   1  32
HETATM   32  O   UNK N   1      21.996  15.057   7.594  0.00  0.00    -0.354 OA
HETATM   33  C   UNK N   1      21.028  15.771   6.922  0.00  0.00     0.210 C 
ENDBRANCH   1  32
TORSDOF 11
ENDMDL
MODEL 7
REMARK VINA RESULT:      -5.8      4.005      7.835
REMARK  11 active torsions:
REMARK  status: ('A' for Active; 'I' for Inactive)
REMARK    1  A    between atoms: O_2  and  C_3 
REMARK    2  A    between atoms: C_6  and  C_16 
REMARK    3  A    between atoms: C_8  and  N_9 
REMARK       I    between atoms: N_9  and  C_10 
REMARK    4  A    between atoms: C_10  and  C_12 
REMARK    5  A    between atoms: C_12  and  C_13 
REMARK    6  A    between atoms: C_12  and  N_15 
REMARK    7  A    between atoms: C_13  and  O_14 
REMARK    8  A    between atoms: C_17  and  C_18 
REMARK    9  A    between atoms: C_20  and  O_28 
REMARK   10  A    between atoms: C_21  and  O_26 
REMARK   11  A    between atoms: C_22  and  O_24 
ROOT
HETATM    1  C   UNK N   1      27.121  19.749   4.986  0.00  0.00     0.095 C 
HETATM    2  C   UNK N   1      26.343  19.927   3.839  0.00  0.00     0.040 C 
HETATM    3  C   UNK N   1      25.730  18.838   3.241  0.00  0.00     0.014 C 
HETATM    4  C   UNK N   1      25.937  17.537   3.719  0.00  0.00    -0.034 C 
HETATM    5  C   UNK N   1      26.626  17.365   4.923  0.00  0.00     0.043 C 
HETATM    6  C   UNK N   1      27.200  18.476   5.568  0.00  0.00     0.069 C 
ENDROOT
BRANCH   4   7
HETATM    7  C   UNK N   1      25.523  16.351   2.923  0.00  0.00     0.012 C 
HETATM    8  C   UNK N   1      24.454  15.562   3.208  0.00  0.00     0.012 C 
BRANCH   8   9
HETATM    9  C   UNK N   1      23.416  15.877   4.226  0.00  0.00    -0.031 A 
HETATM   10  C   UNK N   1      22.329  16.662   3.867  0.00  0.00     0.051 A 
HETATM   11  C   UNK N   1      21.235  16.821   4.725  0.00  0.00     0.105 A 
HETATM   12  C   UNK N   1      21.210  16.136   5.977  0.00  0.00     0.135 A 
HETATM   13  C   UNK N   1      22.340  15.347   6.346  0.00  0.00     0.105 A 
HETATM   14  C   UNK N   1      23.432  15.274   5.488  0.00  0.00     0.051 A 
BRANCH  11  15
HETATM   15  O   UNK N   1      20.231  17.628   4.294  0.00  0.00    -0.353 OA
HETATM   16  C   UNK N   1      19.794  17.746   2.995  0.00  0.00     0.210 C 
ENDBRANCH  11  15
BRANCH  12  17
HETATM   17  O   UNK N   1      20.111  16.267   6.771  0.00  0.00    -0.351 OA
HETATM   18  C   UNK N   1      20.009  17.024   7.912  0.00  0.00     0.210 C 
ENDBRANCH  12  17
BRANCH  13  19
HETATM   19  O   UNK N   1      22.390  14.602   7.474  0.00  0.00    -0.353 OA
HETATM   20  C   UNK N   1      21.912  13.310   7.502  0.00  0.00     0.210 C 
ENDBRANCH  13  19
ENDBRANCH   8   9
ENDBRANCH   4   7
BRANCH   6  21
HETATM   21  N   UNK N   1      27.849  18.360   6.825  0.00  0.00    -0.323 N 
HETATM   22  C   UNK N   1      29.090  17.831   6.994  0.00  0.00     0.246 C 
HETATM   23  O   UNK N   1      29.741  17.442   6.039  0.00  0.00    -0.271 OA
HETATM   24  H   UNK N   1      27.372  18.683   7.622  0.00  0.00     0.169 HD
BRANCH  22  25
HETATM   25  C   UNK N   1      29.614  17.591   8.386  0.00  0.00     0.191 C 
BRANCH  25  26
HETATM   26  C   UNK N   1      28.836  18.332   9.470  0.00  0.00     0.198 C 
BRANCH  26  27
HETATM   27  O   UNK N   1      27.528  17.850   9.555  0.00  0.00    -0.398 OA
HETATM   28  H   UNK N   1      26.888  17.305   9.069  0.00  0.00     0.209 HD
ENDBRANCH  26  27
ENDBRANCH  25  26
BRANCH  25  29
HETATM   29  N   UNK N   1      31.017  17.954   8.459  0.00  0.00    -0.417 N 
HETATM   30  H   UNK N   1      31.774  18.231   7.834  0.00  0.00     0.150 HD
HETATM   31  H   UNK N   1      31.344  17.922   9.425  0.00  0.00     0.150 HD
ENDBRANCH  25  29
ENDBRANCH  22  25
ENDBRANCH   6  21
BRANCH   1  32
HETATM   32  O   UNK N   1      27.772  20.789   5.557  0.00  0.00    -0.354 OA
HETATM   33  C   UNK N   1      27.131  21.778   6.270  0.00  0.00     0.210 C 
ENDBRANCH   1  32
TORSDOF 11
ENDMDL
MODEL 8
REMARK VINA RESULT:      -5.7      3.920      6.483
REMARK  11 active torsions:
REMARK  status: ('A' for Active; 'I' for Inactive)
REMARK    1  A    between atoms: O_2  and  C_3 
REMARK    2  A    between atoms: C_6  and  C_16 
REMARK    3  A    between atoms: C_8  and  N_9 
REMARK       I    between atoms: N_9  and  C_10 
REMARK    4  A    between atoms: C_10  and  C_12 
REMARK    5  A    between atoms: C_12  and  C_13 
REMARK    6  A    between atoms: C_12  and  N_15 
REMARK    7  A    between atoms: C_13  and  O_14 
REMARK    8  A    between atoms: C_17  and  C_18 
REMARK    9  A    between atoms: C_20  and  O_28 
REMARK   10  A    between atoms: C_21  and  O_26 
REMARK   11  A    between atoms: C_22  and  O_24 
ROOT
HETATM    1  C   UNK N   1      24.222  15.474   3.766  0.00  0.00     0.095 C 
HETATM    2  C   UNK N   1      25.295  15.657   2.889  0.00  0.00     0.040 C 
HETATM    3  C   UNK N   1      26.098  16.780   2.999  0.00  0.00     0.014 C 
HETATM    4  C   UNK N   1      25.810  17.788   3.929  0.00  0.00    -0.034 C 
HETATM    5  C   UNK N   1      24.806  17.563   4.875  0.00  0.00     0.043 C 
HETATM    6  C   UNK N   1      24.025  16.394   4.806  0.00  0.00     0.069 C 
ENDROOT
BRANCH   4   7
HETATM    7  C   UNK N   1      26.485  19.112   3.861  0.00  0.00     0.012 C 
HETATM    8  C   UNK N   1      27.599  19.450   4.562  0.00  0.00     0.012 C 
BRANCH   8   9
HETATM    9  C   UNK N   1      28.434  18.495   5.339  0.00  0.00    -0.031 A 
HETATM   10  C   UNK N   1      29.558  17.938   4.745  0.00  0.00     0.051 A 
HETATM   11  C   UNK N   1      30.478  17.195   5.492  0.00  0.00     0.105 A 
HETATM   12  C   UNK N   1      30.288  17.035   6.898  0.00  0.00     0.135 A 
HETATM   13  C   UNK N   1      29.119  17.594   7.496  0.00  0.00     0.105 A 
HETATM   14  C   UNK N   1      28.199  18.267   6.698  0.00  0.00     0.051 A 
BRANCH  11  15
HETATM   15  O   UNK N   1      31.534  16.670   4.817  0.00  0.00    -0.353 OA
HETATM   16  C   UNK N   1      32.639  17.366   4.385  0.00  0.00     0.210 C 
ENDBRANCH  11  15
BRANCH  12  17
HETATM   17  O   UNK N   1      31.225  16.350   7.610  0.00  0.00    -0.351 OA
HETATM   18  C   UNK N   1      32.343  16.875   8.210  0.00  0.00     0.210 C 
ENDBRANCH  12  17
BRANCH  13  19
HETATM   19  O   UNK N   1      28.877  17.562   8.825  0.00  0.00    -0.353 OA
HETATM   20  C   UNK N   1      29.366  18.537   9.668  0.00  0.00     0.210 C 
ENDBRANCH  13  19
ENDBRANCH   8   9
ENDBRANCH   4   7
BRANCH   6  21
HETATM   21  N   UNK N   1      23.042  16.091   5.783  0.00  0.00    -0.323 N 
HETATM   22  C   UNK N   1      21.733  16.440   5.677  0.00  0.00     0.246 C 
HETATM   23  O   UNK N   1      21.318  17.025   4.691  0.00  0.00    -0.271 OA
HETATM   24  H   UNK N   1      23.325  15.598   6.585  0.00  0.00     0.169 HD
BRANCH  22  25
HETATM   25  C   UNK N   1      20.808  16.227   6.847  0.00  0.00     0.191 C 
BRANCH  25  26
HETATM   26  C   UNK N   1      20.390  17.522   7.541  0.00  0.00     0.198 C 
BRANCH  26  27
HETATM   27  O   UNK N   1      21.174  18.592   7.101  0.00  0.00    -0.398 OA
HETATM   28  H   UNK N   1      21.331  19.144   6.318  0.00  0.00     0.209 HD
ENDBRANCH  26  27
ENDBRANCH  25  26
BRANCH  25  29
HETATM   29  N   UNK N   1      21.423  15.335   7.812  0.00  0.00    -0.417 N 
HETATM   30  H   UNK N   1      22.348  14.977   8.049  0.00  0.00     0.150 HD
HETATM   31  H   UNK N   1      20.719  14.952   8.444  0.00  0.00     0.150 HD
ENDBRANCH  25  29
ENDBRANCH  22  25
ENDBRANCH   6  21
BRANCH   1  32
HETATM   32  O   UNK N   1      23.394  14.412   3.645  0.00  0.00    -0.354 OA
HETATM   33  C   UNK N   1      23.808  13.110   3.823  0.00  0.00     0.210 C 
ENDBRANCH   1  32
TORSDOF 11
ENDMDL
MODEL 9
REMARK VINA RESULT:      -5.6     13.442     16.649
REMARK  11 active torsions:
REMARK  status: ('A' for Active; 'I' for Inactive)
REMARK    1  A    between atoms: O_2  and  C_3 
REMARK    2  A    between atoms: C_6  and  C_16 
REMARK    3  A    between atoms: C_8  and  N_9 
REMARK       I    between atoms: N_9  and  C_10 
REMARK    4  A    between atoms: C_10  and  C_12 
REMARK    5  A    between atoms: C_12  and  C_13 
REMARK    6  A    between atoms: C_12  and  N_15 
REMARK    7  A    between atoms: C_13  and  O_14 
REMARK    8  A    between atoms: C_17  and  C_18 
REMARK    9  A    between atoms: C_20  and  O_28 
REMARK   10  A    between atoms: C_21  and  O_26 
REMARK   11  A    between atoms: C_22  and  O_24 
ROOT
HETATM    1  C   UNK N   1      28.366  23.768  -3.967  0.00  0.00     0.095 C 
HETATM    2  C   UNK N   1      26.980  23.946  -4.007  0.00  0.00     0.040 C 
HETATM    3  C   UNK N   1      26.314  23.938  -5.221  0.00  0.00     0.014 C 
HETATM    4  C   UNK N   1      27.015  23.832  -6.430  0.00  0.00    -0.034 C 
HETATM    5  C   UNK N   1      28.384  23.549  -6.392  0.00  0.00     0.043 C 
HETATM    6  C   UNK N   1      29.055  23.496  -5.157  0.00  0.00     0.069 C 
ENDROOT
BRANCH   4   7
HETATM    7  C   UNK N   1      26.349  24.108  -7.732  0.00  0.00     0.012 C 
HETATM    8  C   UNK N   1      26.015  25.346  -8.183  0.00  0.00     0.012 C 
BRANCH   8   9
HETATM    9  C   UNK N   1      26.446  26.623  -7.552  0.00  0.00    -0.031 A 
HETATM   10  C   UNK N   1      25.865  27.017  -6.354  0.00  0.00     0.051 A 
HETATM   11  C   UNK N   1      26.372  28.099  -5.626  0.00  0.00     0.105 A 
HETATM   12  C   UNK N   1      27.529  28.791  -6.095  0.00  0.00     0.135 A 
HETATM   13  C   UNK N   1      28.107  28.391  -7.337  0.00  0.00     0.105 A 
HETATM   14  C   UNK N   1      27.526  27.352  -8.057  0.00  0.00     0.051 A 
BRANCH  11  15
HETATM   15  O   UNK N   1      25.721  28.424  -4.478  0.00  0.00    -0.353 OA
HETATM   16  C   UNK N   1      25.820  27.754  -3.280  0.00  0.00     0.210 C 
ENDBRANCH  11  15
BRANCH  12  17
HETATM   17  O   UNK N   1      28.032  29.808  -5.341  0.00  0.00    -0.351 OA
HETATM   18  C   UNK N   1      29.017  29.713  -4.388  0.00  0.00     0.210 C 
ENDBRANCH  12  17
BRANCH  13  19
HETATM   19  O   UNK N   1      29.241  28.930  -7.836  0.00  0.00    -0.353 OA
HETATM   20  C   UNK N   1      29.651  28.673  -9.127  0.00  0.00     0.210 C 
ENDBRANCH  13  19
ENDBRANCH   8   9
ENDBRANCH   4   7
BRANCH   6  21
HETATM   21  N   UNK N   1      30.427  23.146  -5.064  0.00  0.00    -0.323 N 
HETATM   22  C   UNK N   1      30.878  21.876  -4.888  0.00  0.00     0.246 C 
HETATM   23  O   UNK N   1      30.100  20.938  -4.827  0.00  0.00    -0.271 OA
HETATM   24  H   UNK N   1      31.093  23.867  -5.132  0.00  0.00     0.169 HD
BRANCH  22  25
HETATM   25  C   UNK N   1      32.341  21.634  -4.624  0.00  0.00     0.191 C 
BRANCH  25  26
HETATM   26  C   UNK N   1      32.674  21.444  -3.147  0.00  0.00     0.198 C 
BRANCH  26  27
HETATM   27  O   UNK N   1      31.675  21.996  -2.341  0.00  0.00    -0.398 OA
HETATM   28  H   UNK N   1      30.752  21.855  -2.076  0.00  0.00     0.209 HD
ENDBRANCH  26  27
ENDBRANCH  25  26
BRANCH  25  29
HETATM   29  N   UNK N   1      33.131  22.725  -5.164  0.00  0.00    -0.417 N 
HETATM   30  H   UNK N   1      33.722  23.486  -4.830  0.00  0.00     0.150 HD
HETATM   31  H   UNK N   1      33.081  22.733  -6.183  0.00  0.00     0.150 HD
ENDBRANCH  25  29
ENDBRANCH  22  25
ENDBRANCH   6  21
BRANCH   1  32
HETATM   32  O   UNK N   1      29.044  23.823  -2.797  0.00  0.00    -0.354 OA
HETATM   33  C   UNK N   1      28.711  23.065  -1.696  0.00  0.00     0.210 C 
ENDBRANCH   1  32
TORSDOF 11
ENDMDL
