MODEL 1
REMARK VINA RESULT:      -7.5      0.000      0.000
REMARK  12 active torsions:
REMARK  status: ('A' for Active; 'I' for Inactive)
REMARK    1  A    between atoms: C_2  and  C_1 
REMARK    2  A    between atoms: C_5  and  C_1 
REMARK    3  A    between atoms: C_6  and  C_2 
REMARK    4  A    between atoms: N_25  and  C_5 
REMARK    5  A    between atoms: N_30  and  C_6 
REMARK    6  A    between atoms: C_13  and  C_11 
REMARK    7  A    between atoms: O_33  and  C_11 
REMARK    8  A    between atoms: C_17  and  C_16 
REMARK       I    between atoms: N_24  and  C_17 
REMARK    9  A    between atoms: O_33  and  C_18 
REMARK   10  A    between atoms: N_27  and  C_19 
REMARK   11  A    between atoms: N_27  and  C_20 
REMARK   12  A    between atoms: O_32  and  C_20 
ROOT
HETATM    1  C   UNK N   1      34.761  15.145   9.855  0.00  0.00     0.118 A 
HETATM    2  C   UNK N   1      34.175  13.999  10.584  0.00  0.00     0.167 A 
HETATM    3  C   UNK N   1      34.345  15.161   8.504  0.00  0.00     0.114 A 
HETATM    4  N   UNK N   1      33.368  13.201   9.831  0.00  0.00    -0.304 N 
ATOM      5  HN  UNK N   1      32.870  12.364  10.135  1.00  0.00     0.176 HD
HETATM    6  S   UNK N   1      33.362  13.864   8.342  0.00  0.00     0.007 SA
ENDROOT
BRANCH   3   7
HETATM    7  N   UNK N   1      34.787  16.114   7.530  0.00  0.00    -0.315 N 
HETATM    8  H   UNK N   1      35.659  15.846   7.159  0.00  0.00     0.170 HD
BRANCH   7   9
HETATM    9  C   UNK N   1      34.344  17.344   6.930  0.00  0.00     0.217 C 
HETATM   10  N   UNK N   1      33.705  17.449   5.809  0.00  0.00    -0.356 N 
ATOM     11  HN  UNK N   1      33.489  18.396   5.497  1.00  0.00     0.163 HD
BRANCH  10  12
HETATM   12  C   UNK N   1      33.269  16.386   4.959  0.00  0.00     0.123 C 
BRANCH  12  13
HETATM   13  C   UNK N   1      31.891  15.917   5.393  0.00  0.00     0.021 C 
BRANCH  13  14
HETATM   14  C   UNK N   1      30.946  17.102   5.539  0.00  0.00     0.032 C 
BRANCH  14  15
HETATM   15  C   UNK N   1      29.666  16.720   6.272  0.00  0.00     0.272 C 
BRANCH  15  16
HETATM   16  N   UNK N   1      29.302  17.764   7.217  0.00  0.00     0.088 N 
HETATM   17  C   UNK N   1      28.132  17.326   7.954  0.00  0.00     0.272 C 
HETATM   18  C   UNK N   1      28.225  17.962   9.325  0.00  0.00     0.032 C 
HETATM   19  C   UNK N   1      29.687  18.310   9.500  0.00  0.00     0.032 C 
HETATM   20  C   UNK N   1      30.349  17.848   8.223  0.00  0.00     0.272 C 
ENDBRANCH  15  16
ENDBRANCH  14  15
ENDBRANCH  13  14
ENDBRANCH  12  13
ENDBRANCH  10  12
BRANCH   9  21
HETATM   21  O   UNK N   1      34.638  18.483   7.583  0.00  0.00    -0.333 OA
HETATM   22  H   UNK N   1      34.472  18.572   8.500  0.00  0.00     0.220 HD
ENDBRANCH   9  21
ENDBRANCH   7   9
ENDBRANCH   3   7
BRANCH   1  23
HETATM   23  C   UNK N   1      35.708  16.199  10.373  0.00  0.00     0.256 C 
HETATM   24  N   UNK N   1      36.782  15.842  11.107  0.00  0.00    -0.366 N 
HETATM   25  H   UNK N   1      36.864  14.922  11.447  0.00  0.00     0.159 HD
HETATM   26  H   UNK N   1      37.485  16.503  11.304  0.00  0.00     0.159 HD
HETATM   27  O   UNK N   1      35.523  17.379  10.169  0.00  0.00    -0.268 OA
ENDBRANCH   1  23
BRANCH   2  28
HETATM   28  O   UNK N   1      34.341  13.664  11.887  0.00  0.00    -0.330 OA
BRANCH  28  29
HETATM   29  C   UNK N   1      35.186  12.721  12.401  0.00  0.00     0.222 C 
BRANCH  29  30
HETATM   30  C   UNK N   1      35.170  12.645  13.901  0.00  0.00     0.043 A 
HETATM   31  C   UNK N   1      35.987  13.544  14.605  0.00  0.00     0.129 A 
HETATM   32  C   UNK N   1      36.011  13.534  15.999  0.00  0.00     0.062 A 
HETATM   33  F   UNK N   1      36.761  14.434  13.933  0.00  0.00    -0.205 F 
HETATM   34  C   UNK N   1      35.222  12.629  16.707  0.00  0.00     0.016 A 
HETATM   35  C   UNK N   1      34.408  11.724  16.022  0.00  0.00     0.062 A 
HETATM   36 Br   UNK N   1      35.253  12.632  18.612  0.00  0.00    -0.051 Br
HETATM   37  C   UNK N   1      34.376  11.724  14.625  0.00  0.00     0.129 A 
HETATM   38  F   UNK N   1      33.571  10.832  13.994  0.00  0.00    -0.205 F 
ENDBRANCH  29  30
ENDBRANCH  28  29
ENDBRANCH   2  28
TORSDOF 12
ENDMDL
MODEL 2
REMARK VINA RESULT:      -7.4      1.687      2.700
REMARK  12 active torsions:
REMARK  status: ('A' for Active; 'I' for Inactive)
REMARK    1  A    between atoms: C_2  and  C_1 
REMARK    2  A    between atoms: C_5  and  C_1 
REMARK    3  A    between atoms: C_6  and  C_2 
REMARK    4  A    between atoms: N_25  and  C_5 
REMARK    5  A    between atoms: N_30  and  C_6 
REMARK    6  A    between atoms: C_13  and  C_11 
REMARK    7  A    between atoms: O_33  and  C_11 
REMARK    8  A    between atoms: C_17  and  C_16 
REMARK       I    between atoms: N_24  and  C_17 
REMARK    9  A    between atoms: O_33  and  C_18 
REMARK   10  A    between atoms: N_27  and  C_19 
REMARK   11  A    between atoms: N_27  and  C_20 
REMARK   12  A    between atoms: O_32  and  C_20 
ROOT
HETATM    1  C   UNK N   1      34.876  14.933  10.130  0.00  0.00     0.118 A 
HETATM    2  C   UNK N   1      34.672  13.476  10.286  0.00  0.00     0.167 A 
HETATM    3  C   UNK N   1      33.757  15.545   9.518  0.00  0.00     0.114 A 
HETATM    4  N   UNK N   1      33.476  13.018   9.822  0.00  0.00    -0.304 N 
ATOM      5  HN  UNK N   1      33.138  12.055   9.831  1.00  0.00     0.176 HD
HETATM    6  S   UNK N   1      32.696  14.330   9.251  0.00  0.00     0.007 SA
ENDROOT
BRANCH   3   7
HETATM    7  N   UNK N   1      33.677  16.936   9.182  0.00  0.00    -0.315 N 
HETATM    8  H   UNK N   1      33.802  17.490   9.986  0.00  0.00     0.170 HD
BRANCH   7   9
HETATM    9  C   UNK N   1      33.469  17.767   8.027  0.00  0.00     0.217 C 
HETATM   10  N   UNK N   1      32.337  17.961   7.431  0.00  0.00    -0.356 N 
ATOM     11  HN  UNK N   1      32.358  18.551   6.599  1.00  0.00     0.163 HD
BRANCH  10  12
HETATM   12  C   UNK N   1      31.061  17.439   7.807  0.00  0.00     0.123 C 
BRANCH  12  13
HETATM   13  C   UNK N   1      30.428  18.339   8.853  0.00  0.00     0.021 C 
BRANCH  13  14
HETATM   14  C   UNK N   1      28.979  18.641   8.491  0.00  0.00     0.032 C 
BRANCH  14  15
HETATM   15  C   UNK N   1      28.520  17.843   7.278  0.00  0.00     0.272 C 
BRANCH  15  16
HETATM   16  N   UNK N   1      27.626  18.648   6.460  0.00  0.00     0.088 N 
HETATM   17  C   UNK N   1      27.645  20.007   6.965  0.00  0.00     0.272 C 
HETATM   18  C   UNK N   1      27.391  20.911   5.777  0.00  0.00     0.032 C 
HETATM   19  C   UNK N   1      27.754  20.081   4.565  0.00  0.00     0.032 C 
HETATM   20  C   UNK N   1      28.202  18.752   5.129  0.00  0.00     0.272 C 
ENDBRANCH  15  16
ENDBRANCH  14  15
ENDBRANCH  13  14
ENDBRANCH  12  13
ENDBRANCH  10  12
BRANCH   9  21
HETATM   21  O   UNK N   1      34.552  18.378   7.511  0.00  0.00    -0.333 OA
HETATM   22  H   UNK N   1      35.150  18.845   8.060  0.00  0.00     0.220 HD
ENDBRANCH   9  21
ENDBRANCH   7   9
ENDBRANCH   3   7
BRANCH   1  23
HETATM   23  C   UNK N   1      36.082  15.756  10.508  0.00  0.00     0.256 C 
HETATM   24  N   UNK N   1      37.299  15.177  10.588  0.00  0.00    -0.366 N 
HETATM   25  H   UNK N   1      37.381  14.197  10.565  0.00  0.00     0.159 HD
HETATM   26  H   UNK N   1      38.105  15.736  10.671  0.00  0.00     0.159 HD
HETATM   27  O   UNK N   1      35.993  16.936  10.771  0.00  0.00    -0.268 OA
ENDBRANCH   1  23
BRANCH   2  28
HETATM   28  O   UNK N   1      35.518  12.567  10.830  0.00  0.00    -0.330 OA
BRANCH  28  29
HETATM   29  C   UNK N   1      35.204  11.548  11.684  0.00  0.00     0.222 C 
BRANCH  29  30
HETATM   30  C   UNK N   1      35.239  11.939  13.135  0.00  0.00     0.043 A 
HETATM   31  C   UNK N   1      34.258  11.393  13.977  0.00  0.00     0.129 A 
HETATM   32  C   UNK N   1      34.241  11.707  15.337  0.00  0.00     0.062 A 
HETATM   33  F   UNK N   1      33.319  10.551  13.477  0.00  0.00    -0.205 F 
HETATM   34  C   UNK N   1      35.199  12.567  15.869  0.00  0.00     0.016 A 
HETATM   35  C   UNK N   1      36.178  13.124  15.044  0.00  0.00     0.062 A 
HETATM   36 Br   UNK N   1      35.173  12.979  17.729  0.00  0.00    -0.051 Br
HETATM   37  C   UNK N   1      36.205  12.817  13.680  0.00  0.00     0.129 A 
HETATM   38  F   UNK N   1      37.173  13.375  12.909  0.00  0.00    -0.205 F 
ENDBRANCH  29  30
ENDBRANCH  28  29
ENDBRANCH   2  28
TORSDOF 12
ENDMDL
MODEL 3
REMARK VINA RESULT:      -7.3      4.648      9.621
REMARK  12 active torsions:
REMARK  status: ('A' for Active; 'I' for Inactive)
REMARK    1  A    between atoms: C_2  and  C_1 
REMARK    2  A    between atoms: C_5  and  C_1 
REMARK    3  A    between atoms: C_6  and  C_2 
REMARK    4  A    between atoms: N_25  and  C_5 
REMARK    5  A    between atoms: N_30  and  C_6 
REMARK    6  A    between atoms: C_13  and  C_11 
REMARK    7  A    between atoms: O_33  and  C_11 
REMARK    8  A    between atoms: C_17  and  C_16 
REMARK       I    between atoms: N_24  and  C_17 
REMARK    9  A    between atoms: O_33  and  C_18 
REMARK   10  A    between atoms: N_27  and  C_19 
REMARK   11  A    between atoms: N_27  and  C_20 
REMARK   12  A    between atoms: O_32  and  C_20 
ROOT
HETATM    1  C   UNK N   1      32.792  16.196   8.315  0.00  0.00     0.118 A 
HETATM    2  C   UNK N   1      32.057  15.421   7.291  0.00  0.00     0.167 A 
HETATM    3  C   UNK N   1      33.414  15.343   9.255  0.00  0.00     0.114 A 
HETATM    4  N   UNK N   1      32.119  14.070   7.449  0.00  0.00    -0.304 N 
ATOM      5  HN  UNK N   1      31.685  13.359   6.861  1.00  0.00     0.176 HD
HETATM    6  S   UNK N   1      33.036  13.826   8.774  0.00  0.00     0.007 SA
ENDROOT
BRANCH   3   7
HETATM    7  N   UNK N   1      34.153  15.795  10.397  0.00  0.00    -0.315 N 
HETATM    8  H   UNK N   1      33.574  15.818  11.193  0.00  0.00     0.170 HD
BRANCH   7   9
HETATM    9  C   UNK N   1      35.483  16.225  10.733  0.00  0.00     0.217 C 
HETATM   10  N   UNK N   1      36.398  15.490  11.280  0.00  0.00    -0.356 N 
ATOM     11  HN  UNK N   1      37.284  15.951  11.490  1.00  0.00     0.163 HD
BRANCH  10  12
HETATM   12  C   UNK N   1      36.305  14.106  11.623  0.00  0.00     0.123 C 
BRANCH  12  13
HETATM   13  C   UNK N   1      35.597  13.956  12.958  0.00  0.00     0.021 C 
BRANCH  13  14
HETATM   14  C   UNK N   1      36.455  14.521  14.083  0.00  0.00     0.032 C 
BRANCH  14  15
HETATM   15  C   UNK N   1      36.872  13.442  15.074  0.00  0.00     0.272 C 
BRANCH  15  16
HETATM   16  N   UNK N   1      35.733  13.045  15.888  0.00  0.00     0.088 N 
HETATM   17  C   UNK N   1      35.966  11.699  16.375  0.00  0.00     0.272 C 
HETATM   18  C   UNK N   1      35.266  11.600  17.714  0.00  0.00     0.032 C 
HETATM   19  C   UNK N   1      35.107  13.029  18.183  0.00  0.00     0.032 C 
HETATM   20  C   UNK N   1      35.730  13.865  17.089  0.00  0.00     0.272 C 
ENDBRANCH  15  16
ENDBRANCH  14  15
ENDBRANCH  13  14
ENDBRANCH  12  13
ENDBRANCH  10  12
BRANCH   9  21
HETATM   21  O   UNK N   1      35.795  17.508  10.473  0.00  0.00    -0.333 OA
HETATM   22  H   UNK N   1      35.134  18.127  10.230  0.00  0.00     0.220 HD
ENDBRANCH   9  21
ENDBRANCH   7   9
ENDBRANCH   3   7
BRANCH   1  23
HETATM   23  C   UNK N   1      32.908  17.694   8.452  0.00  0.00     0.256 C 
HETATM   24  N   UNK N   1      31.836  18.426   8.817  0.00  0.00    -0.366 N 
HETATM   25  H   UNK N   1      30.941  18.015   8.834  0.00  0.00     0.159 HD
HETATM   26  H   UNK N   1      31.947  19.371   9.067  0.00  0.00     0.159 HD
HETATM   27  O   UNK N   1      33.945  18.278   8.218  0.00  0.00    -0.268 OA
ENDBRANCH   1  23
BRANCH   2  28
HETATM   28  O   UNK N   1      31.349  15.893   6.236  0.00  0.00    -0.330 OA
BRANCH  28  29
HETATM   29  C   UNK N   1      30.013  15.737   5.996  0.00  0.00     0.222 C 
BRANCH  29  30
HETATM   30  C   UNK N   1      29.251  17.032   5.942  0.00  0.00     0.043 A 
HETATM   31  C   UNK N   1      28.846  17.596   7.161  0.00  0.00     0.129 A 
HETATM   32  C   UNK N   1      28.145  18.802   7.182  0.00  0.00     0.062 A 
HETATM   33  F   UNK N   1      29.135  16.975   8.333  0.00  0.00    -0.205 F 
HETATM   34  C   UNK N   1      27.841  19.457   5.990  0.00  0.00     0.016 A 
HETATM   35  C   UNK N   1      28.232  18.905   4.769  0.00  0.00     0.062 A 
HETATM   36 Br   UNK N   1      26.894  21.109   6.032  0.00  0.00    -0.051 Br
HETATM   37  C   UNK N   1      28.934  17.697   4.734  0.00  0.00     0.129 A 
HETATM   38  F   UNK N   1      29.300  17.193   3.528  0.00  0.00    -0.205 F 
ENDBRANCH  29  30
ENDBRANCH  28  29
ENDBRANCH   2  28
TORSDOF 12
ENDMDL
MODEL 4
REMARK VINA RESULT:      -7.3      0.879      1.830
REMARK  12 active torsions:
REMARK  status: ('A' for Active; 'I' for Inactive)
REMARK    1  A    between atoms: C_2  and  C_1 
REMARK    2  A    between atoms: C_5  and  C_1 
REMARK    3  A    between atoms: C_6  and  C_2 
REMARK    4  A    between atoms: N_25  and  C_5 
REMARK    5  A    between atoms: N_30  and  C_6 
REMARK    6  A    between atoms: C_13  and  C_11 
REMARK    7  A    between atoms: O_33  and  C_11 
REMARK    8  A    between atoms: C_17  and  C_16 
REMARK       I    between atoms: N_24  and  C_17 
REMARK    9  A    between atoms: O_33  and  C_18 
REMARK   10  A    between atoms: N_27  and  C_19 
REMARK   11  A    between atoms: N_27  and  C_20 
REMARK   12  A    between atoms: O_32  and  C_20 
ROOT
HETATM    1  C   UNK N   1      34.750  15.163   9.967  0.00  0.00     0.118 A 
HETATM    2  C   UNK N   1      34.188  13.961  10.621  0.00  0.00     0.167 A 
HETATM    3  C   UNK N   1      34.270  15.298   8.643  0.00  0.00     0.114 A 
HETATM    4  N   UNK N   1      33.339  13.235   9.841  0.00  0.00    -0.304 N 
ATOM      5  HN  UNK N   1      32.849  12.377  10.095  1.00  0.00     0.176 HD
HETATM    6  S   UNK N   1      33.269  14.025   8.418  0.00  0.00     0.007 SA
ENDROOT
BRANCH   3   7
HETATM    7  N   UNK N   1      34.675  16.331   7.735  0.00  0.00    -0.315 N 
HETATM    8  H   UNK N   1      35.511  16.079   7.281  0.00  0.00     0.170 HD
BRANCH   7   9
HETATM    9  C   UNK N   1      34.229  17.623   7.287  0.00  0.00     0.217 C 
HETATM   10  N   UNK N   1      33.297  17.838   6.415  0.00  0.00    -0.356 N 
ATOM     11  HN  UNK N   1      33.119  18.813   6.173  1.00  0.00     0.163 HD
BRANCH  10  12
HETATM   12  C   UNK N   1      32.491  16.862   5.751  0.00  0.00     0.123 C 
BRANCH  12  13
HETATM   13  C   UNK N   1      31.803  17.495   4.555  0.00  0.00     0.021 C 
BRANCH  13  14
HETATM   14  C   UNK N   1      30.294  17.302   4.644  0.00  0.00     0.032 C 
BRANCH  14  15
HETATM   15  C   UNK N   1      29.905  16.402   5.811  0.00  0.00     0.272 C 
BRANCH  15  16
HETATM   16  N   UNK N   1      28.845  17.024   6.588  0.00  0.00     0.088 N 
HETATM   17  C   UNK N   1      29.413  17.509   7.831  0.00  0.00     0.272 C 
HETATM   18  C   UNK N   1      28.602  18.724   8.230  0.00  0.00     0.032 C 
HETATM   19  C   UNK N   1      27.944  19.196   6.952  0.00  0.00     0.032 C 
HETATM   20  C   UNK N   1      28.421  18.229   5.893  0.00  0.00     0.272 C 
ENDBRANCH  15  16
ENDBRANCH  14  15
ENDBRANCH  13  14
ENDBRANCH  12  13
ENDBRANCH  10  12
BRANCH   9  21
HETATM   21  O   UNK N   1      34.851  18.697   7.805  0.00  0.00    -0.333 OA
HETATM   22  H   UNK N   1      35.169  19.385   7.254  0.00  0.00     0.220 HD
ENDBRANCH   9  21
ENDBRANCH   7   9
ENDBRANCH   3   7
BRANCH   1  23
HETATM   23  C   UNK N   1      35.730  16.164  10.528  0.00  0.00     0.256 C 
HETATM   24  N   UNK N   1      36.776  15.744  11.269  0.00  0.00    -0.366 N 
HETATM   25  H   UNK N   1      36.815  14.813  11.585  0.00  0.00     0.159 HD
HETATM   26  H   UNK N   1      37.502  16.370  11.494  0.00  0.00     0.159 HD
HETATM   27  O   UNK N   1      35.595  17.356  10.353  0.00  0.00    -0.268 OA
ENDBRANCH   1  23
BRANCH   2  28
HETATM   28  O   UNK N   1      34.413  13.514  11.880  0.00  0.00    -0.330 OA
BRANCH  28  29
HETATM   29  C   UNK N   1      35.023  12.349  12.251  0.00  0.00     0.222 C 
BRANCH  29  30
HETATM   30  C   UNK N   1      35.132  12.168  13.740  0.00  0.00     0.043 A 
HETATM   31  C   UNK N   1      34.325  11.186  14.334  0.00  0.00     0.129 A 
HETATM   32  C   UNK N   1      34.385  10.959  15.709  0.00  0.00     0.062 A 
HETATM   33  F   UNK N   1      33.479  10.443  13.575  0.00  0.00    -0.205 F 
HETATM   34  C   UNK N   1      35.248  11.710  16.505  0.00  0.00     0.016 A 
HETATM   35  C   UNK N   1      36.053  12.695  15.930  0.00  0.00     0.062 A 
HETATM   36 Br   UNK N   1      35.331  11.384  18.380  0.00  0.00    -0.051 Br
HETATM   37  C   UNK N   1      36.001  12.931  14.554  0.00  0.00     0.129 A 
HETATM   38  F   UNK N   1      36.800  13.896  14.030  0.00  0.00    -0.205 F 
ENDBRANCH  29  30
ENDBRANCH  28  29
ENDBRANCH   2  28
TORSDOF 12
ENDMDL
MODEL 5
REMARK VINA RESULT:      -7.1      4.091      9.121
REMARK  12 active torsions:
REMARK  status: ('A' for Active; 'I' for Inactive)
REMARK    1  A    between atoms: C_2  and  C_1 
REMARK    2  A    between atoms: C_5  and  C_1 
REMARK    3  A    between atoms: C_6  and  C_2 
REMARK    4  A    between atoms: N_25  and  C_5 
REMARK    5  A    between atoms: N_30  and  C_6 
REMARK    6  A    between atoms: C_13  and  C_11 
REMARK    7  A    between atoms: O_33  and  C_11 
REMARK    8  A    between atoms: C_17  and  C_16 
REMARK       I    between atoms: N_24  and  C_17 
REMARK    9  A    between atoms: O_33  and  C_18 
REMARK   10  A    between atoms: N_27  and  C_19 
REMARK   11  A    between atoms: N_27  and  C_20 
REMARK   12  A    between atoms: O_32  and  C_20 
ROOT
HETATM    1  C   UNK N   1      35.055  15.106   9.408  0.00  0.00     0.118 A 
HETATM    2  C   UNK N   1      34.711  15.196   7.972  0.00  0.00     0.167 A 
HETATM    3  C   UNK N   1      34.746  13.828   9.930  0.00  0.00     0.114 A 
HETATM    4  N   UNK N   1      34.177  14.060   7.444  0.00  0.00    -0.304 N 
ATOM      5  HN  UNK N   1      33.872  13.911   6.482  1.00  0.00     0.176 HD
HETATM    6  S   UNK N   1      34.131  12.987   8.670  0.00  0.00     0.007 SA
ENDROOT
BRANCH   3   7
HETATM    7  N   UNK N   1      34.912  13.450  11.302  0.00  0.00    -0.315 N 
HETATM    8  H   UNK N   1      34.066  13.559  11.793  0.00  0.00     0.170 HD
BRANCH   7   9
HETATM    9  C   UNK N   1      35.941  12.961  12.180  0.00  0.00     0.217 C 
HETATM   10  N   UNK N   1      35.842  11.930  12.956  0.00  0.00    -0.356 N 
ATOM     11  HN  UNK N   1      36.649  11.729  13.548  1.00  0.00     0.163 HD
BRANCH  10  12
HETATM   12  C   UNK N   1      34.729  11.042  13.078  0.00  0.00     0.123 C 
BRANCH  12  13
HETATM   13  C   UNK N   1      33.978  11.336  14.363  0.00  0.00     0.021 C 
BRANCH  13  14
HETATM   14  C   UNK N   1      34.953  11.579  15.508  0.00  0.00     0.032 C 
BRANCH  14  15
HETATM   15  C   UNK N   1      34.651  12.878  16.245  0.00  0.00     0.272 C 
BRANCH  15  16
HETATM   16  N   UNK N   1      35.884  13.463  16.749  0.00  0.00     0.088 N 
HETATM   17  C   UNK N   1      36.512  14.204  15.672  0.00  0.00     0.272 C 
HETATM   18  C   UNK N   1      37.268  15.345  16.319  0.00  0.00     0.032 C 
HETATM   19  C   UNK N   1      36.626  15.524  17.677  0.00  0.00     0.032 C 
HETATM   20  C   UNK N   1      35.534  14.480  17.728  0.00  0.00     0.272 C 
ENDBRANCH  15  16
ENDBRANCH  14  15
ENDBRANCH  13  14
ENDBRANCH  12  13
ENDBRANCH  10  12
BRANCH   9  21
HETATM   21  O   UNK N   1      37.098  13.648  12.210  0.00  0.00    -0.333 OA
HETATM   22  H   UNK N   1      37.306  14.273  11.544  0.00  0.00     0.220 HD
ENDBRANCH   9  21
ENDBRANCH   7   9
ENDBRANCH   3   7
BRANCH   1  23
HETATM   23  C   UNK N   1      35.632  16.174  10.302  0.00  0.00     0.256 C 
HETATM   24  N   UNK N   1      34.889  17.248  10.642  0.00  0.00    -0.366 N 
HETATM   25  H   UNK N   1      34.037  17.423  10.182  0.00  0.00     0.159 HD
HETATM   26  H   UNK N   1      35.199  17.857  11.351  0.00  0.00     0.159 HD
HETATM   27  O   UNK N   1      36.770  16.114  10.716  0.00  0.00    -0.268 OA
ENDBRANCH   1  23
BRANCH   2  28
HETATM   28  O   UNK N   1      34.868  16.255   7.141  0.00  0.00    -0.330 OA
BRANCH  28  29
HETATM   29  C   UNK N   1      34.191  17.442   7.170  0.00  0.00     0.222 C 
BRANCH  29  30
HETATM   30  C   UNK N   1      32.781  17.349   6.658  0.00  0.00     0.043 A 
HETATM   31  C   UNK N   1      31.755  17.210   7.606  0.00  0.00     0.129 A 
HETATM   32  C   UNK N   1      30.424  17.130   7.198  0.00  0.00     0.062 A 
HETATM   33  F   UNK N   1      32.049  17.157   8.930  0.00  0.00    -0.205 F 
HETATM   34  C   UNK N   1      30.101  17.185   5.844  0.00  0.00     0.016 A 
HETATM   35  C   UNK N   1      31.110  17.316   4.888  0.00  0.00     0.062 A 
HETATM   36 Br   UNK N   1      28.278  17.086   5.299  0.00  0.00    -0.051 Br
HETATM   37  C   UNK N   1      32.448  17.398   5.284  0.00  0.00     0.129 A 
HETATM   38  F   UNK N   1      33.402  17.527   4.327  0.00  0.00    -0.205 F 
ENDBRANCH  29  30
ENDBRANCH  28  29
ENDBRANCH   2  28
TORSDOF 12
ENDMDL
MODEL 6
REMARK VINA RESULT:      -7.1      4.132      9.197
REMARK  12 active torsions:
REMARK  status: ('A' for Active; 'I' for Inactive)
REMARK    1  A    between atoms: C_2  and  C_1 
REMARK    2  A    between atoms: C_5  and  C_1 
REMARK    3  A    between atoms: C_6  and  C_2 
REMARK    4  A    between atoms: N_25  and  C_5 
REMARK    5  A    between atoms: N_30  and  C_6 
REMARK    6  A    between atoms: C_13  and  C_11 
REMARK    7  A    between atoms: O_33  and  C_11 
REMARK    8  A    between atoms: C_17  and  C_16 
REMARK       I    between atoms: N_24  and  C_17 
REMARK    9  A    between atoms: O_33  and  C_18 
REMARK   10  A    between atoms: N_27  and  C_19 
REMARK   11  A    between atoms: N_27  and  C_20 
REMARK   12  A    between atoms: O_32  and  C_20 
ROOT
HETATM    1  C   UNK N   1      35.254  15.090   9.084  0.00  0.00     0.118 A 
HETATM    2  C   UNK N   1      34.870  15.363   7.681  0.00  0.00     0.167 A 
HETATM    3  C   UNK N   1      35.176  13.708   9.376  0.00  0.00     0.114 A 
HETATM    4  N   UNK N   1      34.524  14.260   6.962  0.00  0.00    -0.304 N 
ATOM      5  HN  UNK N   1      34.227  14.227   5.986  1.00  0.00     0.176 HD
HETATM    6  S   UNK N   1      34.685  13.002   7.986  0.00  0.00     0.007 SA
ENDROOT
BRANCH   3   7
HETATM    7  N   UNK N   1      35.433  13.136  10.665  0.00  0.00    -0.315 N 
HETATM    8  H   UNK N   1      36.170  12.487  10.611  0.00  0.00     0.170 HD
BRANCH   7   9
HETATM    9  C   UNK N   1      34.939  13.224  12.013  0.00  0.00     0.217 C 
HETATM   10  N   UNK N   1      34.496  12.235  12.720  0.00  0.00    -0.356 N 
ATOM     11  HN  UNK N   1      34.146  12.463  13.650  1.00  0.00     0.163 HD
BRANCH  10  12
HETATM   12  C   UNK N   1      34.440  10.858  12.341  0.00  0.00     0.123 C 
BRANCH  12  13
HETATM   13  C   UNK N   1      34.575   9.983  13.574  0.00  0.00     0.021 C 
BRANCH  13  14
HETATM   14  C   UNK N   1      34.005  10.691  14.797  0.00  0.00     0.032 C 
BRANCH  14  15
HETATM   15  C   UNK N   1      34.658  10.211  16.087  0.00  0.00     0.272 C 
BRANCH  15  16
HETATM   16  N   UNK N   1      35.413  11.294  16.697  0.00  0.00     0.088 N 
HETATM   17  C   UNK N   1      34.819  12.552  16.287  0.00  0.00     0.272 C 
HETATM   18  C   UNK N   1      35.054  13.528  17.421  0.00  0.00     0.032 C 
HETATM   19  C   UNK N   1      35.305  12.665  18.638  0.00  0.00     0.032 C 
HETATM   20  C   UNK N   1      35.193  11.245  18.134  0.00  0.00     0.272 C 
ENDBRANCH  15  16
ENDBRANCH  14  15
ENDBRANCH  13  14
ENDBRANCH  12  13
ENDBRANCH  10  12
BRANCH   9  21
HETATM   21  O   UNK N   1      34.920  14.445  12.579  0.00  0.00    -0.333 OA
HETATM   22  H   UNK N   1      35.232  14.579  13.452  0.00  0.00     0.220 HD
ENDBRANCH   9  21
ENDBRANCH   7   9
ENDBRANCH   3   7
BRANCH   1  23
HETATM   23  C   UNK N   1      35.663  16.073  10.152  0.00  0.00     0.256 C 
HETATM   24  N   UNK N   1      34.786  16.998  10.592  0.00  0.00    -0.366 N 
HETATM   25  H   UNK N   1      33.940  17.145  10.109  0.00  0.00     0.159 HD
HETATM   26  H   UNK N   1      34.991  17.527  11.397  0.00  0.00     0.159 HD
HETATM   27  O   UNK N   1      36.781  16.077  10.622  0.00  0.00    -0.268 OA
ENDBRANCH   1  23
BRANCH   2  28
HETATM   28  O   UNK N   1      34.829  16.560   7.045  0.00  0.00    -0.330 OA
BRANCH  28  29
HETATM   29  C   UNK N   1      33.957  17.588   7.264  0.00  0.00     0.222 C 
BRANCH  29  30
HETATM   30  C   UNK N   1      32.570  17.328   6.745  0.00  0.00     0.043 A 
HETATM   31  C   UNK N   1      32.357  17.470   5.365  0.00  0.00     0.129 A 
HETATM   32  C   UNK N   1      31.097  17.233   4.817  0.00  0.00     0.062 A 
HETATM   33  F   UNK N   1      33.379  17.836   4.549  0.00  0.00    -0.205 F 
HETATM   34  C   UNK N   1      30.036  16.854   5.638  0.00  0.00     0.016 A 
HETATM   35  C   UNK N   1      30.230  16.715   7.013  0.00  0.00     0.062 A 
HETATM   36 Br   UNK N   1      28.322  16.521   4.877  0.00  0.00    -0.051 Br
HETATM   37  C   UNK N   1      31.488  16.950   7.575  0.00  0.00     0.129 A 
HETATM   38  F   UNK N   1      31.639  16.802   8.915  0.00  0.00    -0.205 F 
ENDBRANCH  29  30
ENDBRANCH  28  29
ENDBRANCH   2  28
TORSDOF 12
ENDMDL
MODEL 7
REMARK VINA RESULT:      -6.9      4.691      9.395
REMARK  12 active torsions:
REMARK  status: ('A' for Active; 'I' for Inactive)
REMARK    1  A    between atoms: C_2  and  C_1 
REMARK    2  A    between atoms: C_5  and  C_1 
REMARK    3  A    between atoms: C_6  and  C_2 
REMARK    4  A    between atoms: N_25  and  C_5 
REMARK    5  A    between atoms: N_30  and  C_6 
REMARK    6  A    between atoms: C_13  and  C_11 
REMARK    7  A    between atoms: O_33  and  C_11 
REMARK    8  A    between atoms: C_17  and  C_16 
REMARK       I    between atoms: N_24  and  C_17 
REMARK    9  A    between atoms: O_33  and  C_18 
REMARK   10  A    between atoms: N_27  and  C_19 
REMARK   11  A    between atoms: N_27  and  C_20 
REMARK   12  A    between atoms: O_32  and  C_20 
ROOT
HETATM    1  C   UNK N   1      32.885  16.046   6.383  0.00  0.00     0.118 A 
HETATM    2  C   UNK N   1      31.796  15.098   6.060  0.00  0.00     0.167 A 
HETATM    3  C   UNK N   1      33.615  15.621   7.517  0.00  0.00     0.114 A 
HETATM    4  N   UNK N   1      31.709  14.027   6.897  0.00  0.00    -0.304 N 
ATOM      5  HN  UNK N   1      31.035  13.263   6.854  1.00  0.00     0.176 HD
HETATM    6  S   UNK N   1      32.911  14.220   7.981  0.00  0.00     0.007 SA
ENDROOT
BRANCH   3   7
HETATM    7  N   UNK N   1      34.694  16.356   8.109  0.00  0.00    -0.315 N 
HETATM    8  H   UNK N   1      35.539  16.154   7.647  0.00  0.00     0.170 HD
BRANCH   7   9
HETATM    9  C   UNK N   1      34.916  17.298   9.173  0.00  0.00     0.217 C 
HETATM   10  N   UNK N   1      34.935  17.018  10.436  0.00  0.00    -0.356 N 
ATOM     11  HN  UNK N   1      35.070  17.804  11.073  1.00  0.00     0.163 HD
BRANCH  10  12
HETATM   12  C   UNK N   1      34.789  15.731  11.040  0.00  0.00     0.123 C 
BRANCH  12  13
HETATM   13  C   UNK N   1      36.154  15.091  11.219  0.00  0.00     0.021 C 
BRANCH  13  14
HETATM   14  C   UNK N   1      36.181  14.237  12.480  0.00  0.00     0.032 C 
BRANCH  14  15
HETATM   15  C   UNK N   1      35.088  13.176  12.470  0.00  0.00     0.272 C 
BRANCH  15  16
HETATM   16  N   UNK N   1      35.221  12.312  13.633  0.00  0.00     0.088 N 
HETATM   17  C   UNK N   1      36.533  11.696  13.596  0.00  0.00     0.272 C 
HETATM   18  C   UNK N   1      36.941  11.468  15.037  0.00  0.00     0.032 C 
HETATM   19  C   UNK N   1      36.093  12.426  15.844  0.00  0.00     0.032 C 
HETATM   20  C   UNK N   1      35.253  13.153  14.820  0.00  0.00     0.272 C 
ENDBRANCH  15  16
ENDBRANCH  14  15
ENDBRANCH  13  14
ENDBRANCH  12  13
ENDBRANCH  10  12
BRANCH   9  21
HETATM   21  O   UNK N   1      35.098  18.584   8.822  0.00  0.00    -0.333 OA
HETATM   22  H   UNK N   1      34.393  19.096   8.478  0.00  0.00     0.220 HD
ENDBRANCH   9  21
ENDBRANCH   7   9
ENDBRANCH   3   7
BRANCH   1  23
HETATM   23  C   UNK N   1      33.243  17.334   5.685  0.00  0.00     0.256 C 
HETATM   24  N   UNK N   1      32.510  17.762   4.636  0.00  0.00    -0.366 N 
HETATM   25  H   UNK N   1      31.850  17.164   4.218  0.00  0.00     0.159 HD
HETATM   26  H   UNK N   1      32.637  18.675   4.288  0.00  0.00     0.159 HD
HETATM   27  O   UNK N   1      34.197  18.001   6.025  0.00  0.00    -0.268 OA
ENDBRANCH   1  23
BRANCH   2  28
HETATM   28  O   UNK N   1      30.899  15.170   5.046  0.00  0.00    -0.330 OA
BRANCH  28  29
HETATM   29  C   UNK N   1      29.537  15.228   5.145  0.00  0.00     0.222 C 
BRANCH  29  30
HETATM   30  C   UNK N   1      29.003  16.616   5.362  0.00  0.00     0.043 A 
HETATM   31  C   UNK N   1      28.524  17.309   4.240  0.00  0.00     0.129 A 
HETATM   32  C   UNK N   1      28.004  18.597   4.375  0.00  0.00     0.062 A 
HETATM   33  F   UNK N   1      28.558  16.731   3.013  0.00  0.00    -0.205 F 
HETATM   34  C   UNK N   1      27.959  19.207   5.627  0.00  0.00     0.016 A 
HETATM   35  C   UNK N   1      28.438  18.533   6.752  0.00  0.00     0.062 A 
HETATM   36 Br   UNK N   1      27.236  20.961   5.801  0.00  0.00    -0.051 Br
HETATM   37  C   UNK N   1      28.961  17.242   6.630  0.00  0.00     0.129 A 
HETATM   38  F   UNK N   1      29.415  16.618   7.746  0.00  0.00    -0.205 F 
ENDBRANCH  29  30
ENDBRANCH  28  29
ENDBRANCH   2  28
TORSDOF 12
ENDMDL
MODEL 8
REMARK VINA RESULT:      -6.9      4.379      9.573
REMARK  12 active torsions:
REMARK  status: ('A' for Active; 'I' for Inactive)
REMARK    1  A    between atoms: C_2  and  C_1 
REMARK    2  A    between atoms: C_5  and  C_1 
REMARK    3  A    between atoms: C_6  and  C_2 
REMARK    4  A    between atoms: N_25  and  C_5 
REMARK    5  A    between atoms: N_30  and  C_6 
REMARK    6  A    between atoms: C_13  and  C_11 
REMARK    7  A    between atoms: O_33  and  C_11 
REMARK    8  A    between atoms: C_17  and  C_16 
REMARK       I    between atoms: N_24  and  C_17 
REMARK    9  A    between atoms: O_33  and  C_18 
REMARK   10  A    between atoms: N_27  and  C_19 
REMARK   11  A    between atoms: N_27  and  C_20 
REMARK   12  A    between atoms: O_32  and  C_20 
ROOT
HETATM    1  C   UNK N   1      34.366  14.725   9.813  0.00  0.00     0.118 A 
HETATM    2  C   UNK N   1      34.347  15.961   9.001  0.00  0.00     0.167 A 
HETATM    3  C   UNK N   1      34.996  14.942  11.061  0.00  0.00     0.114 A 
HETATM    4  N   UNK N   1      34.924  17.041   9.597  0.00  0.00    -0.304 N 
ATOM      5  HN  UNK N   1      35.019  17.982   9.212  1.00  0.00     0.176 HD
HETATM    6  S   UNK N   1      35.432  16.518  11.054  0.00  0.00     0.007 SA
ENDROOT
BRANCH   3   7
HETATM    7  N   UNK N   1      35.218  13.923  12.045  0.00  0.00    -0.315 N 
HETATM    8  H   UNK N   1      34.388  13.738  12.540  0.00  0.00     0.170 HD
BRANCH   7   9
HETATM    9  C   UNK N   1      36.286  13.090  12.527  0.00  0.00     0.217 C 
HETATM   10  N   UNK N   1      36.874  13.206  13.674  0.00  0.00    -0.356 N 
ATOM     11  HN  UNK N   1      37.642  12.559  13.858  1.00  0.00     0.163 HD
BRANCH  10  12
HETATM   12  C   UNK N   1      36.569  14.139  14.712  0.00  0.00     0.123 C 
BRANCH  12  13
HETATM   13  C   UNK N   1      36.339  13.397  16.017  0.00  0.00     0.021 C 
BRANCH  13  14
HETATM   14  C   UNK N   1      34.963  12.744  16.023  0.00  0.00     0.032 C 
BRANCH  14  15
HETATM   15  C   UNK N   1      35.009  11.331  16.593  0.00  0.00     0.272 C 
BRANCH  15  16
HETATM   16  N   UNK N   1      34.509  10.381  15.612  0.00  0.00     0.088 N 
HETATM   17  C   UNK N   1      33.743  11.110  14.619  0.00  0.00     0.272 C 
HETATM   18  C   UNK N   1      33.891  10.348  13.319  0.00  0.00     0.032 C 
HETATM   19  C   UNK N   1      35.143   9.516  13.488  0.00  0.00     0.032 C 
HETATM   20  C   UNK N   1      35.645   9.854  14.873  0.00  0.00     0.272 C 
ENDBRANCH  15  16
ENDBRANCH  14  15
ENDBRANCH  13  14
ENDBRANCH  12  13
ENDBRANCH  10  12
BRANCH   9  21
HETATM   21  O   UNK N   1      36.724  12.119  11.704  0.00  0.00    -0.333 OA
HETATM   22  H   UNK N   1      36.981  11.282  12.037  0.00  0.00     0.220 HD
ENDBRANCH   9  21
ENDBRANCH   7   9
ENDBRANCH   3   7
BRANCH   1  23
HETATM   23  C   UNK N   1      33.842  13.358   9.451  0.00  0.00     0.256 C 
HETATM   24  N   UNK N   1      32.580  13.215   8.998  0.00  0.00    -0.366 N 
HETATM   25  H   UNK N   1      31.946  13.966   9.057  0.00  0.00     0.159 HD
HETATM   26  H   UNK N   1      32.292  12.358   8.607  0.00  0.00     0.159 HD
HETATM   27  O   UNK N   1      34.520  12.361   9.578  0.00  0.00    -0.268 OA
ENDBRANCH   1  23
BRANCH   2  28
HETATM   28  O   UNK N   1      33.827  16.138   7.761  0.00  0.00    -0.330 OA
BRANCH  28  29
HETATM   29  C   UNK N   1      33.533  17.322   7.145  0.00  0.00     0.222 C 
BRANCH  29  30
HETATM   30  C   UNK N   1      32.256  17.292   6.352  0.00  0.00     0.043 A 
HETATM   31  C   UNK N   1      31.059  17.100   7.058  0.00  0.00     0.129 A 
HETATM   32  C   UNK N   1      29.838  17.074   6.383  0.00  0.00     0.062 A 
HETATM   33  F   UNK N   1      31.076  16.943   8.406  0.00  0.00    -0.205 F 
HETATM   34  C   UNK N   1      29.798  17.236   5.000  0.00  0.00     0.016 A 
HETATM   35  C   UNK N   1      30.982  17.421   4.282  0.00  0.00     0.062 A 
HETATM   36 Br   UNK N   1      28.125  17.210   4.090  0.00  0.00    -0.051 Br
HETATM   37  C   UNK N   1      32.211  17.450   4.947  0.00  0.00     0.129 A 
HETATM   38  F   UNK N   1      33.340  17.634   4.216  0.00  0.00    -0.205 F 
ENDBRANCH  29  30
ENDBRANCH  28  29
ENDBRANCH   2  28
TORSDOF 12
ENDMDL
MODEL 9
REMARK VINA RESULT:      -6.8      3.534      4.356
REMARK  12 active torsions:
REMARK  status: ('A' for Active; 'I' for Inactive)
REMARK    1  A    between atoms: C_2  and  C_1 
REMARK    2  A    between atoms: C_5  and  C_1 
REMARK    3  A    between atoms: C_6  and  C_2 
REMARK    4  A    between atoms: N_25  and  C_5 
REMARK    5  A    between atoms: N_30  and  C_6 
REMARK    6  A    between atoms: C_13  and  C_11 
REMARK    7  A    between atoms: O_33  and  C_11 
REMARK    8  A    between atoms: C_17  and  C_16 
REMARK       I    between atoms: N_24  and  C_17 
REMARK    9  A    between atoms: O_33  and  C_18 
REMARK   10  A    between atoms: N_27  and  C_19 
REMARK   11  A    between atoms: N_27  and  C_20 
REMARK   12  A    between atoms: O_32  and  C_20 
ROOT
HETATM    1  C   UNK N   1      34.601  15.326  10.166  0.00  0.00     0.118 A 
HETATM    2  C   UNK N   1      34.366  13.875  10.331  0.00  0.00     0.167 A 
HETATM    3  C   UNK N   1      33.610  15.916   9.347  0.00  0.00     0.114 A 
HETATM    4  N   UNK N   1      33.269  13.400   9.678  0.00  0.00    -0.304 N 
ATOM      5  HN  UNK N   1      32.931  12.437   9.659  1.00  0.00     0.176 HD
HETATM    6  S   UNK N   1      32.607  14.692   8.937  0.00  0.00     0.007 SA
ENDROOT
BRANCH   3   7
HETATM    7  N   UNK N   1      33.596  17.295   8.957  0.00  0.00    -0.315 N 
HETATM    8  H   UNK N   1      33.056  17.824   9.587  0.00  0.00     0.170 HD
BRANCH   7   9
HETATM    9  C   UNK N   1      34.132  18.141   7.924  0.00  0.00     0.217 C 
HETATM   10  N   UNK N   1      34.001  17.950   6.651  0.00  0.00    -0.356 N 
ATOM     11  HN  UNK N   1      34.471  18.621   6.042  1.00  0.00     0.163 HD
BRANCH  10  12
HETATM   12  C   UNK N   1      33.273  16.906   6.002  0.00  0.00     0.123 C 
BRANCH  12  13
HETATM   13  C   UNK N   1      32.547  17.464   4.791  0.00  0.00     0.021 C 
BRANCH  13  14
HETATM   14  C   UNK N   1      31.040  17.435   5.013  0.00  0.00     0.032 C 
BRANCH  14  15
HETATM   15  C   UNK N   1      30.627  16.312   5.957  0.00  0.00     0.272 C 
BRANCH  15  16
HETATM   16  N   UNK N   1      29.581  16.776   6.856  0.00  0.00     0.088 N 
HETATM   17  C   UNK N   1      30.202  17.528   7.930  0.00  0.00     0.272 C 
HETATM   18  C   UNK N   1      29.193  18.572   8.361  0.00  0.00     0.032 C 
HETATM   19  C   UNK N   1      28.253  18.722   7.186  0.00  0.00     0.032 C 
HETATM   20  C   UNK N   1      28.779  17.760   6.146  0.00  0.00     0.272 C 
ENDBRANCH  15  16
ENDBRANCH  14  15
ENDBRANCH  13  14
ENDBRANCH  12  13
ENDBRANCH  10  12
BRANCH   9  21
HETATM   21  O   UNK N   1      34.848  19.209   8.319  0.00  0.00    -0.333 OA
HETATM   22  H   UNK N   1      35.273  19.225   9.154  0.00  0.00     0.220 HD
ENDBRANCH   9  21
ENDBRANCH   7   9
ENDBRANCH   3   7
BRANCH   1  23
HETATM   23  C   UNK N   1      35.725  16.163  10.724  0.00  0.00     0.256 C 
HETATM   24  N   UNK N   1      36.669  15.596  11.504  0.00  0.00    -0.366 N 
HETATM   25  H   UNK N   1      36.541  14.682  11.847  0.00  0.00     0.159 HD
HETATM   26  H   UNK N   1      37.486  16.096  11.730  0.00  0.00     0.159 HD
HETATM   27  O   UNK N   1      35.800  17.354  10.512  0.00  0.00    -0.268 OA
ENDBRANCH   1  23
BRANCH   2  28
HETATM   28  O   UNK N   1      35.099  12.986  11.045  0.00  0.00    -0.330 OA
BRANCH  28  29
HETATM   29  C   UNK N   1      35.837  11.942  10.564  0.00  0.00     0.222 C 
BRANCH  29  30
HETATM   30  C   UNK N   1      36.888  12.348   9.570  0.00  0.00     0.043 A 
HETATM   31  C   UNK N   1      38.143  12.728  10.071  0.00  0.00     0.129 A 
HETATM   32  C   UNK N   1      39.166  13.105   9.201  0.00  0.00     0.062 A 
HETATM   33  F   UNK N   1      38.374  12.727  11.408  0.00  0.00    -0.205 F 
HETATM   34  C   UNK N   1      38.949  13.110   7.824  0.00  0.00     0.016 A 
HETATM   35  C   UNK N   1      37.704  12.741   7.310  0.00  0.00     0.062 A 
HETATM   36 Br   UNK N   1      40.357  13.615   6.645  0.00  0.00    -0.051 Br
HETATM   37  C   UNK N   1      36.671  12.361   8.172  0.00  0.00     0.129 A 
HETATM   38  F   UNK N   1      35.476  12.006   7.635  0.00  0.00    -0.205 F 
ENDBRANCH  29  30
ENDBRANCH  28  29
ENDBRANCH   2  28
TORSDOF 12
ENDMDL
