MODEL 1
REMARK VINA RESULT:      -7.1      0.000      0.000
REMARK  10 active torsions:
REMARK  status: ('A' for Active; 'I' for Inactive)
REMARK    1  A    between atoms: C_7  and  C_5 
REMARK    2  A    between atoms: O_29  and  C_5 
REMARK    3  A    between atoms: O_32  and  C_7 
REMARK    4  A    between atoms: C_11  and  C_10 
REMARK    5  A    between atoms: N_28  and  C_10 
REMARK    6  A    between atoms: C_20  and  C_13 
REMARK    7  A    between atoms: N_25  and  C_15 
REMARK    8  A    between atoms: N_25  and  C_19 
REMARK    9  A    between atoms: O_31  and  C_20 
REMARK   10  A    between atoms: N_26  and  O_32 
ROOT
HETATM    1  C   UNK N   1      31.524  17.145   7.326  0.00  0.00     0.030 A 
HETATM    2  C   UNK N   1      30.496  16.635   6.552  0.00  0.00     0.005 A 
HETATM    3  C   UNK N   1      32.871  16.894   7.054  0.00  0.00     0.047 A 
HETATM    4  C   UNK N   1      30.823  15.786   5.478  0.00  0.00     0.165 A 
HETATM    5  C   UNK N   1      32.168  15.526   5.163  0.00  0.00     0.183 A 
HETATM    6  C   UNK N   1      33.221  16.107   5.926  0.00  0.00     0.089 A 
HETATM    7  F   UNK N   1      29.864  15.195   4.733  0.00  0.00    -0.202 F 
HETATM    8  F   UNK N   1      32.408  14.674   4.143  0.00  0.00    -0.200 F 
ENDROOT
BRANCH   3   9
HETATM    9  C   UNK N   1      33.867  17.452   8.014  0.00  0.00     0.172 C 
HETATM   10  N   UNK N   1      33.903  16.976   9.213  0.00  0.00    -0.244 N 
ATOM     11  HN  UNK N   1      33.217  16.273   9.484  1.00  0.00     0.196 HD
BRANCH  10  12
HETATM   12  O   UNK N   1      34.795  17.368  10.096  0.00  0.00    -0.276 OA
BRANCH  12  13
HETATM   13  C   UNK N   1      35.372  16.429  10.914  0.00  0.00     0.227 C 
BRANCH  13  14
HETATM   14  C   UNK N   1      34.757  15.069  10.674  0.00  0.00     0.192 C 
BRANCH  14  15
HETATM   15  O   UNK N   1      33.501  15.022  11.281  0.00  0.00    -0.399 OA
HETATM   16  H   UNK N   1      33.200  14.211  11.717  0.00  0.00     0.209 HD
ENDBRANCH  14  15
ENDBRANCH  13  14
ENDBRANCH  12  13
ENDBRANCH  10  12
BRANCH   9  17
HETATM   17  O   UNK N   1      34.759  18.393   7.637  0.00  0.00    -0.344 OA
HETATM   18  H   UNK N   1      34.932  19.124   8.197  0.00  0.00     0.219 HD
ENDBRANCH   9  17
ENDBRANCH   3   9
BRANCH   6  19
HETATM   19  N   UNK N   1      34.613  15.888   5.648  0.00  0.00    -0.350 N 
HETATM   20  H   UNK N   1      35.064  16.648   5.216  0.00  0.00     0.166 HD
BRANCH  19  21
HETATM   21  C   UNK N   1      35.459  14.759   5.887  0.00  0.00     0.071 A 
HETATM   22  C   UNK N   1      35.968  14.450   7.157  0.00  0.00     0.034 A 
HETATM   23  C   UNK N   1      36.805  13.345   7.343  0.00  0.00     0.020 A 
HETATM   24  C   UNK N   1      37.123  12.522   6.262  0.00  0.00     0.009 A 
HETATM   25  C   UNK N   1      36.589  12.793   5.001  0.00  0.00     0.062 A 
HETATM   26  I   UNK N   1      38.416  10.883   6.530  0.00  0.00    -0.044 I 
HETATM   27  C   UNK N   1      35.757  13.902   4.814  0.00  0.00     0.144 A 
HETATM   28  F   UNK N   1      35.243  14.147   3.583  0.00  0.00    -0.204 F 
ENDBRANCH  19  21
ENDBRANCH   6  19
BRANCH   2  29
HETATM   29  C   UNK N   1      29.108  17.065   6.970  0.00  0.00     0.201 C 
BRANCH  29  30
HETATM   30  N   UNK N   1      28.522  18.245   6.361  0.00  0.00    -0.222 N 
HETATM   31  C   UNK N   1      28.006  19.219   7.180  0.00  0.00     0.243 C 
HETATM   32  C   UNK N   1      27.480  20.507   6.602  0.00  0.00     0.107 C 
HETATM   33  O   UNK N   1      27.961  19.054   8.390  0.00  0.00    -0.271 OA
HETATM   34  C   UNK N   1      27.578  20.554   5.079  0.00  0.00     0.038 C 
HETATM   35  C   UNK N   1      27.599  19.140   4.525  0.00  0.00     0.202 C 
HETATM   36  O   UNK N   1      28.732  18.483   5.043  0.00  0.00    -0.275 OA
ENDBRANCH  29  30
ENDBRANCH   2  29
TORSDOF 10
ENDMDL
MODEL 2
REMARK VINA RESULT:      -6.9      3.528      7.688
REMARK  10 active torsions:
REMARK  status: ('A' for Active; 'I' for Inactive)
REMARK    1  A    between atoms: C_7  and  C_5 
REMARK    2  A    between atoms: O_29  and  C_5 
REMARK    3  A    between atoms: O_32  and  C_7 
REMARK    4  A    between atoms: C_11  and  C_10 
REMARK    5  A    between atoms: N_28  and  C_10 
REMARK    6  A    between atoms: C_20  and  C_13 
REMARK    7  A    between atoms: N_25  and  C_15 
REMARK    8  A    between atoms: N_25  and  C_19 
REMARK    9  A    between atoms: O_31  and  C_20 
REMARK   10  A    between atoms: N_26  and  O_32 
ROOT
HETATM    1  C   UNK N   1      34.830  16.262  10.311  0.00  0.00     0.030 A 
HETATM    2  C   UNK N   1      35.736  15.308  10.743  0.00  0.00     0.005 A 
HETATM    3  C   UNK N   1      34.417  16.364   8.980  0.00  0.00     0.047 A 
HETATM    4  C   UNK N   1      36.302  14.440   9.791  0.00  0.00     0.165 A 
HETATM    5  C   UNK N   1      35.897  14.502   8.446  0.00  0.00     0.183 A 
HETATM    6  C   UNK N   1      34.916  15.443   8.022  0.00  0.00     0.089 A 
HETATM    7  F   UNK N   1      37.248  13.540  10.135  0.00  0.00    -0.202 F 
HETATM    8  F   UNK N   1      36.508  13.664   7.580  0.00  0.00    -0.200 F 
ENDROOT
BRANCH   3   9
HETATM    9  C   UNK N   1      33.491  17.484   8.647  0.00  0.00     0.172 C 
HETATM   10  N   UNK N   1      32.239  17.356   8.931  0.00  0.00    -0.244 N 
ATOM     11  HN  UNK N   1      31.911  16.475   9.324  1.00  0.00     0.196 HD
BRANCH  10  12
HETATM   12  O   UNK N   1      31.372  18.324   8.730  0.00  0.00    -0.276 OA
BRANCH  12  13
HETATM   13  C   UNK N   1      30.105  18.000   8.311  0.00  0.00     0.227 C 
BRANCH  13  14
HETATM   14  C   UNK N   1      29.188  17.810   9.497  0.00  0.00     0.192 C 
BRANCH  14  15
HETATM   15  O   UNK N   1      29.687  18.535  10.581  0.00  0.00    -0.399 OA
HETATM   16  H   UNK N   1      30.296  19.275  10.434  0.00  0.00     0.209 HD
ENDBRANCH  14  15
ENDBRANCH  13  14
ENDBRANCH  12  13
ENDBRANCH  10  12
BRANCH   9  17
HETATM   17  O   UNK N   1      33.945  18.639   8.115  0.00  0.00    -0.344 OA
HETATM   18  H   UNK N   1      33.637  18.920   7.276  0.00  0.00     0.219 HD
ENDBRANCH   9  17
ENDBRANCH   3   9
BRANCH   6  19
HETATM   19  N   UNK N   1      34.455  15.548   6.666  0.00  0.00    -0.350 N 
HETATM   20  H   UNK N   1      35.175  15.580   5.996  0.00  0.00     0.166 HD
BRANCH  19  21
HETATM   21  C   UNK N   1      33.136  15.617   6.118  0.00  0.00     0.071 A 
HETATM   22  C   UNK N   1      32.161  14.640   6.365  0.00  0.00     0.034 A 
HETATM   23  C   UNK N   1      30.887  14.739   5.795  0.00  0.00     0.020 A 
HETATM   24  C   UNK N   1      30.567  15.832   4.990  0.00  0.00     0.009 A 
HETATM   25  C   UNK N   1      31.514  16.834   4.770  0.00  0.00     0.062 A 
HETATM   26  I   UNK N   1      28.666  15.963   4.097  0.00  0.00    -0.044 I 
HETATM   27  C   UNK N   1      32.790  16.732   5.334  0.00  0.00     0.144 A 
HETATM   28  F   UNK N   1      33.695  17.717   5.114  0.00  0.00    -0.204 F 
ENDBRANCH  19  21
ENDBRANCH   6  19
BRANCH   2  29
HETATM   29  C   UNK N   1      36.014  15.319  12.230  0.00  0.00     0.201 C 
BRANCH  29  30
HETATM   30  N   UNK N   1      35.619  14.173  13.029  0.00  0.00    -0.222 N 
HETATM   31  C   UNK N   1      36.112  14.062  14.306  0.00  0.00     0.243 C 
HETATM   32  C   UNK N   1      35.652  12.948  15.211  0.00  0.00     0.107 C 
HETATM   33  O   UNK N   1      36.934  14.863  14.727  0.00  0.00    -0.271 OA
HETATM   34  C   UNK N   1      34.650  12.015  14.536  0.00  0.00     0.038 C 
HETATM   35  C   UNK N   1      34.829  12.075  13.029  0.00  0.00     0.202 C 
HETATM   36  O   UNK N   1      34.588  13.398  12.610  0.00  0.00    -0.275 OA
ENDBRANCH  29  30
ENDBRANCH   2  29
TORSDOF 10
ENDMDL
MODEL 3
REMARK VINA RESULT:      -6.9      4.251      8.136
REMARK  10 active torsions:
REMARK  status: ('A' for Active; 'I' for Inactive)
REMARK    1  A    between atoms: C_7  and  C_5 
REMARK    2  A    between atoms: O_29  and  C_5 
REMARK    3  A    between atoms: O_32  and  C_7 
REMARK    4  A    between atoms: C_11  and  C_10 
REMARK    5  A    between atoms: N_28  and  C_10 
REMARK    6  A    between atoms: C_20  and  C_13 
REMARK    7  A    between atoms: N_25  and  C_15 
REMARK    8  A    between atoms: N_25  and  C_19 
REMARK    9  A    between atoms: O_31  and  C_20 
REMARK   10  A    between atoms: N_26  and  O_32 
ROOT
HETATM    1  C   UNK N   1      32.649  17.186   6.295  0.00  0.00     0.030 A 
HETATM    2  C   UNK N   1      32.340  17.409   7.626  0.00  0.00     0.005 A 
HETATM    3  C   UNK N   1      31.673  17.011   5.311  0.00  0.00     0.047 A 
HETATM    4  C   UNK N   1      30.986  17.408   8.009  0.00  0.00     0.165 A 
HETATM    5  C   UNK N   1      29.975  17.253   7.044  0.00  0.00     0.183 A 
HETATM    6  C   UNK N   1      30.301  17.088   5.668  0.00  0.00     0.089 A 
HETATM    7  F   UNK N   1      30.622  17.543   9.303  0.00  0.00    -0.202 F 
HETATM    8  F   UNK N   1      28.700  17.225   7.487  0.00  0.00    -0.200 F 
ENDROOT
BRANCH   3   9
HETATM    9  C   UNK N   1      32.154  16.708   3.932  0.00  0.00     0.172 C 
HETATM   10  N   UNK N   1      32.891  15.666   3.750  0.00  0.00    -0.244 N 
ATOM     11  HN  UNK N   1      33.167  15.111   4.558  1.00  0.00     0.196 HD
BRANCH  10  12
HETATM   12  O   UNK N   1      33.299  15.296   2.556  0.00  0.00    -0.276 OA
BRANCH  12  13
HETATM   13  C   UNK N   1      33.683  13.992   2.363  0.00  0.00     0.227 C 
BRANCH  13  14
HETATM   14  C   UNK N   1      34.927  13.683   3.164  0.00  0.00     0.192 C 
BRANCH  14  15
HETATM   15  O   UNK N   1      34.555  13.264   4.442  0.00  0.00    -0.399 OA
HETATM   16  H   UNK N   1      35.163  12.732   4.978  0.00  0.00     0.209 HD
ENDBRANCH  14  15
ENDBRANCH  13  14
ENDBRANCH  12  13
ENDBRANCH  10  12
BRANCH   9  17
HETATM   17  O   UNK N   1      31.786  17.465   2.876  0.00  0.00    -0.344 OA
HETATM   18  H   UNK N   1      32.374  17.580   2.156  0.00  0.00     0.219 HD
ENDBRANCH   9  17
ENDBRANCH   3   9
BRANCH   6  19
HETATM   19  N   UNK N   1      29.315  16.935   4.635  0.00  0.00    -0.350 N 
HETATM   20  H   UNK N   1      29.436  16.134   4.076  0.00  0.00     0.166 HD
BRANCH  19  21
HETATM   21  C   UNK N   1      28.190  17.741   4.272  0.00  0.00     0.071 A 
HETATM   22  C   UNK N   1      28.185  19.138   4.404  0.00  0.00     0.034 A 
HETATM   23  C   UNK N   1      27.057  19.886   4.052  0.00  0.00     0.020 A 
HETATM   24  C   UNK N   1      25.928  19.245   3.540  0.00  0.00     0.009 A 
HETATM   25  C   UNK N   1      25.935  17.860   3.364  0.00  0.00     0.062 A 
HETATM   26  I   UNK N   1      24.214  20.363   3.049  0.00  0.00    -0.044 I 
HETATM   27  C   UNK N   1      27.060  17.111   3.723  0.00  0.00     0.144 A 
HETATM   28  F   UNK N   1      27.051  15.768   3.539  0.00  0.00    -0.204 F 
ENDBRANCH  19  21
ENDBRANCH   6  19
BRANCH   2  29
HETATM   29  C   UNK N   1      33.532  17.632   8.530  0.00  0.00     0.201 C 
BRANCH  29  30
HETATM   30  N   UNK N   1      33.962  16.557   9.406  0.00  0.00    -0.222 N 
HETATM   31  C   UNK N   1      35.035  16.776  10.235  0.00  0.00     0.243 C 
HETATM   32  C   UNK N   1      35.457  15.730  11.234  0.00  0.00     0.107 C 
HETATM   33  O   UNK N   1      35.667  17.820  10.171  0.00  0.00    -0.271 OA
HETATM   34  C   UNK N   1      34.592  14.474  11.175  0.00  0.00     0.038 C 
HETATM   35  C   UNK N   1      33.964  14.350   9.798  0.00  0.00     0.202 C 
HETATM   36  O   UNK N   1      33.154  15.482   9.581  0.00  0.00    -0.275 OA
ENDBRANCH  29  30
ENDBRANCH   2  29
TORSDOF 10
ENDMDL
MODEL 4
REMARK VINA RESULT:      -6.9      4.396      5.886
REMARK  10 active torsions:
REMARK  status: ('A' for Active; 'I' for Inactive)
REMARK    1  A    between atoms: C_7  and  C_5 
REMARK    2  A    between atoms: O_29  and  C_5 
REMARK    3  A    between atoms: O_32  and  C_7 
REMARK    4  A    between atoms: C_11  and  C_10 
REMARK    5  A    between atoms: N_28  and  C_10 
REMARK    6  A    between atoms: C_20  and  C_13 
REMARK    7  A    between atoms: N_25  and  C_15 
REMARK    8  A    between atoms: N_25  and  C_19 
REMARK    9  A    between atoms: O_31  and  C_20 
REMARK   10  A    between atoms: N_26  and  O_32 
ROOT
HETATM    1  C   UNK N   1      32.819  15.016   7.949  0.00  0.00     0.030 A 
HETATM    2  C   UNK N   1      32.819  16.400   7.959  0.00  0.00     0.005 A 
HETATM    3  C   UNK N   1      33.734  14.255   8.683  0.00  0.00     0.047 A 
HETATM    4  C   UNK N   1      33.815  17.066   8.698  0.00  0.00     0.165 A 
HETATM    5  C   UNK N   1      34.740  16.334   9.462  0.00  0.00     0.183 A 
HETATM    6  C   UNK N   1      34.692  14.912   9.498  0.00  0.00     0.089 A 
HETATM    7  F   UNK N   1      33.916  18.413   8.686  0.00  0.00    -0.202 F 
HETATM    8  F   UNK N   1      35.690  17.036  10.117  0.00  0.00    -0.200 F 
ENDROOT
BRANCH   3   9
HETATM    9  C   UNK N   1      33.660  12.774   8.521  0.00  0.00     0.172 C 
HETATM   10  N   UNK N   1      32.624  12.154   8.974  0.00  0.00    -0.244 N 
ATOM     11  HN  UNK N   1      31.913  12.685   9.476  1.00  0.00     0.196 HD
BRANCH  10  12
HETATM   12  O   UNK N   1      32.454  10.860   8.811  0.00  0.00    -0.276 OA
BRANCH  12  13
HETATM   13  C   UNK N   1      32.547  10.038   9.906  0.00  0.00     0.227 C 
BRANCH  13  14
HETATM   14  C   UNK N   1      31.815   8.740   9.658  0.00  0.00     0.192 C 
BRANCH  14  15
HETATM   15  O   UNK N   1      30.736   8.980   8.806  0.00  0.00    -0.399 OA
HETATM   16  H   UNK N   1      30.753   8.654   7.893  0.00  0.00     0.209 HD
ENDBRANCH  14  15
ENDBRANCH  13  14
ENDBRANCH  12  13
ENDBRANCH  10  12
BRANCH   9  17
HETATM   17  O   UNK N   1      34.619  12.089   7.863  0.00  0.00    -0.344 OA
HETATM   18  H   UNK N   1      34.788  12.272   6.959  0.00  0.00     0.219 HD
ENDBRANCH   9  17
ENDBRANCH   3   9
BRANCH   6  19
HETATM   19  N   UNK N   1      35.603  14.109  10.266  0.00  0.00    -0.350 N 
HETATM   20  H   UNK N   1      36.445  13.897   9.803  0.00  0.00     0.166 HD
BRANCH  19  21
HETATM   21  C   UNK N   1      35.502  13.562  11.584  0.00  0.00     0.071 A 
HETATM   22  C   UNK N   1      35.090  12.244  11.828  0.00  0.00     0.034 A 
HETATM   23  C   UNK N   1      34.990  11.755  13.135  0.00  0.00     0.020 A 
HETATM   24  C   UNK N   1      35.327  12.575  14.213  0.00  0.00     0.009 A 
HETATM   25  C   UNK N   1      35.780  13.875  13.982  0.00  0.00     0.062 A 
HETATM   26  I   UNK N   1      35.139  11.856  16.182  0.00  0.00    -0.044 I 
HETATM   27  C   UNK N   1      35.873  14.366  12.676  0.00  0.00     0.144 A 
HETATM   28  F   UNK N   1      36.320  15.630  12.471  0.00  0.00    -0.204 F 
ENDBRANCH  19  21
ENDBRANCH   6  19
BRANCH   2  29
HETATM   29  C   UNK N   1      31.717  17.044   7.148  0.00  0.00     0.201 C 
BRANCH  29  30
HETATM   30  N   UNK N   1      30.462  17.371   7.800  0.00  0.00    -0.222 N 
HETATM   31  C   UNK N   1      29.292  17.183   7.105  0.00  0.00     0.243 C 
HETATM   32  C   UNK N   1      27.960  17.409   7.771  0.00  0.00     0.107 C 
HETATM   33  O   UNK N   1      29.314  16.834   5.934  0.00  0.00    -0.271 OA
HETATM   34  C   UNK N   1      28.095  17.868   9.221  0.00  0.00     0.038 C 
HETATM   35  C   UNK N   1      29.443  18.536   9.422  0.00  0.00     0.202 C 
HETATM   36  O   UNK N   1      30.448  17.591   9.139  0.00  0.00    -0.275 OA
ENDBRANCH  29  30
ENDBRANCH   2  29
TORSDOF 10
ENDMDL
MODEL 5
REMARK VINA RESULT:      -6.9      5.004      9.407
REMARK  10 active torsions:
REMARK  status: ('A' for Active; 'I' for Inactive)
REMARK    1  A    between atoms: C_7  and  C_5 
REMARK    2  A    between atoms: O_29  and  C_5 
REMARK    3  A    between atoms: O_32  and  C_7 
REMARK    4  A    between atoms: C_11  and  C_10 
REMARK    5  A    between atoms: N_28  and  C_10 
REMARK    6  A    between atoms: C_20  and  C_13 
REMARK    7  A    between atoms: N_25  and  C_15 
REMARK    8  A    between atoms: N_25  and  C_19 
REMARK    9  A    between atoms: O_31  and  C_20 
REMARK   10  A    between atoms: N_26  and  O_32 
ROOT
HETATM    1  C   UNK N   1      29.528  16.959   6.071  0.00  0.00     0.030 A 
HETATM    2  C   UNK N   1      29.498  17.480   7.354  0.00  0.00     0.005 A 
HETATM    3  C   UNK N   1      28.776  17.493   5.022  0.00  0.00     0.047 A 
HETATM    4  C   UNK N   1      28.634  18.557   7.621  0.00  0.00     0.165 A 
HETATM    5  C   UNK N   1      27.875  19.131   6.586  0.00  0.00     0.183 A 
HETATM    6  C   UNK N   1      27.961  18.631   5.256  0.00  0.00     0.089 A 
HETATM    7  F   UNK N   1      28.500  19.059   8.868  0.00  0.00    -0.202 F 
HETATM    8  F   UNK N   1      27.039  20.138   6.921  0.00  0.00    -0.200 F 
ENDROOT
BRANCH   3   9
HETATM    9  C   UNK N   1      28.855  16.786   3.711  0.00  0.00     0.172 C 
HETATM   10  N   UNK N   1      27.955  15.906   3.428  0.00  0.00    -0.244 N 
ATOM     11  HN  UNK N   1      27.250  15.681   4.128  1.00  0.00     0.196 HD
BRANCH  10  12
HETATM   12  O   UNK N   1      27.918  15.290   2.267  0.00  0.00    -0.276 OA
BRANCH  12  13
HETATM   13  C   UNK N   1      27.897  13.917   2.248  0.00  0.00     0.227 C 
BRANCH  13  14
HETATM   14  C   UNK N   1      29.239  13.374   1.814  0.00  0.00     0.192 C 
BRANCH  14  15
HETATM   15  O   UNK N   1      30.247  14.029   2.522  0.00  0.00    -0.399 OA
HETATM   16  H   UNK N   1      30.862  13.524   3.076  0.00  0.00     0.209 HD
ENDBRANCH  14  15
ENDBRANCH  13  14
ENDBRANCH  12  13
ENDBRANCH  10  12
BRANCH   9  17
HETATM   17  O   UNK N   1      29.806  17.092   2.802  0.00  0.00    -0.344 OA
HETATM   18  H   UNK N   1      29.815  16.659   1.971  0.00  0.00     0.219 HD
ENDBRANCH   9  17
ENDBRANCH   3   9
BRANCH   6  19
HETATM   19  N   UNK N   1      27.220  19.181   4.155  0.00  0.00    -0.350 N 
HETATM   20  H   UNK N   1      27.779  19.530   3.425  0.00  0.00     0.166 HD
BRANCH  19  21
HETATM   21  C   UNK N   1      25.813  19.311   3.933  0.00  0.00     0.071 A 
HETATM   22  C   UNK N   1      24.866  18.497   4.571  0.00  0.00     0.034 A 
HETATM   23  C   UNK N   1      23.500  18.648   4.312  0.00  0.00     0.020 A 
HETATM   24  C   UNK N   1      23.064  19.636   3.428  0.00  0.00     0.009 A 
HETATM   25  C   UNK N   1      23.992  20.482   2.818  0.00  0.00     0.062 A 
HETATM   26  I   UNK N   1      21.013  19.840   3.004  0.00  0.00    -0.044 I 
HETATM   27  C   UNK N   1      25.359  20.325   3.072  0.00  0.00     0.144 A 
HETATM   28  F   UNK N   1      26.245  21.160   2.475  0.00  0.00    -0.204 F 
ENDBRANCH  19  21
ENDBRANCH   6  19
BRANCH   2  29
HETATM   29  C   UNK N   1      30.425  16.803   8.339  0.00  0.00     0.201 C 
BRANCH  29  30
HETATM   30  N   UNK N   1      31.852  16.794   8.072  0.00  0.00    -0.222 N 
HETATM   31  C   UNK N   1      32.477  15.586   7.882  0.00  0.00     0.243 C 
HETATM   32  C   UNK N   1      33.934  15.529   7.501  0.00  0.00     0.107 C 
HETATM   33  O   UNK N   1      31.863  14.539   8.023  0.00  0.00    -0.271 OA
HETATM   34  C   UNK N   1      34.570  16.912   7.391  0.00  0.00     0.038 C 
HETATM   35  C   UNK N   1      33.794  17.901   8.242  0.00  0.00     0.202 C 
HETATM   36  O   UNK N   1      32.473  17.957   7.756  0.00  0.00    -0.275 OA
ENDBRANCH  29  30
ENDBRANCH   2  29
TORSDOF 10
ENDMDL
MODEL 6
REMARK VINA RESULT:      -6.8      8.577     11.197
REMARK  10 active torsions:
REMARK  status: ('A' for Active; 'I' for Inactive)
REMARK    1  A    between atoms: C_7  and  C_5 
REMARK    2  A    between atoms: O_29  and  C_5 
REMARK    3  A    between atoms: O_32  and  C_7 
REMARK    4  A    between atoms: C_11  and  C_10 
REMARK    5  A    between atoms: N_28  and  C_10 
REMARK    6  A    between atoms: C_20  and  C_13 
REMARK    7  A    between atoms: N_25  and  C_15 
REMARK    8  A    between atoms: N_25  and  C_19 
REMARK    9  A    between atoms: O_31  and  C_20 
REMARK   10  A    between atoms: N_26  and  O_32 
ROOT
HETATM    1  C   UNK N   1      22.178  16.970   5.624  0.00  0.00     0.030 A 
HETATM    2  C   UNK N   1      23.225  17.184   4.743  0.00  0.00     0.005 A 
HETATM    3  C   UNK N   1      21.950  15.737   6.241  0.00  0.00     0.047 A 
HETATM    4  C   UNK N   1      24.061  16.100   4.419  0.00  0.00     0.165 A 
HETATM    5  C   UNK N   1      23.872  14.850   5.033  0.00  0.00     0.183 A 
HETATM    6  C   UNK N   1      22.833  14.656   5.987  0.00  0.00     0.089 A 
HETATM    7  F   UNK N   1      25.051  16.224   3.508  0.00  0.00    -0.202 F 
HETATM    8  F   UNK N   1      24.688  13.845   4.648  0.00  0.00    -0.200 F 
ENDROOT
BRANCH   3   9
HETATM    9  C   UNK N   1      20.743  15.634   7.112  0.00  0.00     0.172 C 
HETATM   10  N   UNK N   1      20.743  16.254   8.243  0.00  0.00    -0.244 N 
ATOM     11  HN  UNK N   1      21.584  16.751   8.533  1.00  0.00     0.196 HD
BRANCH  10  12
HETATM   12  O   UNK N   1      19.693  16.266   9.035  0.00  0.00    -0.276 OA
BRANCH  12  13
HETATM   13  C   UNK N   1      18.842  17.341   8.988  0.00  0.00     0.227 C 
BRANCH  13  14
HETATM   14  C   UNK N   1      19.559  18.603   9.409  0.00  0.00     0.192 C 
BRANCH  14  15
HETATM   15  O   UNK N   1      20.329  19.069   8.343  0.00  0.00    -0.399 OA
HETATM   16  H   UNK N   1      21.292  18.961   8.353  0.00  0.00     0.209 HD
ENDBRANCH  14  15
ENDBRANCH  13  14
ENDBRANCH  12  13
ENDBRANCH  10  12
BRANCH   9  17
HETATM   17  O   UNK N   1      19.644  14.959   6.714  0.00  0.00    -0.344 OA
HETATM   18  H   UNK N   1      19.699  14.042   6.529  0.00  0.00     0.219 HD
ENDBRANCH   9  17
ENDBRANCH   3   9
BRANCH   6  19
HETATM   19  N   UNK N   1      22.597  13.407   6.656  0.00  0.00    -0.350 N 
HETATM   20  H   UNK N   1      22.304  12.679   6.062  0.00  0.00     0.166 HD
BRANCH  19  21
HETATM   21  C   UNK N   1      22.711  13.034   8.032  0.00  0.00     0.071 A 
HETATM   22  C   UNK N   1      21.604  12.670   8.813  0.00  0.00     0.034 A 
HETATM   23  C   UNK N   1      21.759  12.327  10.160  0.00  0.00     0.020 A 
HETATM   24  C   UNK N   1      23.030  12.320  10.735  0.00  0.00     0.009 A 
HETATM   25  C   UNK N   1      24.146  12.638   9.958  0.00  0.00     0.062 A 
HETATM   26  I   UNK N   1      23.263  11.844  12.772  0.00  0.00    -0.044 I 
HETATM   27  C   UNK N   1      23.990  12.988   8.613  0.00  0.00     0.144 A 
HETATM   28  F   UNK N   1      25.086  13.289   7.874  0.00  0.00    -0.204 F 
ENDBRANCH  19  21
ENDBRANCH   6  19
BRANCH   2  29
HETATM   29  C   UNK N   1      23.341  18.600   4.223  0.00  0.00     0.201 C 
BRANCH  29  30
HETATM   30  N   UNK N   1      24.661  19.169   4.022  0.00  0.00    -0.222 N 
HETATM   31  C   UNK N   1      24.807  20.178   3.101  0.00  0.00     0.243 C 
HETATM   32  C   UNK N   1      26.134  20.872   2.929  0.00  0.00     0.107 C 
HETATM   33  O   UNK N   1      23.865  20.526   2.405  0.00  0.00    -0.271 OA
HETATM   34  C   UNK N   1      27.218  20.310   3.845  0.00  0.00     0.038 C 
HETATM   35  C   UNK N   1      26.875  18.880   4.225  0.00  0.00     0.202 C 
HETATM   36  O   UNK N   1      25.646  18.891   4.912  0.00  0.00    -0.275 OA
ENDBRANCH  29  30
ENDBRANCH   2  29
TORSDOF 10
ENDMDL
MODEL 7
REMARK VINA RESULT:      -6.8      4.804      7.599
REMARK  10 active torsions:
REMARK  status: ('A' for Active; 'I' for Inactive)
REMARK    1  A    between atoms: C_7  and  C_5 
REMARK    2  A    between atoms: O_29  and  C_5 
REMARK    3  A    between atoms: O_32  and  C_7 
REMARK    4  A    between atoms: C_11  and  C_10 
REMARK    5  A    between atoms: N_28  and  C_10 
REMARK    6  A    between atoms: C_20  and  C_13 
REMARK    7  A    between atoms: N_25  and  C_15 
REMARK    8  A    between atoms: N_25  and  C_19 
REMARK    9  A    between atoms: O_31  and  C_20 
REMARK   10  A    between atoms: N_26  and  O_32 
ROOT
HETATM    1  C   UNK N   1      25.704  18.053   3.880  0.00  0.00     0.030 A 
HETATM    2  C   UNK N   1      25.421  19.369   4.206  0.00  0.00     0.005 A 
HETATM    3  C   UNK N   1      26.606  17.272   4.606  0.00  0.00     0.047 A 
HETATM    4  C   UNK N   1      26.110  19.956   5.283  0.00  0.00     0.165 A 
HETATM    5  C   UNK N   1      27.012  19.196   6.048  0.00  0.00     0.183 A 
HETATM    6  C   UNK N   1      27.248  17.824   5.745  0.00  0.00     0.089 A 
HETATM    7  F   UNK N   1      25.936  21.257   5.603  0.00  0.00    -0.202 F 
HETATM    8  F   UNK N   1      27.666  19.833   7.043  0.00  0.00    -0.200 F 
ENDROOT
BRANCH   3   9
HETATM    9  C   UNK N   1      26.864  15.894   4.097  0.00  0.00     0.172 C 
HETATM   10  N   UNK N   1      27.185  15.744   2.857  0.00  0.00    -0.244 N 
ATOM     11  HN  UNK N   1      27.200  16.562   2.250  1.00  0.00     0.196 HD
BRANCH  10  12
HETATM   12  O   UNK N   1      27.492  14.571   2.349  0.00  0.00    -0.276 OA
BRANCH  12  13
HETATM   13  C   UNK N   1      28.718  14.409   1.753  0.00  0.00     0.227 C 
BRANCH  13  14
HETATM   14  C   UNK N   1      29.549  13.402   2.515  0.00  0.00     0.192 C 
BRANCH  14  15
HETATM   15  O   UNK N   1      29.334  13.576   3.883  0.00  0.00    -0.399 OA
HETATM   16  H   UNK N   1      28.451  13.805   4.213  0.00  0.00     0.209 HD
ENDBRANCH  14  15
ENDBRANCH  13  14
ENDBRANCH  12  13
ENDBRANCH  10  12
BRANCH   9  17
HETATM   17  O   UNK N   1      26.826  14.822   4.916  0.00  0.00    -0.344 OA
HETATM   18  H   UNK N   1      26.241  14.113   4.733  0.00  0.00     0.219 HD
ENDBRANCH   9  17
ENDBRANCH   3   9
BRANCH   6  19
HETATM   19  N   UNK N   1      28.149  16.993   6.493  0.00  0.00    -0.350 N 
HETATM   20  H   UNK N   1      27.760  16.138   6.788  0.00  0.00     0.166 HD
BRANCH  19  21
HETATM   21  C   UNK N   1      29.510  17.188   6.888  0.00  0.00     0.071 A 
HETATM   22  C   UNK N   1      29.875  17.575   8.186  0.00  0.00     0.034 A 
HETATM   23  C   UNK N   1      31.218  17.769   8.525  0.00  0.00     0.020 A 
HETATM   24  C   UNK N   1      32.214  17.553   7.573  0.00  0.00     0.009 A 
HETATM   25  C   UNK N   1      31.869  17.126   6.289  0.00  0.00     0.062 A 
HETATM   26  I   UNK N   1      34.233  17.885   8.067  0.00  0.00    -0.044 I 
HETATM   27  C   UNK N   1      30.526  16.939   5.949  0.00  0.00     0.144 A 
HETATM   28  F   UNK N   1      30.209  16.518   4.699  0.00  0.00    -0.204 F 
ENDBRANCH  19  21
ENDBRANCH   6  19
BRANCH   2  29
HETATM   29  C   UNK N   1      24.375  20.031   3.337  0.00  0.00     0.201 C 
BRANCH  29  30
HETATM   30  N   UNK N   1      22.998  19.578   3.422  0.00  0.00    -0.222 N 
HETATM   31  C   UNK N   1      22.004  20.411   2.971  0.00  0.00     0.243 C 
HETATM   32  C   UNK N   1      20.570  19.947   2.942  0.00  0.00     0.107 C 
HETATM   33  O   UNK N   1      22.265  21.542   2.589  0.00  0.00    -0.271 OA
HETATM   34  C   UNK N   1      20.399  18.526   3.474  0.00  0.00     0.038 C 
HETATM   35  C   UNK N   1      21.543  18.190   4.414  0.00  0.00     0.202 C 
HETATM   36  O   UNK N   1      22.747  18.272   3.686  0.00  0.00    -0.275 OA
ENDBRANCH  29  30
ENDBRANCH   2  29
TORSDOF 10
ENDMDL
MODEL 8
REMARK VINA RESULT:      -6.7      2.903      4.339
REMARK  10 active torsions:
REMARK  status: ('A' for Active; 'I' for Inactive)
REMARK    1  A    between atoms: C_7  and  C_5 
REMARK    2  A    between atoms: O_29  and  C_5 
REMARK    3  A    between atoms: O_32  and  C_7 
REMARK    4  A    between atoms: C_11  and  C_10 
REMARK    5  A    between atoms: N_28  and  C_10 
REMARK    6  A    between atoms: C_20  and  C_13 
REMARK    7  A    between atoms: N_25  and  C_15 
REMARK    8  A    between atoms: N_25  and  C_19 
REMARK    9  A    between atoms: O_31  and  C_20 
REMARK   10  A    between atoms: N_26  and  O_32 
ROOT
HETATM    1  C   UNK N   1      30.231  16.984   5.900  0.00  0.00     0.030 A 
HETATM    2  C   UNK N   1      28.992  17.163   6.492  0.00  0.00     0.005 A 
HETATM    3  C   UNK N   1      31.429  17.063   6.616  0.00  0.00     0.047 A 
HETATM    4  C   UNK N   1      28.943  17.489   7.860  0.00  0.00     0.165 A 
HETATM    5  C   UNK N   1      30.126  17.561   8.616  0.00  0.00     0.183 A 
HETATM    6  C   UNK N   1      31.392  17.311   8.013  0.00  0.00     0.089 A 
HETATM    7  F   UNK N   1      27.770  17.752   8.478  0.00  0.00    -0.202 F 
HETATM    8  F   UNK N   1      30.007  17.915   9.914  0.00  0.00    -0.200 F 
ENDROOT
BRANCH   3   9
HETATM    9  C   UNK N   1      32.690  16.919   5.834  0.00  0.00     0.172 C 
HETATM   10  N   UNK N   1      32.810  15.914   5.034  0.00  0.00    -0.244 N 
ATOM     11  HN  UNK N   1      32.063  15.221   4.999  1.00  0.00     0.196 HD
BRANCH  10  12
HETATM   12  O   UNK N   1      33.862  15.753   4.262  0.00  0.00    -0.276 OA
BRANCH  12  13
HETATM   13  C   UNK N   1      34.470  14.523   4.221  0.00  0.00     0.227 C 
BRANCH  13  14
HETATM   14  C   UNK N   1      35.258  14.280   5.487  0.00  0.00     0.192 C 
BRANCH  14  15
HETATM   15  O   UNK N   1      35.686  15.504   6.001  0.00  0.00    -0.399 OA
HETATM   16  H   UNK N   1      36.522  15.894   5.702  0.00  0.00     0.209 HD
ENDBRANCH  14  15
ENDBRANCH  13  14
ENDBRANCH  12  13
ENDBRANCH  10  12
BRANCH   9  17
HETATM   17  O   UNK N   1      33.672  17.842   5.905  0.00  0.00    -0.344 OA
HETATM   18  H   UNK N   1      34.431  17.761   5.359  0.00  0.00     0.219 HD
ENDBRANCH   9  17
ENDBRANCH   3   9
BRANCH   6  19
HETATM   19  N   UNK N   1      32.634  17.359   8.733  0.00  0.00    -0.350 N 
HETATM   20  H   UNK N   1      32.936  18.269   8.957  0.00  0.00     0.166 HD
BRANCH  19  21
HETATM   21  C   UNK N   1      33.509  16.320   9.182  0.00  0.00     0.071 A 
HETATM   22  C   UNK N   1      33.117  14.975   9.247  0.00  0.00     0.034 A 
HETATM   23  C   UNK N   1      34.000  13.994   9.707  0.00  0.00     0.020 A 
HETATM   24  C   UNK N   1      35.297  14.345  10.084  0.00  0.00     0.009 A 
HETATM   25  C   UNK N   1      35.714  15.673   9.984  0.00  0.00     0.062 A 
HETATM   26  I   UNK N   1      36.616  12.877  10.816  0.00  0.00    -0.044 I 
HETATM   27  C   UNK N   1      34.828  16.656   9.531  0.00  0.00     0.144 A 
HETATM   28  F   UNK N   1      35.253  17.940   9.435  0.00  0.00    -0.204 F 
ENDBRANCH  19  21
ENDBRANCH   6  19
BRANCH   2  29
HETATM   29  C   UNK N   1      27.810  16.981   5.566  0.00  0.00     0.201 C 
BRANCH  29  30
HETATM   30  N   UNK N   1      27.182  18.154   4.987  0.00  0.00    -0.222 N 
HETATM   31  C   UNK N   1      26.367  17.990   3.894  0.00  0.00     0.243 C 
HETATM   32  C   UNK N   1      25.611  19.160   3.319  0.00  0.00     0.107 C 
HETATM   33  O   UNK N   1      26.244  16.894   3.368  0.00  0.00    -0.271 OA
HETATM   34  C   UNK N   1      25.887  20.464   4.063  0.00  0.00     0.038 C 
HETATM   35  C   UNK N   1      27.237  20.383   4.754  0.00  0.00     0.202 C 
HETATM   36  O   UNK N   1      27.194  19.321   5.678  0.00  0.00    -0.275 OA
ENDBRANCH  29  30
ENDBRANCH   2  29
TORSDOF 10
ENDMDL
MODEL 9
REMARK VINA RESULT:      -6.7      4.849      8.893
REMARK  10 active torsions:
REMARK  status: ('A' for Active; 'I' for Inactive)
REMARK    1  A    between atoms: C_7  and  C_5 
REMARK    2  A    between atoms: O_29  and  C_5 
REMARK    3  A    between atoms: O_32  and  C_7 
REMARK    4  A    between atoms: C_11  and  C_10 
REMARK    5  A    between atoms: N_28  and  C_10 
REMARK    6  A    between atoms: C_20  and  C_13 
REMARK    7  A    between atoms: N_25  and  C_15 
REMARK    8  A    between atoms: N_25  and  C_19 
REMARK    9  A    between atoms: O_31  and  C_20 
REMARK   10  A    between atoms: N_26  and  O_32 
ROOT
HETATM    1  C   UNK N   1      35.766  14.092  12.860  0.00  0.00     0.030 A 
HETATM    2  C   UNK N   1      36.442  13.070  13.505  0.00  0.00     0.005 A 
HETATM    3  C   UNK N   1      34.955  13.873  11.743  0.00  0.00     0.047 A 
HETATM    4  C   UNK N   1      36.348  11.768  12.981  0.00  0.00     0.165 A 
HETATM    5  C   UNK N   1      35.528  11.507  11.869  0.00  0.00     0.183 A 
HETATM    6  C   UNK N   1      34.784  12.553  11.252  0.00  0.00     0.089 A 
HETATM    7  F   UNK N   1      37.045  10.742  13.517  0.00  0.00    -0.202 F 
HETATM    8  F   UNK N   1      35.513  10.242  11.397  0.00  0.00    -0.200 F 
ENDROOT
BRANCH   3   9
HETATM    9  C   UNK N   1      34.345  15.078  11.110  0.00  0.00     0.172 C 
HETATM   10  N   UNK N   1      35.124  16.014  10.684  0.00  0.00    -0.244 N 
ATOM     11  HN  UNK N   1      36.127  15.928  10.840  1.00  0.00     0.196 HD
BRANCH  10  12
HETATM   12  O   UNK N   1      34.667  17.075  10.056  0.00  0.00    -0.276 OA
BRANCH  12  13
HETATM   13  C   UNK N   1      34.534  17.028   8.690  0.00  0.00     0.227 C 
BRANCH  13  14
HETATM   14  C   UNK N   1      34.375  18.421   8.126  0.00  0.00     0.192 C 
BRANCH  14  15
HETATM   15  O   UNK N   1      35.386  19.238   8.635  0.00  0.00    -0.399 OA
HETATM   16  H   UNK N   1      36.248  19.280   8.192  0.00  0.00     0.209 HD
ENDBRANCH  14  15
ENDBRANCH  13  14
ENDBRANCH  12  13
ENDBRANCH  10  12
BRANCH   9  17
HETATM   17  O   UNK N   1      33.011  15.176  10.924  0.00  0.00    -0.344 OA
HETATM   18  H   UNK N   1      32.626  14.865  10.128  0.00  0.00     0.219 HD
ENDBRANCH   9  17
ENDBRANCH   3   9
BRANCH   6  19
HETATM   19  N   UNK N   1      33.922  12.349  10.121  0.00  0.00    -0.350 N 
HETATM   20  H   UNK N   1      32.992  12.636  10.265  0.00  0.00     0.166 HD
BRANCH  19  21
HETATM   21  C   UNK N   1      34.176  11.803   8.824  0.00  0.00     0.071 A 
HETATM   22  C   UNK N   1      33.695  10.548   8.423  0.00  0.00     0.034 A 
HETATM   23  C   UNK N   1      33.980  10.045   7.149  0.00  0.00     0.020 A 
HETATM   24  C   UNK N   1      34.730  10.806   6.252  0.00  0.00     0.009 A 
HETATM   25  C   UNK N   1      35.179  12.075   6.622  0.00  0.00     0.062 A 
HETATM   26  I   UNK N   1      35.197  10.036   4.350  0.00  0.00    -0.044 I 
HETATM   27  C   UNK N   1      34.900  12.575   7.898  0.00  0.00     0.144 A 
HETATM   28  F   UNK N   1      35.340  13.812   8.238  0.00  0.00    -0.204 F 
ENDBRANCH  19  21
ENDBRANCH   6  19
BRANCH   2  29
HETATM   29  C   UNK N   1      37.223  13.494  14.729  0.00  0.00     0.201 C 
BRANCH  29  30
HETATM   30  N   UNK N   1      36.508  13.753  15.965  0.00  0.00    -0.222 N 
HETATM   31  C   UNK N   1      36.827  14.879  16.685  0.00  0.00     0.243 C 
HETATM   32  C   UNK N   1      36.045  15.246  17.919  0.00  0.00     0.107 C 
HETATM   33  O   UNK N   1      37.751  15.598  16.337  0.00  0.00    -0.271 OA
HETATM   34  C   UNK N   1      34.943  14.239  18.242  0.00  0.00     0.038 C 
HETATM   35  C   UNK N   1      35.291  12.890  17.639  0.00  0.00     0.202 C 
HETATM   36  O   UNK N   1      35.385  13.044  16.242  0.00  0.00    -0.275 OA
ENDBRANCH  29  30
ENDBRANCH   2  29
TORSDOF 10
ENDMDL
