MODEL 1
REMARK VINA RESULT:      -8.5      0.000      0.000
REMARK  4 active torsions:
REMARK  status: ('A' for Active; 'I' for Inactive)
REMARK    1  A    between atoms: C_5  and  C_9 
REMARK    2  A    between atoms: C_9  and  C_10 
REMARK    3  A    between atoms: C_26  and  N_23 
REMARK    4  A    between atoms: C_31  and  O_32 
ROOT
HETATM    1  C   UNK N   1      30.362  16.190   6.090  0.00  0.00    -0.042 A 
HETATM    2  C   UNK N   1      30.813  15.825   7.354  0.00  0.00     0.027 A 
HETATM    3  C   UNK N   1      32.162  15.584   7.611  0.00  0.00     0.060 A 
HETATM    4  C   UNK N   1      33.108  15.695   6.583  0.00  0.00     0.060 A 
HETATM    5  C   UNK N   1      32.689  16.051   5.287  0.00  0.00     0.002 A 
HETATM    6  C   UNK N   1      31.310  16.309   5.030  0.00  0.00    -0.017 A 
HETATM    7  C   UNK N   1      30.933  16.690   3.733  0.00  0.00     0.013 A 
HETATM    8  C   UNK N   1      31.875  16.803   2.710  0.00  0.00     0.001 A 
HETATM    9  C   UNK N   1      33.218  16.540   2.966  0.00  0.00     0.001 A 
HETATM   10  C   UNK N   1      33.625  16.169   4.248  0.00  0.00     0.014 A 
HETATM   11  N   UNK N   1      34.421  15.472   6.858  0.00  0.00    -0.351 N 
ATOM     12  HN  UNK N   1      35.108  15.534   6.106  1.00  0.00     0.166 HD
HETATM   13  C   UNK N   1      34.836  15.166   8.118  0.00  0.00     0.187 A 
HETATM   14  N   UNK N   1      33.939  15.063   9.144  0.00  0.00    -0.302 N 
HETATM   15  C   UNK N   1      32.594  15.251   8.897  0.00  0.00     0.261 A 
HETATM   16  O   UNK N   1      31.779  15.134   9.799  0.00  0.00    -0.267 OA
ENDROOT
BRANCH   1  17
HETATM   17  C   UNK N   1      28.872  16.458   6.008  0.00  0.00     0.079 C 
BRANCH  17  18
HETATM   18  C   UNK N   1      28.381  17.862   6.081  0.00  0.00    -0.038 A 
HETATM   19  C   UNK N   1      28.297  18.648   4.929  0.00  0.00     0.011 A 
HETATM   20  C   UNK N   1      27.840  19.961   5.025  0.00  0.00     0.025 A 
HETATM   21  C   UNK N   1      27.466  20.467   6.273  0.00  0.00     0.005 A 
HETATM   22  C   UNK N   1      26.988  21.868   6.391  0.00  0.00     0.068 C 
HETATM   23  N   UNK N   1      27.539  19.679   7.380  0.00  0.00    -0.369 N 
HETATM   24  C   UNK N   1      27.981  18.395   7.308  0.00  0.00     0.095 A 
ATOM     25  HN  UNK N   1      27.254  20.060   8.283  1.00  0.00     0.165 HD
ENDBRANCH  17  18
ENDBRANCH   1  17
BRANCH  14  26
HETATM   26  C   UNK N   1      34.387  14.773  10.519  0.00  0.00     0.122 C 
HETATM   27  C   UNK N   1      34.892  13.336  10.708  0.00  0.00     0.028 C 
HETATM   28  C   UNK N   1      35.222  13.094  12.180  0.00  0.00     0.002 C 
HETATM   29  C   UNK N   1      36.272  14.091  12.666  0.00  0.00     0.003 C 
HETATM   30  C   UNK N   1      35.788  15.521  12.457  0.00  0.00     0.034 C 
HETATM   31  C   UNK N   1      35.475  15.762  10.985  0.00  0.00     0.141 C 
BRANCH  31  32
HETATM   32  O   UNK N   1      35.075  17.088  10.822  0.00  0.00    -0.393 OA
HETATM   33  H   UNK N   1      34.305  17.315  10.278  0.00  0.00     0.210 HD
ENDBRANCH  31  32
ENDBRANCH  14  26
TORSDOF 4
ENDMDL
MODEL 2
REMARK VINA RESULT:      -8.1     13.095     16.507
REMARK  4 active torsions:
REMARK  status: ('A' for Active; 'I' for Inactive)
REMARK    1  A    between atoms: C_5  and  C_9 
REMARK    2  A    between atoms: C_9  and  C_10 
REMARK    3  A    between atoms: C_26  and  N_23 
REMARK    4  A    between atoms: C_31  and  O_32 
ROOT
HETATM    1  C   UNK N   1      30.424  21.049  -5.273  0.00  0.00    -0.042 A 
HETATM    2  C   UNK N   1      30.088  22.283  -4.725  0.00  0.00     0.027 A 
HETATM    3  C   UNK N   1      29.232  23.168  -5.378  0.00  0.00     0.060 A 
HETATM    4  C   UNK N   1      28.691  22.835  -6.628  0.00  0.00     0.060 A 
HETATM    5  C   UNK N   1      29.018  21.601  -7.221  0.00  0.00     0.002 A 
HETATM    6  C   UNK N   1      29.883  20.692  -6.544  0.00  0.00    -0.017 A 
HETATM    7  C   UNK N   1      30.163  19.458  -7.152  0.00  0.00     0.013 A 
HETATM    8  C   UNK N   1      29.622  19.126  -8.395  0.00  0.00     0.001 A 
HETATM    9  C   UNK N   1      28.785  20.022  -9.054  0.00  0.00     0.001 A 
HETATM   10  C   UNK N   1      28.481  21.252  -8.470  0.00  0.00     0.014 A 
HETATM   11  N   UNK N   1      27.845  23.706  -7.241  0.00  0.00    -0.351 N 
ATOM     12  HN  UNK N   1      27.466  23.473  -8.160  1.00  0.00     0.166 HD
HETATM   13  C   UNK N   1      27.496  24.883  -6.654  0.00  0.00     0.187 A 
HETATM   14  N   UNK N   1      27.998  25.230  -5.431  0.00  0.00    -0.302 N 
HETATM   15  C   UNK N   1      28.884  24.386  -4.792  0.00  0.00     0.261 A 
HETATM   16  O   UNK N   1      29.361  24.697  -3.711  0.00  0.00    -0.267 OA
ENDROOT
BRANCH   1  17
HETATM   17  C   UNK N   1      31.328  20.199  -4.400  0.00  0.00     0.079 C 
BRANCH  17  18
HETATM   18  C   UNK N   1      32.803  20.307  -4.562  0.00  0.00    -0.038 A 
HETATM   19  C   UNK N   1      33.584  20.929  -3.584  0.00  0.00     0.011 A 
HETATM   20  C   UNK N   1      34.963  21.022  -3.762  0.00  0.00     0.025 A 
HETATM   21  C   UNK N   1      35.543  20.483  -4.913  0.00  0.00     0.005 A 
HETATM   22  C   UNK N   1      37.011  20.585  -5.120  0.00  0.00     0.068 C 
HETATM   23  N   UNK N   1      34.767  19.865  -5.845  0.00  0.00    -0.369 N 
HETATM   24  C   UNK N   1      33.420  19.763  -5.690  0.00  0.00     0.095 A 
ATOM     25  HN  UNK N   1      35.206  19.469  -6.677  1.00  0.00     0.165 HD
ENDBRANCH  17  18
ENDBRANCH   1  17
BRANCH  14  26
HETATM   26  C   UNK N   1      27.591  26.485  -4.770  0.00  0.00     0.122 C 
HETATM   27  C   UNK N   1      27.401  27.655  -5.744  0.00  0.00     0.028 C 
HETATM   28  C   UNK N   1      27.096  28.933  -4.964  0.00  0.00     0.002 C 
HETATM   29  C   UNK N   1      25.846  28.752  -4.105  0.00  0.00     0.003 C 
HETATM   30  C   UNK N   1      26.017  27.574  -3.153  0.00  0.00     0.034 C 
HETATM   31  C   UNK N   1      26.305  26.300  -3.938  0.00  0.00     0.141 C 
BRANCH  31  32
HETATM   32  O   UNK N   1      26.415  25.236  -3.043  0.00  0.00    -0.393 OA
HETATM   33  H   UNK N   1      25.707  25.039  -2.411  0.00  0.00     0.210 HD
ENDBRANCH  31  32
ENDBRANCH  14  26
TORSDOF 4
ENDMDL
MODEL 3
REMARK VINA RESULT:      -8.0      5.269      8.336
REMARK  4 active torsions:
REMARK  status: ('A' for Active; 'I' for Inactive)
REMARK    1  A    between atoms: C_5  and  C_9 
REMARK    2  A    between atoms: C_9  and  C_10 
REMARK    3  A    between atoms: C_26  and  N_23 
REMARK    4  A    between atoms: C_31  and  O_32 
ROOT
HETATM    1  C   UNK N   1      23.051  17.046   4.652  0.00  0.00    -0.042 A 
HETATM    2  C   UNK N   1      24.198  16.639   5.325  0.00  0.00     0.027 A 
HETATM    3  C   UNK N   1      25.342  17.434   5.373  0.00  0.00     0.060 A 
HETATM    4  C   UNK N   1      25.366  18.677   4.724  0.00  0.00     0.060 A 
HETATM    5  C   UNK N   1      24.229  19.117   4.022  0.00  0.00     0.002 A 
HETATM    6  C   UNK N   1      23.056  18.308   3.986  0.00  0.00    -0.017 A 
HETATM    7  C   UNK N   1      21.931  18.793   3.301  0.00  0.00     0.013 A 
HETATM    8  C   UNK N   1      21.954  20.031   2.657  0.00  0.00     0.001 A 
HETATM    9  C   UNK N   1      23.107  20.812   2.690  0.00  0.00     0.001 A 
HETATM   10  C   UNK N   1      24.237  20.361   3.371  0.00  0.00     0.014 A 
HETATM   11  N   UNK N   1      26.487  19.444   4.797  0.00  0.00    -0.351 N 
ATOM     12  HN  UNK N   1      26.513  20.340   4.310  1.00  0.00     0.166 HD
HETATM   13  C   UNK N   1      27.575  19.040   5.507  0.00  0.00     0.187 A 
HETATM   14  N   UNK N   1      27.577  17.839   6.160  0.00  0.00    -0.302 N 
HETATM   15  C   UNK N   1      26.470  17.018   6.083  0.00  0.00     0.261 A 
HETATM   16  O   UNK N   1      26.469  15.930   6.640  0.00  0.00    -0.267 OA
ENDROOT
BRANCH   1  17
HETATM   17  C   UNK N   1      21.890  16.075   4.746  0.00  0.00     0.079 C 
BRANCH  17  18
HETATM   18  C   UNK N   1      21.505  15.530   6.077  0.00  0.00    -0.038 A 
HETATM   19  C   UNK N   1      21.139  16.386   7.119  0.00  0.00     0.011 A 
HETATM   20  C   UNK N   1      20.789  15.851   8.358  0.00  0.00     0.025 A 
HETATM   21  C   UNK N   1      20.803  14.465   8.533  0.00  0.00     0.005 A 
HETATM   22  C   UNK N   1      20.443  13.883   9.852  0.00  0.00     0.068 C 
HETATM   23  N   UNK N   1      21.145  13.648   7.501  0.00  0.00    -0.369 N 
HETATM   24  C   UNK N   1      21.489  14.149   6.284  0.00  0.00     0.095 A 
ATOM     25  HN  UNK N   1      21.143  12.637   7.642  1.00  0.00     0.165 HD
ENDBRANCH  17  18
ENDBRANCH   1  17
BRANCH  14  26
HETATM   26  C   UNK N   1      28.737  17.413   6.966  0.00  0.00     0.122 C 
HETATM   27  C   UNK N   1      30.038  17.308   6.158  0.00  0.00     0.028 C 
HETATM   28  C   UNK N   1      31.152  16.752   7.042  0.00  0.00     0.002 C 
HETATM   29  C   UNK N   1      31.361  17.641   8.266  0.00  0.00     0.003 C 
HETATM   30  C   UNK N   1      30.066  17.771   9.059  0.00  0.00     0.034 C 
HETATM   31  C   UNK N   1      28.962  18.341   8.177  0.00  0.00     0.141 C 
BRANCH  31  32
HETATM   32  O   UNK N   1      27.805  18.487   8.942  0.00  0.00    -0.393 OA
HETATM   33  H   UNK N   1      26.926  18.418   8.537  0.00  0.00     0.210 HD
ENDBRANCH  31  32
ENDBRANCH  14  26
TORSDOF 4
ENDMDL
MODEL 4
REMARK VINA RESULT:      -8.0      2.510      4.413
REMARK  4 active torsions:
REMARK  status: ('A' for Active; 'I' for Inactive)
REMARK    1  A    between atoms: C_5  and  C_9 
REMARK    2  A    between atoms: C_9  and  C_10 
REMARK    3  A    between atoms: C_26  and  N_23 
REMARK    4  A    between atoms: C_31  and  O_32 
ROOT
HETATM    1  C   UNK N   1      34.744  15.713   7.668  0.00  0.00    -0.042 A 
HETATM    2  C   UNK N   1      34.527  15.497   9.025  0.00  0.00     0.027 A 
HETATM    3  C   UNK N   1      34.915  14.315   9.652  0.00  0.00     0.060 A 
HETATM    4  C   UNK N   1      35.534  13.295   8.916  0.00  0.00     0.060 A 
HETATM    5  C   UNK N   1      35.760  13.470   7.539  0.00  0.00     0.002 A 
HETATM    6  C   UNK N   1      35.373  14.686   6.902  0.00  0.00    -0.017 A 
HETATM    7  C   UNK N   1      35.642  14.838   5.533  0.00  0.00     0.013 A 
HETATM    8  C   UNK N   1      36.260  13.823   4.800  0.00  0.00     0.001 A 
HETATM    9  C   UNK N   1      36.627  12.635   5.427  0.00  0.00     0.001 A 
HETATM   10  C   UNK N   1      36.382  12.459   6.789  0.00  0.00     0.014 A 
HETATM   11  N   UNK N   1      35.920  12.155   9.551  0.00  0.00    -0.351 N 
ATOM     12  HN  UNK N   1      36.353  11.404   9.013  1.00  0.00     0.166 HD
HETATM   13  C   UNK N   1      35.738  11.997  10.891  0.00  0.00     0.187 A 
HETATM   14  N   UNK N   1      35.149  12.979  11.637  0.00  0.00    -0.302 N 
HETATM   15  C   UNK N   1      34.715  14.136  11.023  0.00  0.00     0.261 A 
HETATM   16  O   UNK N   1      34.162  15.010  11.674  0.00  0.00    -0.267 OA
ENDROOT
BRANCH   1  17
HETATM   17  C   UNK N   1      34.300  17.074   7.169  0.00  0.00     0.079 C 
BRANCH  17  18
HETATM   18  C   UNK N   1      33.021  17.189   6.415  0.00  0.00    -0.038 A 
HETATM   19  C   UNK N   1      33.024  17.466   5.046  0.00  0.00     0.011 A 
HETATM   20  C   UNK N   1      31.812  17.575   4.364  0.00  0.00     0.025 A 
HETATM   21  C   UNK N   1      30.615  17.397   5.063  0.00  0.00     0.005 A 
HETATM   22  C   UNK N   1      29.318  17.521   4.350  0.00  0.00     0.068 C 
HETATM   23  N   UNK N   1      30.635  17.110   6.393  0.00  0.00    -0.369 N 
HETATM   24  C   UNK N   1      31.806  16.999   7.076  0.00  0.00     0.095 A 
ATOM     25  HN  UNK N   1      29.753  16.975   6.888  1.00  0.00     0.165 HD
ENDBRANCH  17  18
ENDBRANCH   1  17
BRANCH  14  26
HETATM   26  C   UNK N   1      34.987  12.831  13.096  0.00  0.00     0.122 C 
HETATM   27  C   UNK N   1      34.499  11.439  13.520  0.00  0.00     0.028 C 
HETATM   28  C   UNK N   1      34.250  11.415  15.027  0.00  0.00     0.002 C 
HETATM   29  C   UNK N   1      35.522  11.783  15.788  0.00  0.00     0.003 C 
HETATM   30  C   UNK N   1      36.027  13.154  15.352  0.00  0.00     0.034 C 
HETATM   31  C   UNK N   1      36.289  13.168  13.851  0.00  0.00     0.141 C 
BRANCH  31  32
HETATM   32  O   UNK N   1      36.788  14.420  13.493  0.00  0.00    -0.393 OA
HETATM   33  H   UNK N   1      37.471  14.509  12.811  0.00  0.00     0.210 HD
ENDBRANCH  31  32
ENDBRANCH  14  26
TORSDOF 4
ENDMDL
MODEL 5
REMARK VINA RESULT:      -7.9     12.814     15.110
REMARK  4 active torsions:
REMARK  status: ('A' for Active; 'I' for Inactive)
REMARK    1  A    between atoms: C_5  and  C_9 
REMARK    2  A    between atoms: C_9  and  C_10 
REMARK    3  A    between atoms: C_26  and  N_23 
REMARK    4  A    between atoms: C_31  and  O_32 
ROOT
HETATM    1  C   UNK N   1      27.427  24.294  -4.506  0.00  0.00    -0.042 A 
HETATM    2  C   UNK N   1      28.597  23.733  -4.003  0.00  0.00     0.027 A 
HETATM    3  C   UNK N   1      29.393  22.884  -4.769  0.00  0.00     0.060 A 
HETATM    4  C   UNK N   1      29.022  22.562  -6.082  0.00  0.00     0.060 A 
HETATM    5  C   UNK N   1      27.839  23.099  -6.623  0.00  0.00     0.002 A 
HETATM    6  C   UNK N   1      27.033  23.979  -5.840  0.00  0.00    -0.017 A 
HETATM    7  C   UNK N   1      25.876  24.519  -6.423  0.00  0.00     0.013 A 
HETATM    8  C   UNK N   1      25.508  24.200  -7.730  0.00  0.00     0.001 A 
HETATM    9  C   UNK N   1      26.296  23.334  -8.485  0.00  0.00     0.001 A 
HETATM   10  C   UNK N   1      27.456  22.789  -7.937  0.00  0.00     0.014 A 
HETATM   11  N   UNK N   1      29.821  21.744  -6.819  0.00  0.00    -0.351 N 
ATOM     12  HN  UNK N   1      29.543  21.493  -7.768  1.00  0.00     0.166 HD
HETATM   13  C   UNK N   1      30.986  21.252  -6.314  0.00  0.00     0.187 A 
HETATM   14  N   UNK N   1      31.380  21.559  -5.042  0.00  0.00    -0.302 N 
HETATM   15  C   UNK N   1      30.580  22.360  -4.252  0.00  0.00     0.261 A 
HETATM   16  O   UNK N   1      30.907  22.619  -3.104  0.00  0.00    -0.267 OA
ENDROOT
BRANCH   1  17
HETATM   17  C   UNK N   1      26.717  25.230  -3.547  0.00  0.00     0.079 C 
BRANCH  17  18
HETATM   18  C   UNK N   1      26.794  26.699  -3.775  0.00  0.00    -0.038 A 
HETATM   19  C   UNK N   1      27.836  27.249  -4.526  0.00  0.00     0.011 A 
HETATM   20  C   UNK N   1      27.890  28.629  -4.719  0.00  0.00     0.025 A 
HETATM   21  C   UNK N   1      26.894  29.437  -4.164  0.00  0.00     0.005 A 
HETATM   22  C   UNK N   1      26.946  30.910  -4.353  0.00  0.00     0.068 C 
HETATM   23  N   UNK N   1      25.879  28.879  -3.450  0.00  0.00    -0.369 N 
HETATM   24  C   UNK N   1      25.807  27.536  -3.251  0.00  0.00     0.095 A 
ATOM     25  HN  UNK N   1      25.155  29.482  -3.058  1.00  0.00     0.165 HD
ENDBRANCH  17  18
ENDBRANCH   1  17
BRANCH  14  26
HETATM   26  C   UNK N   1      32.661  21.064  -4.502  0.00  0.00     0.122 C 
HETATM   27  C   UNK N   1      32.894  19.568  -4.755  0.00  0.00     0.028 C 
HETATM   28  C   UNK N   1      34.182  19.122  -4.066  0.00  0.00     0.002 C 
HETATM   29  C   UNK N   1      35.372  19.935  -4.571  0.00  0.00     0.003 C 
HETATM   30  C   UNK N   1      35.136  21.424  -4.347  0.00  0.00     0.034 C 
HETATM   31  C   UNK N   1      33.859  21.867  -5.050  0.00  0.00     0.141 C 
BRANCH  31  32
HETATM   32  O   UNK N   1      33.694  23.239  -4.861  0.00  0.00    -0.393 OA
HETATM   33  H   UNK N   1      33.203  23.777  -5.501  0.00  0.00     0.210 HD
ENDBRANCH  31  32
ENDBRANCH  14  26
TORSDOF 4
ENDMDL
MODEL 6
REMARK VINA RESULT:      -7.9      5.971      9.343
REMARK  4 active torsions:
REMARK  status: ('A' for Active; 'I' for Inactive)
REMARK    1  A    between atoms: C_5  and  C_9 
REMARK    2  A    between atoms: C_9  and  C_10 
REMARK    3  A    between atoms: C_26  and  N_23 
REMARK    4  A    between atoms: C_31  and  O_32 
ROOT
HETATM    1  C   UNK N   1      23.309  13.954   6.767  0.00  0.00    -0.042 A 
HETATM    2  C   UNK N   1      24.649  13.961   6.392  0.00  0.00     0.027 A 
HETATM    3  C   UNK N   1      25.259  15.100   5.871  0.00  0.00     0.060 A 
HETATM    4  C   UNK N   1      24.524  16.281   5.699  0.00  0.00     0.060 A 
HETATM    5  C   UNK N   1      23.163  16.310   6.056  0.00  0.00     0.002 A 
HETATM    6  C   UNK N   1      22.543  15.147   6.601  0.00  0.00    -0.017 A 
HETATM    7  C   UNK N   1      21.192  15.222   6.973  0.00  0.00     0.013 A 
HETATM    8  C   UNK N   1      20.460  16.398   6.804  0.00  0.00     0.001 A 
HETATM    9  C   UNK N   1      21.069  17.527   6.263  0.00  0.00     0.001 A 
HETATM   10  C   UNK N   1      22.413  17.486   5.894  0.00  0.00     0.014 A 
HETATM   11  N   UNK N   1      25.143  17.386   5.204  0.00  0.00    -0.351 N 
ATOM     12  HN  UNK N   1      24.604  18.241   5.061  1.00  0.00     0.166 HD
HETATM   13  C   UNK N   1      26.468  17.374   4.895  0.00  0.00     0.187 A 
HETATM   14  N   UNK N   1      27.215  16.242   5.062  0.00  0.00    -0.302 N 
HETATM   15  C   UNK N   1      26.614  15.091   5.532  0.00  0.00     0.261 A 
HETATM   16  O   UNK N   1      27.265  14.064   5.660  0.00  0.00    -0.267 OA
ENDROOT
BRANCH   1  17
HETATM   17  C   UNK N   1      22.829  12.643   7.358  0.00  0.00     0.079 C 
BRANCH  17  18
HETATM   18  C   UNK N   1      22.891  12.444   8.831  0.00  0.00    -0.038 A 
HETATM   19  C   UNK N   1      21.731  12.502   9.608  0.00  0.00     0.011 A 
HETATM   20  C   UNK N   1      21.817  12.319  10.987  0.00  0.00     0.025 A 
HETATM   21  C   UNK N   1      23.064  12.072  11.569  0.00  0.00     0.005 A 
HETATM   22  C   UNK N   1      23.171  11.885  13.038  0.00  0.00     0.068 C 
HETATM   23  N   UNK N   1      24.179  12.002  10.792  0.00  0.00    -0.369 N 
HETATM   24  C   UNK N   1      24.117  12.177   9.445  0.00  0.00     0.095 A 
ATOM     25  HN  UNK N   1      25.081  11.813  11.230  1.00  0.00     0.165 HD
ENDBRANCH  17  18
ENDBRANCH   1  17
BRANCH  14  26
HETATM   26  C   UNK N   1      28.660  16.233   4.768  0.00  0.00     0.122 C 
HETATM   27  C   UNK N   1      28.993  16.634   3.325  0.00  0.00     0.028 C 
HETATM   28  C   UNK N   1      30.494  16.486   3.080  0.00  0.00     0.002 C 
HETATM   29  C   UNK N   1      31.287  17.345   4.063  0.00  0.00     0.003 C 
HETATM   30  C   UNK N   1      30.941  16.969   5.500  0.00  0.00     0.034 C 
HETATM   31  C   UNK N   1      29.446  17.135   5.743  0.00  0.00     0.141 C 
BRANCH  31  32
HETATM   32  O   UNK N   1      29.169  16.825   7.074  0.00  0.00    -0.393 OA
HETATM   33  H   UNK N   1      29.631  16.100   7.525  0.00  0.00     0.210 HD
ENDBRANCH  31  32
ENDBRANCH  14  26
TORSDOF 4
ENDMDL
MODEL 7
REMARK VINA RESULT:      -7.7      7.215     12.920
REMARK  4 active torsions:
REMARK  status: ('A' for Active; 'I' for Inactive)
REMARK    1  A    between atoms: C_5  and  C_9 
REMARK    2  A    between atoms: C_9  and  C_10 
REMARK    3  A    between atoms: C_26  and  N_23 
REMARK    4  A    between atoms: C_31  and  O_32 
ROOT
HETATM    1  C   UNK N   1      35.725  10.086  17.214  0.00  0.00    -0.042 A 
HETATM    2  C   UNK N   1      35.818  10.015  15.828  0.00  0.00     0.027 A 
HETATM    3  C   UNK N   1      35.718  11.150  15.025  0.00  0.00     0.060 A 
HETATM    4  C   UNK N   1      35.505  12.408  15.605  0.00  0.00     0.060 A 
HETATM    5  C   UNK N   1      35.393  12.520  17.002  0.00  0.00     0.002 A 
HETATM    6  C   UNK N   1      35.509  11.359  17.823  0.00  0.00    -0.017 A 
HETATM    7  C   UNK N   1      35.421  11.513  19.215  0.00  0.00     0.013 A 
HETATM    8  C   UNK N   1      35.212  12.767  19.792  0.00  0.00     0.001 A 
HETATM    9  C   UNK N   1      35.091  13.895  18.984  0.00  0.00     0.001 A 
HETATM   10  C   UNK N   1      35.184  13.775  17.598  0.00  0.00     0.014 A 
HETATM   11  N   UNK N   1      35.426  13.506  14.804  0.00  0.00    -0.351 N 
ATOM     12  HN  UNK N   1      35.253  14.420  15.223  1.00  0.00     0.166 HD
HETATM   13  C   UNK N   1      35.573  13.407  13.455  0.00  0.00     0.187 A 
HETATM   14  N   UNK N   1      35.793  12.196  12.862  0.00  0.00    -0.302 N 
HETATM   15  C   UNK N   1      35.848  11.055  13.638  0.00  0.00     0.261 A 
HETATM   16  O   UNK N   1      36.017   9.963  13.117  0.00  0.00    -0.267 OA
ENDROOT
BRANCH   1  17
HETATM   17  C   UNK N   1      35.905   8.760  17.925  0.00  0.00     0.079 C 
BRANCH  17  18
HETATM   18  C   UNK N   1      34.714   8.076  18.500  0.00  0.00    -0.038 A 
HETATM   19  C   UNK N   1      33.669   8.815  19.060  0.00  0.00     0.011 A 
HETATM   20  C   UNK N   1      32.568   8.151  19.597  0.00  0.00     0.025 A 
HETATM   21  C   UNK N   1      32.525   6.755  19.558  0.00  0.00     0.005 A 
HETATM   22  C   UNK N   1      31.362   6.034  20.137  0.00  0.00     0.068 C 
HETATM   23  N   UNK N   1      33.545   6.054  18.992  0.00  0.00    -0.369 N 
HETATM   24  C   UNK N   1      34.628   6.683  18.462  0.00  0.00     0.095 A 
ATOM     25  HN  UNK N   1      33.495   5.035  18.964  1.00  0.00     0.165 HD
ENDBRANCH  17  18
ENDBRANCH   1  17
BRANCH  14  26
HETATM   26  C   UNK N   1      35.996  12.087  11.405  0.00  0.00     0.122 C 
HETATM   27  C   UNK N   1      34.707  12.277  10.593  0.00  0.00     0.028 C 
HETATM   28  C   UNK N   1      34.989  12.035   9.111  0.00  0.00     0.002 C 
HETATM   29  C   UNK N   1      36.075  12.983   8.608  0.00  0.00     0.003 C 
HETATM   30  C   UNK N   1      37.350  12.818   9.427  0.00  0.00     0.034 C 
HETATM   31  C   UNK N   1      37.066  13.078  10.902  0.00  0.00     0.141 C 
BRANCH  31  32
HETATM   32  O   UNK N   1      38.258  12.960  11.617  0.00  0.00    -0.393 OA
HETATM   33  H   UNK N   1      38.899  13.687  11.643  0.00  0.00     0.210 HD
ENDBRANCH  31  32
ENDBRANCH  14  26
TORSDOF 4
ENDMDL
MODEL 8
REMARK VINA RESULT:      -7.7      5.788      8.684
REMARK  4 active torsions:
REMARK  status: ('A' for Active; 'I' for Inactive)
REMARK    1  A    between atoms: C_5  and  C_9 
REMARK    2  A    between atoms: C_9  and  C_10 
REMARK    3  A    between atoms: C_26  and  N_23 
REMARK    4  A    between atoms: C_31  and  O_32 
ROOT
HETATM    1  C   UNK N   1      22.985  17.136   4.663  0.00  0.00    -0.042 A 
HETATM    2  C   UNK N   1      24.164  16.662   5.230  0.00  0.00     0.027 A 
HETATM    3  C   UNK N   1      25.355  17.381   5.157  0.00  0.00     0.060 A 
HETATM    4  C   UNK N   1      25.397  18.613   4.490  0.00  0.00     0.060 A 
HETATM    5  C   UNK N   1      24.229  19.120   3.893  0.00  0.00     0.002 A 
HETATM    6  C   UNK N   1      23.007  18.389   3.980  0.00  0.00    -0.017 A 
HETATM    7  C   UNK N   1      21.855  18.940   3.398  0.00  0.00     0.013 A 
HETATM    8  C   UNK N   1      21.897  20.168   2.736  0.00  0.00     0.001 A 
HETATM    9  C   UNK N   1      23.095  20.873   2.647  0.00  0.00     0.001 A 
HETATM   10  C   UNK N   1      24.254  20.355   3.224  0.00  0.00     0.014 A 
HETATM   11  N   UNK N   1      26.567  19.306   4.444  0.00  0.00    -0.351 N 
ATOM     12  HN  UNK N   1      26.603  20.194   3.942  1.00  0.00     0.166 HD
HETATM   13  C   UNK N   1      27.690  18.838   5.053  0.00  0.00     0.187 A 
HETATM   14  N   UNK N   1      27.677  17.646   5.721  0.00  0.00    -0.302 N 
HETATM   15  C   UNK N   1      26.517  16.898   5.763  0.00  0.00     0.261 A 
HETATM   16  O   UNK N   1      26.500  15.818   6.334  0.00  0.00    -0.267 OA
ENDROOT
BRANCH   1  17
HETATM   17  C   UNK N   1      21.779  16.244   4.883  0.00  0.00     0.079 C 
BRANCH  17  18
HETATM   18  C   UNK N   1      21.164  15.554   3.716  0.00  0.00    -0.038 A 
HETATM   19  C   UNK N   1      21.947  15.157   2.629  0.00  0.00     0.011 A 
HETATM   20  C   UNK N   1      21.345  14.518   1.545  0.00  0.00     0.025 A 
HETATM   21  C   UNK N   1      19.969  14.279   1.569  0.00  0.00     0.005 A 
HETATM   22  C   UNK N   1      19.314  13.609   0.417  0.00  0.00     0.068 C 
HETATM   23  N   UNK N   1      19.227  14.658   2.646  0.00  0.00    -0.369 N 
HETATM   24  C   UNK N   1      19.794  15.281   3.713  0.00  0.00     0.095 A 
ATOM     25  HN  UNK N   1      18.224  14.469   2.652  1.00  0.00     0.165 HD
ENDBRANCH  17  18
ENDBRANCH   1  17
BRANCH  14  26
HETATM   26  C   UNK N   1      28.879  17.152   6.420  0.00  0.00     0.122 C 
HETATM   27  C   UNK N   1      30.175  17.355   5.623  0.00  0.00     0.028 C 
HETATM   28  C   UNK N   1      31.345  16.713   6.368  0.00  0.00     0.002 C 
HETATM   29  C   UNK N   1      31.485  17.311   7.766  0.00  0.00     0.003 C 
HETATM   30  C   UNK N   1      30.192  17.137   8.554  0.00  0.00     0.034 C 
HETATM   31  C   UNK N   1      29.032  17.793   7.815  0.00  0.00     0.141 C 
BRANCH  31  32
HETATM   32  O   UNK N   1      27.874  17.652   8.580  0.00  0.00    -0.393 OA
HETATM   33  H   UNK N   1      27.919  17.379   9.509  0.00  0.00     0.210 HD
ENDBRANCH  31  32
ENDBRANCH  14  26
TORSDOF 4
ENDMDL
MODEL 9
REMARK VINA RESULT:      -7.6      1.669      2.513
REMARK  4 active torsions:
REMARK  status: ('A' for Active; 'I' for Inactive)
REMARK    1  A    between atoms: C_5  and  C_9 
REMARK    2  A    between atoms: C_9  and  C_10 
REMARK    3  A    between atoms: C_26  and  N_23 
REMARK    4  A    between atoms: C_31  and  O_32 
ROOT
HETATM    1  C   UNK N   1      30.565  16.622   6.268  0.00  0.00    -0.042 A 
HETATM    2  C   UNK N   1      31.006  16.199   7.517  0.00  0.00     0.027 A 
HETATM    3  C   UNK N   1      32.295  15.709   7.714  0.00  0.00     0.060 A 
HETATM    4  C   UNK N   1      33.189  15.620   6.638  0.00  0.00     0.060 A 
HETATM    5  C   UNK N   1      32.777  16.027   5.356  0.00  0.00     0.002 A 
HETATM    6  C   UNK N   1      31.460  16.540   5.159  0.00  0.00    -0.017 A 
HETATM    7  C   UNK N   1      31.094  16.964   3.873  0.00  0.00     0.013 A 
HETATM    8  C   UNK N   1      31.985  16.877   2.802  0.00  0.00     0.001 A 
HETATM    9  C   UNK N   1      33.266  16.367   2.999  0.00  0.00     0.001 A 
HETATM   10  C   UNK N   1      33.662  15.947   4.269  0.00  0.00     0.014 A 
HETATM   11  N   UNK N   1      34.449  15.154   6.855  0.00  0.00    -0.351 N 
ATOM     12  HN  UNK N   1      35.094  15.071   6.069  1.00  0.00     0.166 HD
HETATM   13  C   UNK N   1      34.865  14.796   8.100  0.00  0.00     0.187 A 
HETATM   14  N   UNK N   1      34.020  14.883   9.171  0.00  0.00    -0.302 N 
HETATM   15  C   UNK N   1      32.724  15.321   8.985  0.00  0.00     0.261 A 
HETATM   16  O   UNK N   1      31.951  15.378   9.930  0.00  0.00    -0.267 OA
ENDROOT
BRANCH   1  17
HETATM   17  C   UNK N   1      29.151  17.169   6.252  0.00  0.00     0.079 C 
BRANCH  17  18
HETATM   18  C   UNK N   1      28.005  16.218   6.240  0.00  0.00    -0.038 A 
HETATM   19  C   UNK N   1      28.015  15.102   5.401  0.00  0.00     0.011 A 
HETATM   20  C   UNK N   1      26.927  14.230   5.404  0.00  0.00     0.025 A 
HETATM   21  C   UNK N   1      25.848  14.485   6.255  0.00  0.00     0.005 A 
HETATM   22  C   UNK N   1      24.677  13.570   6.260  0.00  0.00     0.068 C 
HETATM   23  N   UNK N   1      25.866  15.569   7.077  0.00  0.00    -0.369 N 
HETATM   24  C   UNK N   1      26.918  16.431   7.090  0.00  0.00     0.095 A 
ATOM     25  HN  UNK N   1      25.074  15.737   7.699  1.00  0.00     0.165 HD
ENDBRANCH  17  18
ENDBRANCH   1  17
BRANCH  14  26
HETATM   26  C   UNK N   1      34.477  14.537  10.530  0.00  0.00     0.122 C 
HETATM   27  C   UNK N   1      35.042  13.114  10.641  0.00  0.00     0.028 C 
HETATM   28  C   UNK N   1      35.380  12.805  12.099  0.00  0.00     0.002 C 
HETATM   29  C   UNK N   1      36.385  13.816  12.644  0.00  0.00     0.003 C 
HETATM   30  C   UNK N   1      35.842  15.234  12.512  0.00  0.00     0.034 C 
HETATM   31  C   UNK N   1      35.522  15.543  11.055  0.00  0.00     0.141 C 
BRANCH  31  32
HETATM   32  O   UNK N   1      35.067  16.859  10.964  0.00  0.00    -0.393 OA
HETATM   33  H   UNK N   1      34.819  17.244  10.109  0.00  0.00     0.210 HD
ENDBRANCH  31  32
ENDBRANCH  14  26
TORSDOF 4
ENDMDL
