MODEL 1
REMARK VINA RESULT:      -8.1      0.000      0.000
REMARK  7 active torsions:
REMARK  status: ('A' for Active; 'I' for Inactive)
REMARK    1  A    between atoms: C_10  and  N_11 
REMARK    2  A    between atoms: N_14  and  C_17 
REMARK    3  A    between atoms: C_17  and  C_18 
REMARK    4  A    between atoms: C_18  and  C_19 
REMARK    5  A    between atoms: C_19  and  C_20 
REMARK    6  A    between atoms: C_20  and  O_21 
REMARK    7  A    between atoms: O_21  and  C_22 
ROOT
HETATM    1  C   UNK N   1      19.791  15.938   4.777  0.00  0.00     0.272 C 
ENDROOT
BRANCH   1   2
HETATM    2  N   UNK N   1      21.190  15.691   5.088  0.00  0.00     0.091 N 
HETATM    3  C   UNK N   1      21.619  16.411   6.299  0.00  0.00     0.292 C 
HETATM    4  C   UNK N   1      21.233  15.694   7.594  0.00  0.00     0.153 C 
HETATM    5  N   UNK N   1      21.638  14.313   7.489  0.00  0.00    -0.377 N 
HETATM    6  C   UNK N   1      21.058  13.573   6.400  0.00  0.00     0.153 C 
HETATM    7  C   UNK N   1      21.478  14.247   5.096  0.00  0.00     0.292 C 
BRANCH   5   8
HETATM    8  C   UNK N   1      22.674  13.787   8.344  0.00  0.00     0.041 A 
HETATM    9  C   UNK N   1      24.012  13.895   7.918  0.00  0.00     0.030 A 
HETATM   10  C   UNK N   1      25.063  13.386   8.679  0.00  0.00     0.003 A 
HETATM   11  C   UNK N   1      24.809  12.749   9.888  0.00  0.00     0.012 A 
HETATM   12  C   UNK N   1      23.501  12.617  10.349  0.00  0.00    -0.024 A 
HETATM   13  C   UNK N   1      22.414  13.133   9.591  0.00  0.00     0.001 A 
HETATM   14  C   UNK N   1      23.269  11.963  11.563  0.00  0.00     0.012 A 
HETATM   15  C   UNK N   1      21.115  12.966  10.098  0.00  0.00     0.014 A 
HETATM   16  C   UNK N   1      20.892  12.313  11.312  0.00  0.00     0.001 A 
HETATM   17  C   UNK N   1      21.968  11.812  12.043  0.00  0.00     0.001 A 
ENDBRANCH   5   8
ENDBRANCH   1   2
BRANCH   1  18
HETATM   18  C   UNK N   1      19.682  17.354   4.232  0.00  0.00     0.032 C 
BRANCH  18  19
HETATM   19  C   UNK N   1      20.006  17.438   2.751  0.00  0.00     0.028 C 
BRANCH  19  20
HETATM   20  C   UNK N   1      20.915  18.613   2.409  0.00  0.00     0.177 C 
BRANCH  20  21
HETATM   21  O   UNK N   1      21.512  19.162   3.525  0.00  0.00    -0.336 OA
BRANCH  21  22
HETATM   22  C   UNK N   1      22.847  19.364   3.594  0.00  0.00     0.143 A 
HETATM   23  C   UNK N   1      23.429  20.389   2.845  0.00  0.00     0.057 A 
HETATM   24  C   UNK N   1      24.800  20.624   2.958  0.00  0.00     0.015 A 
HETATM   25  C   UNK N   1      25.579  19.825   3.796  0.00  0.00    -0.013 A 
HETATM   26  C   UNK N   1      24.968  18.784   4.509  0.00  0.00     0.116 A 
HETATM   27  C   UNK N   1      27.049  20.095   3.908  0.00  0.00     0.051 A 
HETATM   28  N   UNK N   1      23.625  18.587   4.399  0.00  0.00    -0.323 N 
HETATM   29  N   UNK N   1      25.725  17.930   5.341  0.00  0.00    -0.313 N 
ATOM     30  HN  UNK N   1      23.189  17.837   4.935  1.00  0.00     0.169 HD
HETATM   31  C   UNK N   1      27.059  18.073   5.519  0.00  0.00     0.223 A 
HETATM   32  H   UNK N   1      25.262  17.199   5.812  0.00  0.00     0.170 HD
HETATM   33  O   UNK N   1      27.651  17.289   6.241  0.00  0.00    -0.273 OA
HETATM   34  C   UNK N   1      27.835  19.178   4.853  0.00  0.00     0.108 A 
ENDBRANCH  21  22
ENDBRANCH  20  21
ENDBRANCH  19  20
ENDBRANCH  18  19
ENDBRANCH   1  18
TORSDOF 7
ENDMDL
MODEL 2
REMARK VINA RESULT:      -8.0     10.892     13.977
REMARK  7 active torsions:
REMARK  status: ('A' for Active; 'I' for Inactive)
REMARK    1  A    between atoms: C_10  and  N_11 
REMARK    2  A    between atoms: N_14  and  C_17 
REMARK    3  A    between atoms: C_17  and  C_18 
REMARK    4  A    between atoms: C_18  and  C_19 
REMARK    5  A    between atoms: C_19  and  C_20 
REMARK    6  A    between atoms: C_20  and  O_21 
REMARK    7  A    between atoms: O_21  and  C_22 
ROOT
HETATM    1  C   UNK N   1      35.935  12.682  11.524  0.00  0.00     0.272 C 
ENDROOT
BRANCH   1   2
HETATM    2  N   UNK N   1      35.605  12.939  12.917  0.00  0.00     0.091 N 
HETATM    3  C   UNK N   1      34.595  11.996  13.425  0.00  0.00     0.292 C 
HETATM    4  C   UNK N   1      35.188  10.649  13.844  0.00  0.00     0.153 C 
HETATM    5  N   UNK N   1      36.324  10.895  14.697  0.00  0.00    -0.377 N 
HETATM    6  C   UNK N   1      37.388  11.668  14.112  0.00  0.00     0.153 C 
HETATM    7  C   UNK N   1      36.825  13.037  13.735  0.00  0.00     0.292 C 
BRANCH   5   8
HETATM    8  C   UNK N   1      36.295  10.509  16.086  0.00  0.00     0.041 A 
HETATM    9  C   UNK N   1      36.672   9.195  16.423  0.00  0.00     0.030 A 
HETATM   10  C   UNK N   1      36.645   8.742  17.741  0.00  0.00     0.003 A 
HETATM   11  C   UNK N   1      36.232   9.589  18.763  0.00  0.00     0.012 A 
HETATM   12  C   UNK N   1      35.847  10.897  18.478  0.00  0.00    -0.024 A 
HETATM   13  C   UNK N   1      35.873  11.380  17.141  0.00  0.00     0.001 A 
HETATM   14  C   UNK N   1      35.427  11.727  19.522  0.00  0.00     0.012 A 
HETATM   15  C   UNK N   1      35.468  12.705  16.907  0.00  0.00     0.014 A 
HETATM   16  C   UNK N   1      35.051  13.527  17.956  0.00  0.00     0.001 A 
HETATM   17  C   UNK N   1      35.030  13.039  19.261  0.00  0.00     0.001 A 
ENDBRANCH   5   8
ENDBRANCH   1   2
BRANCH   1  18
HETATM   18  C   UNK N   1      35.322  13.797  10.690  0.00  0.00     0.032 C 
BRANCH  18  19
HETATM   19  C   UNK N   1      36.151  15.069  10.713  0.00  0.00     0.028 C 
BRANCH  19  20
HETATM   20  C   UNK N   1      35.301  16.332  10.628  0.00  0.00     0.177 C 
BRANCH  20  21
HETATM   21  O   UNK N   1      35.302  16.885   9.365  0.00  0.00    -0.336 OA
BRANCH  21  22
HETATM   22  C   UNK N   1      34.166  17.017   8.643  0.00  0.00     0.143 A 
HETATM   23  C   UNK N   1      34.227  16.977   7.248  0.00  0.00     0.057 A 
HETATM   24  C   UNK N   1      33.045  17.066   6.510  0.00  0.00     0.015 A 
HETATM   25  C   UNK N   1      31.822  17.213   7.165  0.00  0.00    -0.013 A 
HETATM   26  C   UNK N   1      31.801  17.281   8.565  0.00  0.00     0.116 A 
HETATM   27  C   UNK N   1      30.564  17.300   6.355  0.00  0.00     0.051 A 
HETATM   28  N   UNK N   1      32.964  17.172   9.265  0.00  0.00    -0.323 N 
HETATM   29  N   UNK N   1      30.588  17.465   9.266  0.00  0.00    -0.313 N 
ATOM     30  HN  UNK N   1      32.934  17.207  10.283  1.00  0.00     0.169 HD
HETATM   31  C   UNK N   1      29.389  17.562   8.644  0.00  0.00     0.223 A 
HETATM   32  H   UNK N   1      30.616  17.526  10.248  0.00  0.00     0.170 HD
HETATM   33  O   UNK N   1      28.384  17.734   9.312  0.00  0.00    -0.273 OA
HETATM   34  C   UNK N   1      29.260  17.455   7.148  0.00  0.00     0.108 A 
ENDBRANCH  21  22
ENDBRANCH  20  21
ENDBRANCH  19  20
ENDBRANCH  18  19
ENDBRANCH   1  18
TORSDOF 7
ENDMDL
MODEL 3
REMARK VINA RESULT:      -7.8      9.906     14.540
REMARK  7 active torsions:
REMARK  status: ('A' for Active; 'I' for Inactive)
REMARK    1  A    between atoms: C_10  and  N_11 
REMARK    2  A    between atoms: N_14  and  C_17 
REMARK    3  A    between atoms: C_17  and  C_18 
REMARK    4  A    between atoms: C_18  and  C_19 
REMARK    5  A    between atoms: C_19  and  C_20 
REMARK    6  A    between atoms: C_20  and  O_21 
REMARK    7  A    between atoms: O_21  and  C_22 
ROOT
HETATM    1  C   UNK N   1      35.222  15.026   8.531  0.00  0.00     0.272 C 
ENDROOT
BRANCH   1   2
HETATM    2  N   UNK N   1      34.218  15.720   9.322  0.00  0.00     0.091 N 
HETATM    3  C   UNK N   1      34.097  17.136   8.937  0.00  0.00     0.292 C 
HETATM    4  C   UNK N   1      33.227  17.350   7.697  0.00  0.00     0.153 C 
HETATM    5  N   UNK N   1      31.993  16.625   7.874  0.00  0.00    -0.377 N 
HETATM    6  C   UNK N   1      32.125  15.204   8.065  0.00  0.00     0.153 C 
HETATM    7  C   UNK N   1      32.948  14.973   9.330  0.00  0.00     0.292 C 
BRANCH   5   8
HETATM    8  C   UNK N   1      30.741  17.330   8.000  0.00  0.00     0.041 A 
HETATM    9  C   UNK N   1      30.346  17.771   9.277  0.00  0.00     0.030 A 
HETATM   10  C   UNK N   1      29.138  18.435   9.480  0.00  0.00     0.003 A 
HETATM   11  C   UNK N   1      28.283  18.674   8.410  0.00  0.00     0.012 A 
HETATM   12  C   UNK N   1      28.630  18.255   7.128  0.00  0.00    -0.024 A 
HETATM   13  C   UNK N   1      29.861  17.580   6.899  0.00  0.00     0.001 A 
HETATM   14  C   UNK N   1      27.749  18.498   6.070  0.00  0.00     0.012 A 
HETATM   15  C   UNK N   1      30.158  17.171   5.588  0.00  0.00     0.014 A 
HETATM   16  C   UNK N   1      29.273  17.419   4.537  0.00  0.00     0.001 A 
HETATM   17  C   UNK N   1      28.070  18.081   4.778  0.00  0.00     0.001 A 
ENDBRANCH   5   8
ENDBRANCH   1   2
BRANCH   1  18
HETATM   18  C   UNK N   1      36.292  14.518   9.485  0.00  0.00     0.032 C 
BRANCH  18  19
HETATM   19  C   UNK N   1      36.056  14.962  10.919  0.00  0.00     0.028 C 
BRANCH  19  20
HETATM   20  C   UNK N   1      36.470  13.908  11.940  0.00  0.00     0.177 C 
BRANCH  20  21
HETATM   21  O   UNK N   1      36.355  14.358  13.239  0.00  0.00    -0.336 OA
BRANCH  21  22
HETATM   22  C   UNK N   1      36.177  13.508  14.276  0.00  0.00     0.143 A 
HETATM   23  C   UNK N   1      36.351  12.136  14.080  0.00  0.00     0.057 A 
HETATM   24  C   UNK N   1      36.214  11.268  15.165  0.00  0.00     0.015 A 
HETATM   25  C   UNK N   1      35.886  11.772  16.424  0.00  0.00    -0.013 A 
HETATM   26  C   UNK N   1      35.687  13.151  16.579  0.00  0.00     0.116 A 
HETATM   27  C   UNK N   1      35.748  10.825  17.578  0.00  0.00     0.051 A 
HETATM   28  N   UNK N   1      35.847  13.980  15.510  0.00  0.00    -0.323 N 
HETATM   29  N   UNK N   1      35.319  13.697  17.828  0.00  0.00    -0.313 N 
ATOM     30  HN  UNK N   1      35.715  14.983  15.638  1.00  0.00     0.169 HD
HETATM   31  C   UNK N   1      35.161  12.942  18.941  0.00  0.00     0.223 A 
HETATM   32  H   UNK N   1      35.172  14.668  17.892  0.00  0.00     0.170 HD
HETATM   33  O   UNK N   1      34.829  13.480  19.983  0.00  0.00    -0.273 OA
HETATM   34  C   UNK N   1      35.391  11.455  18.930  0.00  0.00     0.108 A 
ENDBRANCH  21  22
ENDBRANCH  20  21
ENDBRANCH  19  20
ENDBRANCH  18  19
ENDBRANCH   1  18
TORSDOF 7
ENDMDL
MODEL 4
REMARK VINA RESULT:      -7.7     10.840     13.814
REMARK  7 active torsions:
REMARK  status: ('A' for Active; 'I' for Inactive)
REMARK    1  A    between atoms: C_10  and  N_11 
REMARK    2  A    between atoms: N_14  and  C_17 
REMARK    3  A    between atoms: C_17  and  C_18 
REMARK    4  A    between atoms: C_18  and  C_19 
REMARK    5  A    between atoms: C_19  and  C_20 
REMARK    6  A    between atoms: C_20  and  O_21 
REMARK    7  A    between atoms: O_21  and  C_22 
ROOT
HETATM    1  C   UNK N   1      35.227  13.873  11.539  0.00  0.00     0.272 C 
ENDROOT
BRANCH   1   2
HETATM    2  N   UNK N   1      35.810  12.606  11.949  0.00  0.00     0.091 N 
HETATM    3  C   UNK N   1      37.012  12.796  12.778  0.00  0.00     0.292 C 
HETATM    4  C   UNK N   1      36.691  13.091  14.244  0.00  0.00     0.153 C 
HETATM    5  N   UNK N   1      35.739  12.113  14.709  0.00  0.00    -0.377 N 
HETATM    6  C   UNK N   1      34.489  12.070  13.997  0.00  0.00     0.153 C 
HETATM    7  C   UNK N   1      34.788  11.725  12.540  0.00  0.00     0.292 C 
BRANCH   5   8
HETATM    8  C   UNK N   1      36.108  11.155  15.722  0.00  0.00     0.041 A 
HETATM    9  C   UNK N   1      36.682   9.936  15.313  0.00  0.00     0.030 A 
HETATM   10  C   UNK N   1      37.041   8.952  16.233  0.00  0.00     0.003 A 
HETATM   11  C   UNK N   1      36.830   9.155  17.592  0.00  0.00     0.012 A 
HETATM   12  C   UNK N   1      36.262  10.344  18.044  0.00  0.00    -0.024 A 
HETATM   13  C   UNK N   1      35.895  11.363  17.122  0.00  0.00     0.001 A 
HETATM   14  C   UNK N   1      36.051  10.520  19.415  0.00  0.00     0.012 A 
HETATM   15  C   UNK N   1      35.320  12.539  17.631  0.00  0.00     0.014 A 
HETATM   16  C   UNK N   1      35.113  12.708  19.002  0.00  0.00     0.001 A 
HETATM   17  C   UNK N   1      35.478  11.700  19.892  0.00  0.00     0.001 A 
ENDBRANCH   5   8
ENDBRANCH   1   2
BRANCH   1  18
HETATM   18  C   UNK N   1      36.188  14.529  10.560  0.00  0.00     0.032 C 
BRANCH  18  19
HETATM   19  C   UNK N   1      35.479  15.407   9.543  0.00  0.00     0.028 C 
BRANCH  19  20
HETATM   20  C   UNK N   1      35.037  16.746  10.124  0.00  0.00     0.177 C 
BRANCH  20  21
HETATM   21  O   UNK N   1      34.775  17.685   9.148  0.00  0.00    -0.336 OA
BRANCH  21  22
HETATM   22  C   UNK N   1      33.814  17.495   8.215  0.00  0.00     0.143 A 
HETATM   23  C   UNK N   1      32.469  17.575   8.584  0.00  0.00     0.057 A 
HETATM   24  C   UNK N   1      31.483  17.427   7.608  0.00  0.00     0.015 A 
HETATM   25  C   UNK N   1      31.844  17.181   6.283  0.00  0.00    -0.013 A 
HETATM   26  C   UNK N   1      33.202  17.075   5.953  0.00  0.00     0.116 A 
HETATM   27  C   UNK N   1      30.770  17.030   5.247  0.00  0.00     0.051 A 
HETATM   28  N   UNK N   1      34.147  17.244   6.919  0.00  0.00    -0.323 N 
HETATM   29  N   UNK N   1      33.609  16.792   4.630  0.00  0.00    -0.313 N 
ATOM     30  HN  UNK N   1      35.132  17.181   6.664  1.00  0.00     0.169 HD
HETATM   31  C   UNK N   1      32.732  16.632   3.611  0.00  0.00     0.223 A 
HETATM   32  H   UNK N   1      34.572  16.708   4.441  0.00  0.00     0.170 HD
HETATM   33  O   UNK N   1      33.155  16.375   2.497  0.00  0.00    -0.273 OA
HETATM   34  C   UNK N   1      31.247  16.768   3.814  0.00  0.00     0.108 A 
ENDBRANCH  21  22
ENDBRANCH  20  21
ENDBRANCH  19  20
ENDBRANCH  18  19
ENDBRANCH   1  18
TORSDOF 7
ENDMDL
MODEL 5
REMARK VINA RESULT:      -7.6      9.739     14.518
REMARK  7 active torsions:
REMARK  status: ('A' for Active; 'I' for Inactive)
REMARK    1  A    between atoms: C_10  and  N_11 
REMARK    2  A    between atoms: N_14  and  C_17 
REMARK    3  A    between atoms: C_17  and  C_18 
REMARK    4  A    between atoms: C_18  and  C_19 
REMARK    5  A    between atoms: C_19  and  C_20 
REMARK    6  A    between atoms: C_20  and  O_21 
REMARK    7  A    between atoms: O_21  and  C_22 
ROOT
HETATM    1  C   UNK N   1      35.214  16.265  10.176  0.00  0.00     0.272 C 
ENDROOT
BRANCH   1   2
HETATM    2  N   UNK N   1      34.799  15.832   8.851  0.00  0.00     0.091 N 
HETATM    3  C   UNK N   1      33.698  14.856   8.910  0.00  0.00     0.292 C 
HETATM    4  C   UNK N   1      32.326  15.507   9.096  0.00  0.00     0.153 C 
HETATM    5  N   UNK N   1      32.191  16.570   8.131  0.00  0.00    -0.377 N 
HETATM    6  C   UNK N   1      33.176  17.617   8.212  0.00  0.00     0.153 C 
HETATM    7  C   UNK N   1      34.549  16.991   7.976  0.00  0.00     0.292 C 
BRANCH   5   8
HETATM    8  C   UNK N   1      31.214  16.480   7.074  0.00  0.00     0.041 A 
HETATM    9  C   UNK N   1      31.484  15.630   5.984  0.00  0.00     0.030 A 
HETATM   10  C   UNK N   1      30.600  15.511   4.913  0.00  0.00     0.003 A 
HETATM   11  C   UNK N   1      29.419  16.244   4.897  0.00  0.00     0.012 A 
HETATM   12  C   UNK N   1      29.109  17.100   5.952  0.00  0.00    -0.024 A 
HETATM   13  C   UNK N   1      29.996  17.231   7.056  0.00  0.00     0.001 A 
HETATM   14  C   UNK N   1      27.920  17.834   5.907  0.00  0.00     0.012 A 
HETATM   15  C   UNK N   1      29.640  18.114   8.089  0.00  0.00     0.014 A 
HETATM   16  C   UNK N   1      28.449  18.842   8.038  0.00  0.00     0.001 A 
HETATM   17  C   UNK N   1      27.591  18.703   6.948  0.00  0.00     0.001 A 
ENDBRANCH   5   8
ENDBRANCH   1   2
BRANCH   1  18
HETATM   18  C   UNK N   1      36.185  15.227  10.718  0.00  0.00     0.032 C 
BRANCH  18  19
HETATM   19  C   UNK N   1      35.909  14.869  12.168  0.00  0.00     0.028 C 
BRANCH  19  20
HETATM   20  C   UNK N   1      35.835  13.363  12.402  0.00  0.00     0.177 C 
BRANCH  20  21
HETATM   21  O   UNK N   1      34.668  12.983  13.032  0.00  0.00    -0.336 OA
BRANCH  21  22
HETATM   22  C   UNK N   1      34.677  12.283  14.189  0.00  0.00     0.143 A 
HETATM   23  C   UNK N   1      34.417  10.910  14.166  0.00  0.00     0.057 A 
HETATM   24  C   UNK N   1      34.476  10.184  15.357  0.00  0.00     0.015 A 
HETATM   25  C   UNK N   1      34.772  10.833  16.556  0.00  0.00    -0.013 A 
HETATM   26  C   UNK N   1      34.997  12.216  16.547  0.00  0.00     0.116 A 
HETATM   27  C   UNK N   1      34.836  10.035  17.824  0.00  0.00     0.051 A 
HETATM   28  N   UNK N   1      34.954  12.900  15.371  0.00  0.00    -0.323 N 
HETATM   29  N   UNK N   1      35.265  12.917  17.744  0.00  0.00    -0.313 N 
ATOM     30  HN  UNK N   1      35.135  13.904  15.375  1.00  0.00     0.169 HD
HETATM   31  C   UNK N   1      35.344  12.306  18.950  0.00  0.00     0.223 A 
HETATM   32  H   UNK N   1      35.400  13.891  17.700  0.00  0.00     0.170 HD
HETATM   33  O   UNK N   1      35.565  12.977  19.944  0.00  0.00    -0.273 OA
HETATM   34  C   UNK N   1      35.172  10.818  19.099  0.00  0.00     0.108 A 
ENDBRANCH  21  22
ENDBRANCH  20  21
ENDBRANCH  19  20
ENDBRANCH  18  19
ENDBRANCH   1  18
TORSDOF 7
ENDMDL
MODEL 6
REMARK VINA RESULT:      -7.6     10.694     13.725
REMARK  7 active torsions:
REMARK  status: ('A' for Active; 'I' for Inactive)
REMARK    1  A    between atoms: C_10  and  N_11 
REMARK    2  A    between atoms: N_14  and  C_17 
REMARK    3  A    between atoms: C_17  and  C_18 
REMARK    4  A    between atoms: C_18  and  C_19 
REMARK    5  A    between atoms: C_19  and  C_20 
REMARK    6  A    between atoms: C_20  and  O_21 
REMARK    7  A    between atoms: O_21  and  C_22 
ROOT
HETATM    1  C   UNK N   1      36.019  12.135  11.712  0.00  0.00     0.272 C 
ENDROOT
BRANCH   1   2
HETATM    2  N   UNK N   1      35.980  13.026  12.861  0.00  0.00     0.091 N 
HETATM    3  C   UNK N   1      34.649  13.056  13.488  0.00  0.00     0.292 C 
HETATM    4  C   UNK N   1      34.401  11.876  14.430  0.00  0.00     0.153 C 
HETATM    5  N   UNK N   1      35.529  11.758  15.321  0.00  0.00    -0.377 N 
HETATM    6  C   UNK N   1      36.804  11.542  14.690  0.00  0.00     0.153 C 
HETATM    7  C   UNK N   1      37.090  12.738  13.785  0.00  0.00     0.292 C 
BRANCH   5   8
HETATM    8  C   UNK N   1      35.374  12.000  16.735  0.00  0.00     0.041 A 
HETATM    9  C   UNK N   1      35.408  13.330  17.194  0.00  0.00     0.030 A 
HETATM   10  C   UNK N   1      35.290  13.639  18.548  0.00  0.00     0.003 A 
HETATM   11  C   UNK N   1      35.142  12.624  19.487  0.00  0.00     0.012 A 
HETATM   12  C   UNK N   1      35.106  11.292  19.080  0.00  0.00    -0.024 A 
HETATM   13  C   UNK N   1      35.218  10.957  17.703  0.00  0.00     0.001 A 
HETATM   14  C   UNK N   1      34.966  10.289  20.044  0.00  0.00     0.012 A 
HETATM   15  C   UNK N   1      35.183   9.598  17.348  0.00  0.00     0.014 A 
HETATM   16  C   UNK N   1      35.042   8.602  18.317  0.00  0.00     0.001 A 
HETATM   17  C   UNK N   1      34.934   8.947  19.663  0.00  0.00     0.001 A 
ENDBRANCH   5   8
ENDBRANCH   1   2
BRANCH   1  18
HETATM   18  C   UNK N   1      34.977  12.621  10.715  0.00  0.00     0.032 C 
BRANCH  18  19
HETATM   19  C   UNK N   1      35.463  13.800   9.890  0.00  0.00     0.028 C 
BRANCH  19  20
HETATM   20  C   UNK N   1      34.763  15.105  10.254  0.00  0.00     0.177 C 
BRANCH  20  21
HETATM   21  O   UNK N   1      34.767  16.014   9.216  0.00  0.00    -0.336 OA
BRANCH  21  22
HETATM   22  C   UNK N   1      33.629  16.382   8.585  0.00  0.00     0.143 A 
HETATM   23  C   UNK N   1      33.638  16.576   7.202  0.00  0.00     0.057 A 
HETATM   24  C   UNK N   1      32.450  16.908   6.550  0.00  0.00     0.015 A 
HETATM   25  C   UNK N   1      31.272  17.063   7.282  0.00  0.00    -0.013 A 
HETATM   26  C   UNK N   1      31.304  16.892   8.673  0.00  0.00     0.116 A 
HETATM   27  C   UNK N   1      30.004  17.415   6.564  0.00  0.00     0.051 A 
HETATM   28  N   UNK N   1      32.471  16.548   9.284  0.00  0.00    -0.323 N 
HETATM   29  N   UNK N   1      30.142  17.074   9.455  0.00  0.00    -0.313 N 
ATOM     30  HN  UNK N   1      32.479  16.411  10.295  1.00  0.00     0.169 HD
HETATM   31  C   UNK N   1      28.941  17.396   8.920  0.00  0.00     0.223 A 
HETATM   32  H   UNK N   1      30.209  16.962  10.431  0.00  0.00     0.170 HD
HETATM   33  O   UNK N   1      27.983  17.552   9.658  0.00  0.00    -0.273 OA
HETATM   34  C   UNK N   1      28.752  17.562   7.436  0.00  0.00     0.108 A 
ENDBRANCH  21  22
ENDBRANCH  20  21
ENDBRANCH  19  20
ENDBRANCH  18  19
ENDBRANCH   1  18
TORSDOF 7
ENDMDL
MODEL 7
REMARK VINA RESULT:      -7.6      3.489      5.352
REMARK  7 active torsions:
REMARK  status: ('A' for Active; 'I' for Inactive)
REMARK    1  A    between atoms: C_10  and  N_11 
REMARK    2  A    between atoms: N_14  and  C_17 
REMARK    3  A    between atoms: C_17  and  C_18 
REMARK    4  A    between atoms: C_18  and  C_19 
REMARK    5  A    between atoms: C_19  and  C_20 
REMARK    6  A    between atoms: C_20  and  O_21 
REMARK    7  A    between atoms: O_21  and  C_22 
ROOT
HETATM    1  C   UNK N   1      26.549  14.110   4.423  0.00  0.00     0.272 C 
ENDROOT
BRANCH   1   2
HETATM    2  N   UNK N   1      25.175  14.446   4.760  0.00  0.00     0.091 N 
HETATM    3  C   UNK N   1      24.326  13.248   4.868  0.00  0.00     0.292 C 
HETATM    4  C   UNK N   1      24.454  12.539   6.218  0.00  0.00     0.153 C 
HETATM    5  N   UNK N   1      24.314  13.523   7.264  0.00  0.00    -0.377 N 
HETATM    6  C   UNK N   1      25.276  14.593   7.249  0.00  0.00     0.153 C 
HETATM    7  C   UNK N   1      25.126  15.343   5.927  0.00  0.00     0.292 C 
BRANCH   5   8
HETATM    8  C   UNK N   1      23.181  13.487   8.156  0.00  0.00     0.041 A 
HETATM    9  C   UNK N   1      21.966  14.048   7.717  0.00  0.00     0.030 A 
HETATM   10  C   UNK N   1      20.836  14.073   8.533  0.00  0.00     0.003 A 
HETATM   11  C   UNK N   1      20.888  13.542   9.817  0.00  0.00     0.012 A 
HETATM   12  C   UNK N   1      22.068  12.978  10.295  0.00  0.00    -0.024 A 
HETATM   13  C   UNK N   1      23.231  12.938   9.477  0.00  0.00     0.001 A 
HETATM   14  C   UNK N   1      22.098  12.459  11.593  0.00  0.00     0.012 A 
HETATM   15  C   UNK N   1      24.397  12.364  10.010  0.00  0.00     0.014 A 
HETATM   16  C   UNK N   1      24.418  11.847  11.308  0.00  0.00     0.001 A 
HETATM   17  C   UNK N   1      23.271  11.895  12.098  0.00  0.00     0.001 A 
ENDBRANCH   5   8
ENDBRANCH   1   2
BRANCH   1  18
HETATM   18  C   UNK N   1      26.789  14.534   2.982  0.00  0.00     0.032 C 
BRANCH  18  19
HETATM   19  C   UNK N   1      26.743  16.041   2.801  0.00  0.00     0.028 C 
BRANCH  19  20
HETATM   20  C   UNK N   1      27.926  16.752   3.450  0.00  0.00     0.177 C 
BRANCH  20  21
HETATM   21  O   UNK N   1      27.652  17.166   4.737  0.00  0.00    -0.336 OA
BRANCH  21  22
HETATM   22  C   UNK N   1      28.631  17.346   5.652  0.00  0.00     0.143 A 
HETATM   23  C   UNK N   1      28.293  17.590   6.986  0.00  0.00     0.057 A 
HETATM   24  C   UNK N   1      29.308  17.726   7.934  0.00  0.00     0.015 A 
HETATM   25  C   UNK N   1      30.644  17.639   7.544  0.00  0.00    -0.013 A 
HETATM   26  C   UNK N   1      30.949  17.425   6.192  0.00  0.00     0.116 A 
HETATM   27  C   UNK N   1      31.720  17.782   8.578  0.00  0.00     0.051 A 
HETATM   28  N   UNK N   1      29.941  17.275   5.288  0.00  0.00    -0.323 N 
HETATM   29  N   UNK N   1      32.289  17.366   5.749  0.00  0.00    -0.313 N 
ATOM     30  HN  UNK N   1      30.175  17.104   4.310  1.00  0.00     0.169 HD
HETATM   31  C   UNK N   1      33.345  17.485   6.588  0.00  0.00     0.223 A 
HETATM   32  H   UNK N   1      32.462  17.231   4.790  0.00  0.00     0.170 HD
HETATM   33  O   UNK N   1      34.475  17.438   6.133  0.00  0.00    -0.273 OA
HETATM   34  C   UNK N   1      33.163  17.669   8.071  0.00  0.00     0.108 A 
ENDBRANCH  21  22
ENDBRANCH  20  21
ENDBRANCH  19  20
ENDBRANCH  18  19
ENDBRANCH   1  18
TORSDOF 7
ENDMDL
MODEL 8
REMARK VINA RESULT:      -7.5      3.775      8.817
REMARK  7 active torsions:
REMARK  status: ('A' for Active; 'I' for Inactive)
REMARK    1  A    between atoms: C_10  and  N_11 
REMARK    2  A    between atoms: N_14  and  C_17 
REMARK    3  A    between atoms: C_17  and  C_18 
REMARK    4  A    between atoms: C_18  and  C_19 
REMARK    5  A    between atoms: C_19  and  C_20 
REMARK    6  A    between atoms: C_20  and  O_21 
REMARK    7  A    between atoms: O_21  and  C_22 
ROOT
HETATM    1  C   UNK N   1      25.558  16.700   3.837  0.00  0.00     0.272 C 
ENDROOT
BRANCH   1   2
HETATM    2  N   UNK N   1      25.994  17.189   5.135  0.00  0.00     0.091 N 
HETATM    3  C   UNK N   1      26.549  16.112   5.970  0.00  0.00     0.292 C 
HETATM    4  C   UNK N   1      28.005  15.781   5.638  0.00  0.00     0.153 C 
HETATM    5  N   UNK N   1      28.755  17.012   5.596  0.00  0.00    -0.377 N 
HETATM    6  C   UNK N   1      28.306  17.985   4.634  0.00  0.00     0.153 C 
HETATM    7  C   UNK N   1      26.869  18.365   4.984  0.00  0.00     0.292 C 
BRANCH   5   8
HETATM    8  C   UNK N   1      29.783  17.277   6.572  0.00  0.00     0.041 A 
HETATM    9  C   UNK N   1      29.392  17.652   7.871  0.00  0.00     0.030 A 
HETATM   10  C   UNK N   1      30.329  17.949   8.860  0.00  0.00     0.003 A 
HETATM   11  C   UNK N   1      31.688  17.886   8.576  0.00  0.00     0.012 A 
HETATM   12  C   UNK N   1      32.123  17.522   7.304  0.00  0.00    -0.024 A 
HETATM   13  C   UNK N   1      31.183  17.210   6.283  0.00  0.00     0.001 A 
HETATM   14  C   UNK N   1      33.496  17.475   7.041  0.00  0.00     0.012 A 
HETATM   15  C   UNK N   1      31.676  16.856   5.016  0.00  0.00     0.014 A 
HETATM   16  C   UNK N   1      33.048  16.811   4.762  0.00  0.00     0.001 A 
HETATM   17  C   UNK N   1      33.957  17.120   5.773  0.00  0.00     0.001 A 
ENDBRANCH   5   8
ENDBRANCH   1   2
BRANCH   1  18
HETATM   18  C   UNK N   1      24.517  15.617   4.077  0.00  0.00     0.032 C 
BRANCH  18  19
HETATM   19  C   UNK N   1      23.122  16.182   4.283  0.00  0.00     0.028 C 
BRANCH  19  20
HETATM   20  C   UNK N   1      22.388  15.534   5.452  0.00  0.00     0.177 C 
BRANCH  20  21
HETATM   21  O   UNK N   1      22.735  14.210   5.625  0.00  0.00    -0.336 OA
BRANCH  21  22
HETATM   22  C   UNK N   1      23.025  13.702   6.844  0.00  0.00     0.143 A 
HETATM   23  C   UNK N   1      24.355  13.441   7.184  0.00  0.00     0.057 A 
HETATM   24  C   UNK N   1      24.652  12.962   8.461  0.00  0.00     0.015 A 
HETATM   25  C   UNK N   1      23.625  12.730   9.376  0.00  0.00    -0.013 A 
HETATM   26  C   UNK N   1      22.299  12.973   8.992  0.00  0.00     0.116 A 
HETATM   27  C   UNK N   1      23.965  12.221  10.745  0.00  0.00     0.051 A 
HETATM   28  N   UNK N   1      22.035  13.459   7.747  0.00  0.00    -0.323 N 
HETATM   29  N   UNK N   1      21.227  12.718   9.875  0.00  0.00    -0.313 N 
ATOM     30  HN  UNK N   1      21.068  13.647   7.484  1.00  0.00     0.169 HD
HETATM   31  C   UNK N   1      21.409  12.253  11.134  0.00  0.00     0.223 A 
HETATM   32  H   UNK N   1      20.309  12.884   9.562  0.00  0.00     0.170 HD
HETATM   33  O   UNK N   1      20.436  12.042  11.837  0.00  0.00    -0.273 OA
HETATM   34  C   UNK N   1      22.782  11.996  11.695  0.00  0.00     0.108 A 
ENDBRANCH  21  22
ENDBRANCH  20  21
ENDBRANCH  19  20
ENDBRANCH  18  19
ENDBRANCH   1  18
TORSDOF 7
ENDMDL
MODEL 9
REMARK VINA RESULT:      -7.4      8.934     11.977
REMARK  7 active torsions:
REMARK  status: ('A' for Active; 'I' for Inactive)
REMARK    1  A    between atoms: C_10  and  N_11 
REMARK    2  A    between atoms: N_14  and  C_17 
REMARK    3  A    between atoms: C_17  and  C_18 
REMARK    4  A    between atoms: C_18  and  C_19 
REMARK    5  A    between atoms: C_19  and  C_20 
REMARK    6  A    between atoms: C_20  and  O_21 
REMARK    7  A    between atoms: O_21  and  C_22 
ROOT
HETATM    1  C   UNK N   1      34.911  14.455   8.082  0.00  0.00     0.272 C 
ENDROOT
BRANCH   1   2
HETATM    2  N   UNK N   1      35.735  14.892   9.198  0.00  0.00     0.091 N 
HETATM    3  C   UNK N   1      34.945  15.590  10.225  0.00  0.00     0.292 C 
HETATM    4  C   UNK N   1      34.215  14.636  11.174  0.00  0.00     0.153 C 
HETATM    5  N   UNK N   1      35.158  13.653  11.646  0.00  0.00    -0.377 N 
HETATM    6  C   UNK N   1      35.786  12.849  10.630  0.00  0.00     0.153 C 
HETATM    7  C   UNK N   1      36.562  13.783   9.704  0.00  0.00     0.292 C 
BRANCH   5   8
HETATM    8  C   UNK N   1      35.536  13.610  13.038  0.00  0.00     0.041 A 
HETATM    9  C   UNK N   1      36.387  14.617  13.531  0.00  0.00     0.030 A 
HETATM   10  C   UNK N   1      36.815  14.626  14.858  0.00  0.00     0.003 A 
HETATM   11  C   UNK N   1      36.410  13.623  15.731  0.00  0.00     0.012 A 
HETATM   12  C   UNK N   1      35.570  12.605  15.288  0.00  0.00    -0.024 A 
HETATM   13  C   UNK N   1      35.118  12.580  13.939  0.00  0.00     0.001 A 
HETATM   14  C   UNK N   1      35.184  11.602  16.182  0.00  0.00     0.012 A 
HETATM   15  C   UNK N   1      34.278  11.526  13.543  0.00  0.00     0.014 A 
HETATM   16  C   UNK N   1      33.896  10.529  14.443  0.00  0.00     0.001 A 
HETATM   17  C   UNK N   1      34.349  10.567  15.761  0.00  0.00     0.001 A 
ENDBRANCH   5   8
ENDBRANCH   1   2
BRANCH   1  18
HETATM   18  C   UNK N   1      35.462  15.101   6.820  0.00  0.00     0.032 C 
BRANCH  18  19
HETATM   19  C   UNK N   1      35.044  14.367   5.557  0.00  0.00     0.028 C 
BRANCH  19  20
HETATM   20  C   UNK N   1      33.736  14.891   4.974  0.00  0.00     0.177 C 
BRANCH  20  21
HETATM   21  O   UNK N   1      33.471  16.190   5.354  0.00  0.00    -0.336 OA
BRANCH  21  22
HETATM   22  C   UNK N   1      32.241  16.577   5.763  0.00  0.00     0.143 A 
HETATM   23  C   UNK N   1      31.836  16.316   7.074  0.00  0.00     0.057 A 
HETATM   24  C   UNK N   1      30.585  16.761   7.504  0.00  0.00     0.015 A 
HETATM   25  C   UNK N   1      29.745  17.441   6.622  0.00  0.00    -0.013 A 
HETATM   26  C   UNK N   1      30.170  17.659   5.304  0.00  0.00     0.116 A 
HETATM   27  C   UNK N   1      28.407  17.916   7.104  0.00  0.00     0.051 A 
HETATM   28  N   UNK N   1      31.403  17.233   4.913  0.00  0.00    -0.323 N 
HETATM   29  N   UNK N   1      29.336  18.312   4.369  0.00  0.00    -0.313 N 
ATOM     30  HN  UNK N   1      31.708  17.412   3.956  1.00  0.00     0.169 HD
HETATM   31  C   UNK N   1      28.106  18.782   4.686  0.00  0.00     0.223 A 
HETATM   32  H   UNK N   1      29.663  18.431   3.449  0.00  0.00     0.170 HD
HETATM   33  O   UNK N   1      27.436  19.323   3.824  0.00  0.00    -0.273 OA
HETATM   34  C   UNK N   1      27.544  18.660   6.077  0.00  0.00     0.108 A 
ENDBRANCH  21  22
ENDBRANCH  20  21
ENDBRANCH  19  20
ENDBRANCH  18  19
ENDBRANCH   1  18
TORSDOF 7
ENDMDL
