MODEL 1
REMARK VINA RESULT:      -5.8      0.000      0.000
REMARK  7 active torsions:
REMARK  status: ('A' for Active; 'I' for Inactive)
REMARK    1  A    between atoms: C_3  and  O_19 
REMARK    2  A    between atoms: C_4  and  N_8 
REMARK    3  A    between atoms: C_5  and  O_7 
REMARK       I    between atoms: N_8  and  C_9 
REMARK       I    between atoms: C_9  and  N_11 
REMARK    4  A    between atoms: N_11  and  C_12 
REMARK    5  A    between atoms: N_11  and  N_15 
REMARK    6  A    between atoms: C_12  and  C_13 
REMARK    7  A    between atoms: N_15  and  O_17 
ROOT
HETATM    1  N   UNK N   1      26.818  18.751   6.028  0.00  0.00    -0.332 N 
HETATM    2  C   UNK N   1      28.031  18.183   6.282  0.00  0.00     0.339 C 
HETATM    3  O   UNK N   1      28.720  17.740   5.378  0.00  0.00    -0.245 OA
HETATM    4  N   UNK N   1      28.466  18.091   7.570  0.00  0.00    -0.222 N 
HETATM    5  H   UNK N   1      26.319  19.038   6.826  0.00  0.00     0.164 HD
ENDROOT
BRANCH   1   6
HETATM    6  C   UNK N   1      26.140  19.005   4.757  0.00  0.00     0.143 C 
HETATM    7  C   UNK N   1      26.584  20.263   3.969  0.00  0.00     0.143 C 
HETATM    8  C   UNK N   1      25.723  20.454   2.718  0.00  0.00     0.034 C 
HETATM    9  C   UNK N   1      24.241  20.495   3.056  0.00  0.00     0.005 C 
HETATM   10  C   UNK N   1      23.845  19.195   3.735  0.00  0.00     0.034 C 
HETATM   11  C   UNK N   1      24.630  19.038   5.030  0.00  0.00     0.143 C 
BRANCH   7  12
HETATM   12  O   UNK N   1      27.902  20.128   3.535  0.00  0.00    -0.393 OA
HETATM   13  H   UNK N   1      28.676  20.661   3.777  0.00  0.00     0.210 HD
ENDBRANCH   7  12
BRANCH  11  14
HETATM   14  O   UNK N   1      24.233  17.857   5.659  0.00  0.00    -0.393 OA
HETATM   15  H   UNK N   1      24.827  17.214   6.077  0.00  0.00     0.210 HD
ENDBRANCH  11  14
ENDBRANCH   1   6
BRANCH   4  16
HETATM   16  C   UNK N   1      29.724  17.431   7.859  0.00  0.00     0.171 C 
BRANCH  16  17
HETATM   17  C   UNK N   1      30.578  18.325   8.740  0.00  0.00     0.136 C 
HETATM   18 Cl   UNK N   1      32.294  18.007   8.400  0.00  0.00    -0.129 Cl
ENDBRANCH  16  17
ENDBRANCH   4  16
BRANCH   4  19
HETATM   19  N   UNK N   1      27.710  18.631   8.590  0.00  0.00    -0.204 N 
ATOM     20  HN  UNK N   1      27.471  19.622   8.567  1.00  0.00     0.216 HD
BRANCH  19  21
HETATM   21  O   UNK N   1      27.331  17.956   9.499  0.00  0.00    -0.274 OA
ATOM     22  HO  UNK N   1      27.512  17.024   9.528  1.00  0.00     0.246 HD
ENDBRANCH  19  21
ENDBRANCH   4  19
TORSDOF 7
ENDMDL
MODEL 2
REMARK VINA RESULT:      -5.6     10.768     12.662
REMARK  7 active torsions:
REMARK  status: ('A' for Active; 'I' for Inactive)
REMARK    1  A    between atoms: C_3  and  O_19 
REMARK    2  A    between atoms: C_4  and  N_8 
REMARK    3  A    between atoms: C_5  and  O_7 
REMARK       I    between atoms: N_8  and  C_9 
REMARK       I    between atoms: C_9  and  N_11 
REMARK    4  A    between atoms: N_11  and  C_12 
REMARK    5  A    between atoms: N_11  and  N_15 
REMARK    6  A    between atoms: C_12  and  C_13 
REMARK    7  A    between atoms: N_15  and  O_17 
ROOT
HETATM    1  N   UNK N   1      36.665  14.343  12.652  0.00  0.00    -0.332 N 
HETATM    2  C   UNK N   1      35.696  13.791  13.436  0.00  0.00     0.339 C 
HETATM    3  O   UNK N   1      34.589  13.543  12.987  0.00  0.00    -0.245 OA
HETATM    4  N   UNK N   1      35.967  13.533  14.746  0.00  0.00    -0.222 N 
HETATM    5  H   UNK N   1      37.509  14.546  13.117  0.00  0.00     0.164 HD
ENDROOT
BRANCH   1   6
HETATM    6  C   UNK N   1      36.653  14.681  11.229  0.00  0.00     0.143 C 
HETATM    7  C   UNK N   1      35.273  14.999  10.600  0.00  0.00     0.143 C 
HETATM    8  C   UNK N   1      35.402  15.235   9.094  0.00  0.00     0.034 C 
HETATM    9  C   UNK N   1      36.082  14.065   8.398  0.00  0.00     0.005 C 
HETATM   10  C   UNK N   1      37.467  13.867   8.989  0.00  0.00     0.034 C 
HETATM   11  C   UNK N   1      37.347  13.542  10.470  0.00  0.00     0.143 C 
BRANCH   7  12
HETATM   12  O   UNK N   1      34.744  16.167  11.147  0.00  0.00    -0.393 OA
HETATM   13  H   UNK N   1      34.057  16.261  11.826  0.00  0.00     0.210 HD
ENDBRANCH   7  12
BRANCH  11  14
HETATM   14  O   UNK N   1      38.624  13.330  10.992  0.00  0.00    -0.393 OA
HETATM   15  H   UNK N   1      38.845  13.269  11.935  0.00  0.00     0.210 HD
ENDBRANCH  11  14
ENDBRANCH   1   6
BRANCH   4  16
HETATM   16  C   UNK N   1      34.925  13.006  15.606  0.00  0.00     0.171 C 
BRANCH  16  17
HETATM   17  C   UNK N   1      35.549  12.401  16.851  0.00  0.00     0.136 C 
HETATM   18 Cl   UNK N   1      35.171  13.432  18.249  0.00  0.00    -0.129 Cl
ENDBRANCH  16  17
ENDBRANCH   4  16
BRANCH   4  19
HETATM   19  N   UNK N   1      37.231  13.770  15.245  0.00  0.00    -0.204 N 
ATOM     20  HN  UNK N   1      37.873  12.989  15.378  1.00  0.00     0.216 HD
BRANCH  19  21
HETATM   21  O   UNK N   1      37.585  14.875  15.526  0.00  0.00    -0.274 OA
ATOM     22  HO  UNK N   1      38.019  15.057  16.351  1.00  0.00     0.246 HD
ENDBRANCH  19  21
ENDBRANCH   4  19
TORSDOF 7
ENDMDL
MODEL 3
REMARK VINA RESULT:      -5.6      5.664      7.666
REMARK  7 active torsions:
REMARK  status: ('A' for Active; 'I' for Inactive)
REMARK    1  A    between atoms: C_3  and  O_19 
REMARK    2  A    between atoms: C_4  and  N_8 
REMARK    3  A    between atoms: C_5  and  O_7 
REMARK       I    between atoms: N_8  and  C_9 
REMARK       I    between atoms: C_9  and  N_11 
REMARK    4  A    between atoms: N_11  and  C_12 
REMARK    5  A    between atoms: N_11  and  N_15 
REMARK    6  A    between atoms: C_12  and  C_13 
REMARK    7  A    between atoms: N_15  and  O_17 
ROOT
HETATM    1  N   UNK N   1      33.320  17.024   8.897  0.00  0.00    -0.332 N 
HETATM    2  C   UNK N   1      33.628  15.808   9.433  0.00  0.00     0.339 C 
HETATM    3  O   UNK N   1      33.151  14.781   8.978  0.00  0.00    -0.245 OA
HETATM    4  N   UNK N   1      34.464  15.747  10.506  0.00  0.00    -0.222 N 
HETATM    5  H   UNK N   1      33.720  17.794   9.361  0.00  0.00     0.164 HD
ENDROOT
BRANCH   1   6
HETATM    6  C   UNK N   1      32.493  17.366   7.740  0.00  0.00     0.143 C 
HETATM    7  C   UNK N   1      31.094  16.706   7.664  0.00  0.00     0.143 C 
HETATM    8  C   UNK N   1      30.387  17.076   6.358  0.00  0.00     0.034 C 
HETATM    9  C   UNK N   1      31.237  16.736   5.144  0.00  0.00     0.005 C 
HETATM   10  C   UNK N   1      32.553  17.490   5.225  0.00  0.00     0.034 C 
HETATM   11  C   UNK N   1      33.308  17.062   6.475  0.00  0.00     0.143 C 
BRANCH   7  12
HETATM   12  O   UNK N   1      30.282  17.159   8.704  0.00  0.00    -0.393 OA
HETATM   13  H   UNK N   1      30.273  18.031   9.128  0.00  0.00     0.210 HD
ENDBRANCH   7  12
BRANCH  11  14
HETATM   14  O   UNK N   1      34.528  17.738   6.520  0.00  0.00    -0.393 OA
HETATM   15  H   UNK N   1      34.903  18.173   7.302  0.00  0.00     0.210 HD
ENDBRANCH  11  14
ENDBRANCH   1   6
BRANCH   4  16
HETATM   16  C   UNK N   1      34.747  14.467  11.125  0.00  0.00     0.171 C 
BRANCH  16  17
HETATM   17  C   UNK N   1      36.189  14.437  11.599  0.00  0.00     0.136 C 
HETATM   18 Cl   UNK N   1      36.220  14.537  13.374  0.00  0.00    -0.129 Cl
ENDBRANCH  16  17
ENDBRANCH   4  16
BRANCH   4  19
HETATM   19  N   UNK N   1      35.039  16.901  10.996  0.00  0.00    -0.204 N 
ATOM     20  HN  UNK N   1      34.914  17.147  11.978  1.00  0.00     0.216 HD
BRANCH  19  21
HETATM   21  O   UNK N   1      35.680  17.619  10.288  0.00  0.00    -0.274 OA
ATOM     22  HO  UNK N   1      35.681  17.505   9.345  1.00  0.00     0.246 HD
ENDBRANCH  19  21
ENDBRANCH   4  19
TORSDOF 7
ENDMDL
MODEL 4
REMARK VINA RESULT:      -5.5      4.476      6.250
REMARK  7 active torsions:
REMARK  status: ('A' for Active; 'I' for Inactive)
REMARK    1  A    between atoms: C_3  and  O_19 
REMARK    2  A    between atoms: C_4  and  N_8 
REMARK    3  A    between atoms: C_5  and  O_7 
REMARK       I    between atoms: N_8  and  C_9 
REMARK       I    between atoms: C_9  and  N_11 
REMARK    4  A    between atoms: N_11  and  C_12 
REMARK    5  A    between atoms: N_11  and  N_15 
REMARK    6  A    between atoms: C_12  and  C_13 
REMARK    7  A    between atoms: N_15  and  O_17 
ROOT
HETATM    1  N   UNK N   1      31.985  17.367   8.550  0.00  0.00    -0.332 N 
HETATM    2  C   UNK N   1      32.938  16.436   8.838  0.00  0.00     0.339 C 
HETATM    3  O   UNK N   1      32.651  15.255   8.947  0.00  0.00    -0.245 OA
HETATM    4  N   UNK N   1      34.226  16.838   9.027  0.00  0.00    -0.222 N 
HETATM    5  H   UNK N   1      32.308  18.297   8.527  0.00  0.00     0.164 HD
ENDROOT
BRANCH   1   6
HETATM    6  C   UNK N   1      30.559  17.205   8.269  0.00  0.00     0.143 C 
HETATM    7  C   UNK N   1      30.171  16.869   6.807  0.00  0.00     0.143 C 
HETATM    8  C   UNK N   1      28.650  16.828   6.643  0.00  0.00     0.034 C 
HETATM    9  C   UNK N   1      27.999  18.120   7.115  0.00  0.00     0.005 C 
HETATM   10  C   UNK N   1      28.333  18.343   8.580  0.00  0.00     0.034 C 
HETATM   11  C   UNK N   1      29.840  18.476   8.744  0.00  0.00     0.143 C 
BRANCH   7  12
HETATM   12  O   UNK N   1      30.648  15.607   6.453  0.00  0.00    -0.393 OA
HETATM   13  H   UNK N   1      30.245  14.740   6.618  0.00  0.00     0.210 HD
ENDBRANCH   7  12
BRANCH  11  14
HETATM   14  O   UNK N   1      30.130  18.713  10.088  0.00  0.00    -0.393 OA
HETATM   15  H   UNK N   1      31.017  18.720  10.481  0.00  0.00     0.210 HD
ENDBRANCH  11  14
ENDBRANCH   1   6
BRANCH   4  16
HETATM   16  C   UNK N   1      35.236  15.867   9.397  0.00  0.00     0.171 C 
BRANCH  16  17
HETATM   17  C   UNK N   1      35.602  16.043  10.860  0.00  0.00     0.136 C 
HETATM   18 Cl   UNK N   1      34.906  14.703  11.799  0.00  0.00    -0.129 Cl
ENDBRANCH  16  17
ENDBRANCH   4  16
BRANCH   4  19
HETATM   19  N   UNK N   1      34.561  18.166   8.861  0.00  0.00    -0.204 N 
ATOM     20  HN  UNK N   1      34.588  18.782   9.674  1.00  0.00     0.216 HD
BRANCH  19  21
HETATM   21  O   UNK N   1      34.821  18.607   7.782  0.00  0.00    -0.274 OA
ATOM     22  HO  UNK N   1      35.694  18.528   7.417  1.00  0.00     0.246 HD
ENDBRANCH  19  21
ENDBRANCH   4  19
TORSDOF 7
ENDMDL
MODEL 5
REMARK VINA RESULT:      -5.4     11.226     12.759
REMARK  7 active torsions:
REMARK  status: ('A' for Active; 'I' for Inactive)
REMARK    1  A    between atoms: C_3  and  O_19 
REMARK    2  A    between atoms: C_4  and  N_8 
REMARK    3  A    between atoms: C_5  and  O_7 
REMARK       I    between atoms: N_8  and  C_9 
REMARK       I    between atoms: C_9  and  N_11 
REMARK    4  A    between atoms: N_11  and  C_12 
REMARK    5  A    between atoms: N_11  and  N_15 
REMARK    6  A    between atoms: C_12  and  C_13 
REMARK    7  A    between atoms: N_15  and  O_17 
ROOT
HETATM    1  N   UNK N   1      28.843  24.439  -3.937  0.00  0.00    -0.332 N 
HETATM    2  C   UNK N   1      27.651  24.929  -3.492  0.00  0.00     0.339 C 
HETATM    3  O   UNK N   1      26.844  24.205  -2.932  0.00  0.00    -0.245 OA
HETATM    4  N   UNK N   1      27.354  26.242  -3.695  0.00  0.00    -0.222 N 
HETATM    5  H   UNK N   1      29.407  25.091  -4.414  0.00  0.00     0.164 HD
ENDROOT
BRANCH   1   6
HETATM    6  C   UNK N   1      29.420  23.100  -3.819  0.00  0.00     0.143 C 
HETATM    7  C   UNK N   1      30.674  22.958  -2.919  0.00  0.00     0.143 C 
HETATM    8  C   UNK N   1      31.222  21.530  -2.970  0.00  0.00     0.034 C 
HETATM    9  C   UNK N   1      31.499  21.086  -4.398  0.00  0.00     0.005 C 
HETATM   10  C   UNK N   1      30.213  21.151  -5.204  0.00  0.00     0.034 C 
HETATM   11  C   UNK N   1      29.706  22.586  -5.236  0.00  0.00     0.143 C 
BRANCH   7  12
HETATM   12  O   UNK N   1      30.352  23.219  -1.588  0.00  0.00    -0.393 OA
HETATM   13  H   UNK N   1      30.261  22.591  -0.853  0.00  0.00     0.210 HD
ENDBRANCH   7  12
BRANCH  11  14
HETATM   14  O   UNK N   1      28.543  22.636  -6.005  0.00  0.00    -0.393 OA
HETATM   15  H   UNK N   1      28.225  23.410  -6.497  0.00  0.00     0.210 HD
ENDBRANCH  11  14
ENDBRANCH   1   6
BRANCH   4  16
HETATM   16  C   UNK N   1      26.063  26.759  -3.284  0.00  0.00     0.171 C 
BRANCH  16  17
HETATM   17  C   UNK N   1      25.628  27.860  -4.235  0.00  0.00     0.136 C 
HETATM   18 Cl   UNK N   1      24.677  27.146  -5.556  0.00  0.00    -0.129 Cl
ENDBRANCH  16  17
ENDBRANCH   4  16
BRANCH   4  19
HETATM   19  N   UNK N   1      28.283  27.073  -4.287  0.00  0.00    -0.204 N 
ATOM     20  HN  UNK N   1      28.114  27.422  -5.231  1.00  0.00     0.216 HD
BRANCH  19  21
HETATM   21  O   UNK N   1      29.281  27.389  -3.714  0.00  0.00    -0.274 OA
ATOM     22  HO  UNK N   1      29.909  26.737  -3.425  1.00  0.00     0.246 HD
ENDBRANCH  19  21
ENDBRANCH   4  19
TORSDOF 7
ENDMDL
MODEL 6
REMARK VINA RESULT:      -5.3      8.616     12.411
REMARK  7 active torsions:
REMARK  status: ('A' for Active; 'I' for Inactive)
REMARK    1  A    between atoms: C_3  and  O_19 
REMARK    2  A    between atoms: C_4  and  N_8 
REMARK    3  A    between atoms: C_5  and  O_7 
REMARK       I    between atoms: N_8  and  C_9 
REMARK       I    between atoms: C_9  and  N_11 
REMARK    4  A    between atoms: N_11  and  C_12 
REMARK    5  A    between atoms: N_11  and  N_15 
REMARK    6  A    between atoms: C_12  and  C_13 
REMARK    7  A    between atoms: N_15  and  O_17 
ROOT
HETATM    1  N   UNK N   1      34.565  13.636  12.139  0.00  0.00    -0.332 N 
HETATM    2  C   UNK N   1      34.983  14.148  10.946  0.00  0.00     0.339 C 
HETATM    3  O   UNK N   1      36.106  13.926  10.525  0.00  0.00    -0.245 OA
HETATM    4  N   UNK N   1      34.136  14.937  10.228  0.00  0.00    -0.222 N 
HETATM    5  H   UNK N   1      33.660  13.909  12.413  0.00  0.00     0.164 HD
ENDROOT
BRANCH   1   6
HETATM    6  C   UNK N   1      35.248  12.745  13.077  0.00  0.00     0.143 C 
HETATM    7  C   UNK N   1      34.377  11.672  13.778  0.00  0.00     0.143 C 
HETATM    8  C   UNK N   1      35.201  10.884  14.799  0.00  0.00     0.034 C 
HETATM    9  C   UNK N   1      35.879  11.803  15.803  0.00  0.00     0.005 C 
HETATM   10  C   UNK N   1      36.794  12.765  15.065  0.00  0.00     0.034 C 
HETATM   11  C   UNK N   1      35.972  13.619  14.111  0.00  0.00     0.143 C 
BRANCH   7  12
HETATM   12  O   UNK N   1      33.897  10.750  12.849  0.00  0.00    -0.393 OA
HETATM   13  H   UNK N   1      33.538  10.914  11.962  0.00  0.00     0.210 HD
ENDBRANCH   7  12
BRANCH  11  14
HETATM   14  O   UNK N   1      36.820  14.519  13.464  0.00  0.00    -0.393 OA
HETATM   15  H   UNK N   1      36.844  14.684  12.509  0.00  0.00     0.210 HD
ENDBRANCH  11  14
ENDBRANCH   1   6
BRANCH   4  16
HETATM   16  C   UNK N   1      34.590  15.540   8.990  0.00  0.00     0.171 C 
BRANCH  16  17
HETATM   17  C   UNK N   1      34.722  17.041   9.172  0.00  0.00     0.136 C 
HETATM   18 Cl   UNK N   1      33.358  17.847   8.366  0.00  0.00    -0.129 Cl
ENDBRANCH  16  17
ENDBRANCH   4  16
BRANCH   4  19
HETATM   19  N   UNK N   1      32.851  15.154  10.680  0.00  0.00    -0.204 N 
ATOM     20  HN  UNK N   1      32.704  15.493  11.631  1.00  0.00     0.216 HD
BRANCH  19  21
HETATM   21  O   UNK N   1      31.907  14.952   9.977  0.00  0.00    -0.274 OA
ATOM     22  HO  UNK N   1      31.056  15.323  10.178  1.00  0.00     0.246 HD
ENDBRANCH  19  21
ENDBRANCH   4  19
TORSDOF 7
ENDMDL
MODEL 7
REMARK VINA RESULT:      -5.2      8.604     10.682
REMARK  7 active torsions:
REMARK  status: ('A' for Active; 'I' for Inactive)
REMARK    1  A    between atoms: C_3  and  O_19 
REMARK    2  A    between atoms: C_4  and  N_8 
REMARK    3  A    between atoms: C_5  and  O_7 
REMARK       I    between atoms: N_8  and  C_9 
REMARK       I    between atoms: C_9  and  N_11 
REMARK    4  A    between atoms: N_11  and  C_12 
REMARK    5  A    between atoms: N_11  and  N_15 
REMARK    6  A    between atoms: C_12  and  C_13 
REMARK    7  A    between atoms: N_15  and  O_17 
ROOT
HETATM    1  N   UNK N   1      35.435  14.733  10.784  0.00  0.00    -0.332 N 
HETATM    2  C   UNK N   1      35.405  13.936  11.890  0.00  0.00     0.339 C 
HETATM    3  O   UNK N   1      34.364  13.742  12.498  0.00  0.00    -0.245 OA
HETATM    4  N   UNK N   1      36.561  13.367  12.332  0.00  0.00    -0.222 N 
HETATM    5  H   UNK N   1      36.329  14.862  10.391  0.00  0.00     0.164 HD
ENDROOT
BRANCH   1   6
HETATM    6  C   UNK N   1      34.352  15.425  10.087  0.00  0.00     0.143 C 
HETATM    7  C   UNK N   1      33.539  14.594   9.063  0.00  0.00     0.143 C 
HETATM    8  C   UNK N   1      32.512  15.471   8.343  0.00  0.00     0.034 C 
HETATM    9  C   UNK N   1      33.163  16.682   7.694  0.00  0.00     0.005 C 
HETATM   10  C   UNK N   1      33.859  17.510   8.761  0.00  0.00     0.034 C 
HETATM   11  C   UNK N   1      34.946  16.676   9.423  0.00  0.00     0.143 C 
BRANCH   7  12
HETATM   12  O   UNK N   1      32.826  13.585   9.710  0.00  0.00    -0.393 OA
HETATM   13  H   UNK N   1      32.722  13.432  10.662  0.00  0.00     0.210 HD
ENDBRANCH   7  12
BRANCH  11  14
HETATM   14  O   UNK N   1      35.598  17.458  10.378  0.00  0.00    -0.393 OA
HETATM   15  H   UNK N   1      36.556  17.601  10.431  0.00  0.00     0.210 HD
ENDBRANCH  11  14
ENDBRANCH   1   6
BRANCH   4  16
HETATM   16  C   UNK N   1      36.553  12.570  13.544  0.00  0.00     0.171 C 
BRANCH  16  17
HETATM   17  C   UNK N   1      36.827  13.461  14.742  0.00  0.00     0.136 C 
HETATM   18 Cl   UNK N   1      35.505  13.279  15.917  0.00  0.00    -0.129 Cl
ENDBRANCH  16  17
ENDBRANCH   4  16
BRANCH   4  19
HETATM   19  N   UNK N   1      37.730  13.547  11.623  0.00  0.00    -0.204 N 
ATOM     20  HN  UNK N   1      38.445  14.178  11.987  1.00  0.00     0.216 HD
BRANCH  19  21
HETATM   21  O   UNK N   1      37.919  12.979  10.590  0.00  0.00    -0.274 OA
ATOM     22  HO  UNK N   1      37.654  13.363   9.763  1.00  0.00     0.246 HD
ENDBRANCH  19  21
ENDBRANCH   4  19
TORSDOF 7
ENDMDL
MODEL 8
REMARK VINA RESULT:      -5.1      6.561      7.868
REMARK  7 active torsions:
REMARK  status: ('A' for Active; 'I' for Inactive)
REMARK    1  A    between atoms: C_3  and  O_19 
REMARK    2  A    between atoms: C_4  and  N_8 
REMARK    3  A    between atoms: C_5  and  O_7 
REMARK       I    between atoms: N_8  and  C_9 
REMARK       I    between atoms: C_9  and  N_11 
REMARK    4  A    between atoms: N_11  and  C_12 
REMARK    5  A    between atoms: N_11  and  N_15 
REMARK    6  A    between atoms: C_12  and  C_13 
REMARK    7  A    between atoms: N_15  and  O_17 
ROOT
HETATM    1  N   UNK N   1      33.520  15.058   8.055  0.00  0.00    -0.332 N 
HETATM    2  C   UNK N   1      34.737  14.812   8.620  0.00  0.00     0.339 C 
HETATM    3  O   UNK N   1      35.769  14.983   7.992  0.00  0.00    -0.245 OA
HETATM    4  N   UNK N   1      34.794  14.350   9.900  0.00  0.00    -0.222 N 
HETATM    5  H   UNK N   1      32.748  14.849   8.628  0.00  0.00     0.164 HD
ENDROOT
BRANCH   1   6
HETATM    6  C   UNK N   1      33.180  15.585   6.734  0.00  0.00     0.143 C 
HETATM    7  C   UNK N   1      33.296  17.118   6.544  0.00  0.00     0.143 C 
HETATM    8  C   UNK N   1      32.815  17.532   5.151  0.00  0.00     0.034 C 
HETATM    9  C   UNK N   1      31.405  17.035   4.872  0.00  0.00     0.005 C 
HETATM   10  C   UNK N   1      31.378  15.519   4.975  0.00  0.00     0.034 C 
HETATM   11  C   UNK N   1      31.767  15.098   6.385  0.00  0.00     0.143 C 
BRANCH   7  12
HETATM   12  O   UNK N   1      34.626  17.525   6.648  0.00  0.00    -0.393 OA
HETATM   13  H   UNK N   1      35.430  17.022   6.444  0.00  0.00     0.210 HD
ENDBRANCH   7  12
BRANCH  11  14
HETATM   14  O   UNK N   1      31.706  13.707   6.474  0.00  0.00    -0.393 OA
HETATM   15  H   UNK N   1      31.016  13.146   6.086  0.00  0.00     0.210 HD
ENDBRANCH  11  14
ENDBRANCH   1   6
BRANCH   4  16
HETATM   16  C   UNK N   1      36.078  14.024  10.491  0.00  0.00     0.171 C 
BRANCH  16  17
HETATM   17  C   UNK N   1      35.867  13.400  11.858  0.00  0.00     0.136 C 
HETATM   18 Cl   UNK N   1      36.148  14.631  13.110  0.00  0.00    -0.129 Cl
ENDBRANCH  16  17
ENDBRANCH   4  16
BRANCH   4  19
HETATM   19  N   UNK N   1      33.632  14.199  10.629  0.00  0.00    -0.204 N 
ATOM     20  HN  UNK N   1      33.295  13.261  10.846  1.00  0.00     0.216 HD
BRANCH  19  21
HETATM   21  O   UNK N   1      33.015  15.148  11.008  0.00  0.00    -0.274 OA
ATOM     22  HO  UNK N   1      32.897  15.911  10.455  1.00  0.00     0.246 HD
ENDBRANCH  19  21
ENDBRANCH   4  19
TORSDOF 7
ENDMDL
MODEL 9
REMARK VINA RESULT:      -5.0      7.104      9.361
REMARK  7 active torsions:
REMARK  status: ('A' for Active; 'I' for Inactive)
REMARK    1  A    between atoms: C_3  and  O_19 
REMARK    2  A    between atoms: C_4  and  N_8 
REMARK    3  A    between atoms: C_5  and  O_7 
REMARK       I    between atoms: N_8  and  C_9 
REMARK       I    between atoms: C_9  and  N_11 
REMARK    4  A    between atoms: N_11  and  C_12 
REMARK    5  A    between atoms: N_11  and  N_15 
REMARK    6  A    between atoms: C_12  and  C_13 
REMARK    7  A    between atoms: N_15  and  O_17 
ROOT
HETATM    1  N   UNK N   1      21.269  15.111   7.511  0.00  0.00    -0.332 N 
HETATM    2  C   UNK N   1      20.491  15.402   6.430  0.00  0.00     0.339 C 
HETATM    3  O   UNK N   1      19.670  14.601   6.012  0.00  0.00    -0.245 OA
HETATM    4  N   UNK N   1      20.651  16.597   5.797  0.00  0.00    -0.222 N 
HETATM    5  H   UNK N   1      21.930  15.802   7.743  0.00  0.00     0.164 HD
ENDROOT
BRANCH   1   6
HETATM    6  C   UNK N   1      21.277  13.937   8.383  0.00  0.00     0.143 C 
HETATM    7  C   UNK N   1      20.650  14.108   9.789  0.00  0.00     0.143 C 
HETATM    8  C   UNK N   1      20.819  12.833  10.620  0.00  0.00     0.034 C 
HETATM    9  C   UNK N   1      22.276  12.405  10.701  0.00  0.00     0.005 C 
HETATM   10  C   UNK N   1      22.805  12.156   9.299  0.00  0.00     0.034 C 
HETATM   11  C   UNK N   1      22.726  13.442   8.490  0.00  0.00     0.143 C 
BRANCH   7  12
HETATM   12  O   UNK N   1      19.279  14.344   9.688  0.00  0.00    -0.393 OA
HETATM   13  H   UNK N   1      18.646  13.968   9.056  0.00  0.00     0.210 HD
ENDBRANCH   7  12
BRANCH  11  14
HETATM   14  O   UNK N   1      23.245  13.207   7.215  0.00  0.00    -0.393 OA
HETATM   15  H   UNK N   1      22.764  13.323   6.381  0.00  0.00     0.210 HD
ENDBRANCH  11  14
ENDBRANCH   1   6
BRANCH   4  16
HETATM   16  C   UNK N   1      19.875  16.892   4.608  0.00  0.00     0.171 C 
BRANCH  16  17
HETATM   17  C   UNK N   1      20.790  16.921   3.396  0.00  0.00     0.136 C 
HETATM   18 Cl   UNK N   1      21.063  18.610   2.914  0.00  0.00    -0.129 Cl
ENDBRANCH  16  17
ENDBRANCH   4  16
BRANCH   4  19
HETATM   19  N   UNK N   1      21.546  17.522   6.293  0.00  0.00    -0.204 N 
ATOM     20  HN  UNK N   1      22.533  17.451   6.042  1.00  0.00     0.216 HD
BRANCH  19  21
HETATM   21  O   UNK N   1      21.187  18.404   7.013  0.00  0.00    -0.274 OA
ATOM     22  HO  UNK N   1      20.300  18.743   6.969  1.00  0.00     0.246 HD
ENDBRANCH  19  21
ENDBRANCH   4  19
TORSDOF 7
ENDMDL
