MODEL 1
REMARK VINA RESULT:      -4.6      0.000      0.000
REMARK  9 active torsions:
REMARK  status: ('A' for Active; 'I' for Inactive)
REMARK    1  A    between atoms: C_1  and  C_2 
REMARK    2  A    between atoms: C_2  and  C_3 
REMARK    3  A    between atoms: C_2  and  O_11 
REMARK    4  A    between atoms: C_3  and  C_4 
REMARK    5  A    between atoms: C_3  and  O_10 
REMARK    6  A    between atoms: C_4  and  C_5 
REMARK    7  A    between atoms: C_4  and  O_9 
REMARK    8  A    between atoms: C_5  and  C_6 
REMARK    9  A    between atoms: C_5  and  O_8 
ROOT
HETATM    1  C   UNK N   1      34.728  15.423  10.553  0.00  0.00     0.178 C 
ENDROOT
BRANCH   1   2
HETATM    2  C   UNK N   1      34.424  16.623   9.632  0.00  0.00     0.159 C 
BRANCH   2   3
HETATM    3  C   UNK N   1      34.572  16.250   8.160  0.00  0.00     0.119 C 
HETATM    4 Br   UNK N   1      33.800  17.569   6.964  0.00  0.00    -0.094 Br
ENDBRANCH   2   3
BRANCH   2   5
HETATM    5  O   UNK N   1      35.303  17.674   9.887  0.00  0.00    -0.392 OA
HETATM    6  H   UNK N   1      36.233  17.619   9.617  0.00  0.00     0.210 HD
ENDBRANCH   2   5
ENDBRANCH   1   2
BRANCH   1   7
HETATM    7  C   UNK N   1      35.837  15.723  11.586  0.00  0.00     0.178 C 
BRANCH   7   8
HETATM    8  C   UNK N   1      35.993  14.609  12.642  0.00  0.00     0.159 C 
BRANCH   8   9
HETATM    9  C   UNK N   1      36.697  13.383  12.066  0.00  0.00     0.119 C 
HETATM   10 Br   UNK N   1      35.501  11.877  11.805  0.00  0.00    -0.094 Br
ENDBRANCH   8   9
BRANCH   8  11
HETATM   11  O   UNK N   1      36.753  15.058  13.722  0.00  0.00    -0.392 OA
HETATM   12  H   UNK N   1      37.400  14.474  14.148  0.00  0.00     0.210 HD
ENDBRANCH   8  11
ENDBRANCH   7   8
BRANCH   7  13
HETATM   13  O   UNK N   1      37.055  15.895  10.927  0.00  0.00    -0.390 OA
HETATM   14  H   UNK N   1      37.222  16.682  10.386  0.00  0.00     0.210 HD
ENDBRANCH   7  13
ENDBRANCH   1   7
BRANCH   1  15
HETATM   15  O   UNK N   1      33.559  15.056  11.218  0.00  0.00    -0.390 OA
HETATM   16  H   UNK N   1      32.896  14.493  10.787  0.00  0.00     0.210 HD
ENDBRANCH   1  15
TORSDOF 9
ENDMDL
MODEL 2
REMARK VINA RESULT:      -4.5      1.707      5.316
REMARK  9 active torsions:
REMARK  status: ('A' for Active; 'I' for Inactive)
REMARK    1  A    between atoms: C_1  and  C_2 
REMARK    2  A    between atoms: C_2  and  C_3 
REMARK    3  A    between atoms: C_2  and  O_11 
REMARK    4  A    between atoms: C_3  and  C_4 
REMARK    5  A    between atoms: C_3  and  O_10 
REMARK    6  A    between atoms: C_4  and  C_5 
REMARK    7  A    between atoms: C_4  and  O_9 
REMARK    8  A    between atoms: C_5  and  C_6 
REMARK    9  A    between atoms: C_5  and  O_8 
ROOT
HETATM    1  C   UNK N   1      35.593  14.403  11.528  0.00  0.00     0.178 C 
ENDROOT
BRANCH   1   2
HETATM    2  C   UNK N   1      35.338  13.779  12.917  0.00  0.00     0.159 C 
BRANCH   2   3
HETATM    3  C   UNK N   1      36.606  13.157  13.493  0.00  0.00     0.119 C 
HETATM    4 Br   UNK N   1      36.804  13.467  15.397  0.00  0.00    -0.094 Br
ENDBRANCH   2   3
BRANCH   2   5
HETATM    5  O   UNK N   1      34.378  12.772  12.834  0.00  0.00    -0.392 OA
HETATM    6  H   UNK N   1      33.488  12.962  12.500  0.00  0.00     0.210 HD
ENDBRANCH   2   5
ENDBRANCH   1   2
BRANCH   1   7
HETATM    7  C   UNK N   1      34.589  15.524  11.178  0.00  0.00     0.178 C 
BRANCH   7   8
HETATM    8  C   UNK N   1      34.977  16.302   9.903  0.00  0.00     0.159 C 
BRANCH   8   9
HETATM    9  C   UNK N   1      33.750  16.653   9.064  0.00  0.00     0.119 C 
HETATM   10 Br   UNK N   1      34.048  18.163   7.883  0.00  0.00    -0.094 Br
ENDBRANCH   8   9
BRANCH   8  11
HETATM   11  O   UNK N   1      35.614  17.498  10.232  0.00  0.00    -0.392 OA
HETATM   12  H   UNK N   1      35.729  18.196   9.568  0.00  0.00     0.210 HD
ENDBRANCH   8  11
ENDBRANCH   7   8
BRANCH   7  13
HETATM   13  O   UNK N   1      33.318  14.974  11.002  0.00  0.00    -0.390 OA
HETATM   14  H   UNK N   1      32.999  14.727  10.120  0.00  0.00     0.210 HD
ENDBRANCH   7  13
ENDBRANCH   1   7
BRANCH   1  15
HETATM   15  O   UNK N   1      36.891  14.912  11.493  0.00  0.00    -0.390 OA
HETATM   16  H   UNK N   1      37.593  14.524  12.038  0.00  0.00     0.210 HD
ENDBRANCH   1  15
TORSDOF 9
ENDMDL
MODEL 3
REMARK VINA RESULT:      -4.4      1.327      2.435
REMARK  9 active torsions:
REMARK  status: ('A' for Active; 'I' for Inactive)
REMARK    1  A    between atoms: C_1  and  C_2 
REMARK    2  A    between atoms: C_2  and  C_3 
REMARK    3  A    between atoms: C_2  and  O_11 
REMARK    4  A    between atoms: C_3  and  C_4 
REMARK    5  A    between atoms: C_3  and  O_10 
REMARK    6  A    between atoms: C_4  and  C_5 
REMARK    7  A    between atoms: C_4  and  O_9 
REMARK    8  A    between atoms: C_5  and  C_6 
REMARK    9  A    between atoms: C_5  and  O_8 
ROOT
HETATM    1  C   UNK N   1      34.167  16.869   9.848  0.00  0.00     0.178 C 
ENDROOT
BRANCH   1   2
HETATM    2  C   UNK N   1      33.215  16.595   8.665  0.00  0.00     0.159 C 
BRANCH   2   3
HETATM    3  C   UNK N   1      33.112  17.803   7.738  0.00  0.00     0.119 C 
HETATM    4 Br   UNK N   1      33.543  17.380   5.894  0.00  0.00    -0.094 Br
ENDBRANCH   2   3
BRANCH   2   5
HETATM    5  O   UNK N   1      31.930  16.311   9.124  0.00  0.00    -0.392 OA
HETATM    6  H   UNK N   1      31.635  15.394   9.233  0.00  0.00     0.210 HD
ENDBRANCH   2   5
ENDBRANCH   1   2
BRANCH   1   7
HETATM    7  C   UNK N   1      34.663  15.576  10.533  0.00  0.00     0.178 C 
BRANCH   7   8
HETATM    8  C   UNK N   1      35.806  15.828  11.538  0.00  0.00     0.159 C 
BRANCH   8   9
HETATM    9  C   UNK N   1      35.965  14.662  12.512  0.00  0.00     0.119 C 
HETATM   10 Br   UNK N   1      36.957  13.175  11.756  0.00  0.00    -0.094 Br
ENDBRANCH   8   9
BRANCH   8  11
HETATM   11  O   UNK N   1      37.021  15.986  10.873  0.00  0.00    -0.392 OA
HETATM   12  H   UNK N   1      37.822  16.239  11.359  0.00  0.00     0.210 HD
ENDBRANCH   8  11
ENDBRANCH   7   8
BRANCH   7  13
HETATM   13  O   UNK N   1      33.601  14.964  11.200  0.00  0.00    -0.390 OA
HETATM   14  H   UNK N   1      33.623  14.836  12.161  0.00  0.00     0.210 HD
ENDBRANCH   7  13
ENDBRANCH   1   7
BRANCH   1  15
HETATM   15  O   UNK N   1      35.261  17.602   9.388  0.00  0.00    -0.390 OA
HETATM   16  H   UNK N   1      35.716  17.355   8.568  0.00  0.00     0.210 HD
ENDBRANCH   1  15
TORSDOF 9
ENDMDL
MODEL 4
REMARK VINA RESULT:      -4.4      1.510      2.134
REMARK  9 active torsions:
REMARK  status: ('A' for Active; 'I' for Inactive)
REMARK    1  A    between atoms: C_1  and  C_2 
REMARK    2  A    between atoms: C_2  and  C_3 
REMARK    3  A    between atoms: C_2  and  O_11 
REMARK    4  A    between atoms: C_3  and  C_4 
REMARK    5  A    between atoms: C_3  and  O_10 
REMARK    6  A    between atoms: C_4  and  C_5 
REMARK    7  A    between atoms: C_4  and  O_9 
REMARK    8  A    between atoms: C_5  and  C_6 
REMARK    9  A    between atoms: C_5  and  O_8 
ROOT
HETATM    1  C   UNK N   1      35.206  14.616  11.536  0.00  0.00     0.178 C 
ENDROOT
BRANCH   1   2
HETATM    2  C   UNK N   1      35.647  16.045  11.155  0.00  0.00     0.159 C 
BRANCH   2   3
HETATM    3  C   UNK N   1      34.881  16.563   9.942  0.00  0.00     0.119 C 
HETATM    4 Br   UNK N   1      35.001  15.381   8.409  0.00  0.00    -0.094 Br
ENDBRANCH   2   3
BRANCH   2   5
HETATM    5  O   UNK N   1      37.003  16.072  10.835  0.00  0.00    -0.392 OA
HETATM    6  H   UNK N   1      37.518  16.889  10.928  0.00  0.00     0.210 HD
ENDBRANCH   2   5
ENDBRANCH   1   2
BRANCH   1   7
HETATM    7  C   UNK N   1      35.802  14.139  12.879  0.00  0.00     0.178 C 
BRANCH   7   8
HETATM    8  C   UNK N   1      36.763  12.942  12.720  0.00  0.00     0.159 C 
BRANCH   8   9
HETATM    9  C   UNK N   1      36.032  11.696  12.227  0.00  0.00     0.119 C 
HETATM   10 Br   UNK N   1      34.549  11.187  13.370  0.00  0.00    -0.094 Br
ENDBRANCH   8   9
BRANCH   8  11
HETATM   11  O   UNK N   1      37.763  13.234  11.793  0.00  0.00    -0.392 OA
HETATM   12  H   UNK N   1      38.241  12.521  11.341  0.00  0.00     0.210 HD
ENDBRANCH   8  11
ENDBRANCH   7   8
BRANCH   7  13
HETATM   13  O   UNK N   1      36.488  15.192  13.485  0.00  0.00    -0.390 OA
HETATM   14  H   UNK N   1      37.391  15.420  13.215  0.00  0.00     0.210 HD
ENDBRANCH   7  13
ENDBRANCH   1   7
BRANCH   1  15
HETATM   15  O   UNK N   1      33.813  14.576  11.603  0.00  0.00    -0.390 OA
HETATM   16  H   UNK N   1      33.286  15.382  11.495  0.00  0.00     0.210 HD
ENDBRANCH   1  15
TORSDOF 9
ENDMDL
MODEL 5
REMARK VINA RESULT:      -4.4      1.514      4.728
REMARK  9 active torsions:
REMARK  status: ('A' for Active; 'I' for Inactive)
REMARK    1  A    between atoms: C_1  and  C_2 
REMARK    2  A    between atoms: C_2  and  C_3 
REMARK    3  A    between atoms: C_2  and  O_11 
REMARK    4  A    between atoms: C_3  and  C_4 
REMARK    5  A    between atoms: C_3  and  O_10 
REMARK    6  A    between atoms: C_4  and  C_5 
REMARK    7  A    between atoms: C_4  and  O_9 
REMARK    8  A    between atoms: C_5  and  C_6 
REMARK    9  A    between atoms: C_5  and  O_8 
ROOT
HETATM    1  C   UNK N   1      34.620  15.742  10.679  0.00  0.00     0.178 C 
ENDROOT
BRANCH   1   2
HETATM    2  C   UNK N   1      35.976  15.136  11.098  0.00  0.00     0.159 C 
BRANCH   2   3
HETATM    3  C   UNK N   1      35.995  14.778  12.581  0.00  0.00     0.119 C 
HETATM    4 Br   UNK N   1      36.582  12.959  12.913  0.00  0.00    -0.094 Br
ENDBRANCH   2   3
BRANCH   2   5
HETATM    5  O   UNK N   1      37.010  16.043  10.874  0.00  0.00    -0.392 OA
HETATM    6  H   UNK N   1      37.851  15.963  11.351  0.00  0.00     0.210 HD
ENDBRANCH   2   5
ENDBRANCH   1   2
BRANCH   1   7
HETATM    7  C   UNK N   1      34.432  15.794   9.146  0.00  0.00     0.178 C 
BRANCH   7   8
HETATM    8  C   UNK N   1      34.529  17.225   8.577  0.00  0.00     0.159 C 
BRANCH   8   9
HETATM    9  C   UNK N   1      33.148  17.847   8.384  0.00  0.00     0.119 C 
HETATM   10 Br   UNK N   1      31.729  16.528   8.286  0.00  0.00    -0.094 Br
ENDBRANCH   8   9
BRANCH   8  11
HETATM   11  O   UNK N   1      35.243  18.052   9.442  0.00  0.00    -0.392 OA
HETATM   12  H   UNK N   1      35.238  19.015   9.324  0.00  0.00     0.210 HD
ENDBRANCH   8  11
ENDBRANCH   7   8
BRANCH   7  13
HETATM   13  O   UNK N   1      35.396  14.996   8.530  0.00  0.00    -0.390 OA
HETATM   14  H   UNK N   1      36.231  14.786   8.979  0.00  0.00     0.210 HD
ENDBRANCH   7  13
ENDBRANCH   1   7
BRANCH   1  15
HETATM   15  O   UNK N   1      33.593  14.990  11.249  0.00  0.00    -0.390 OA
HETATM   16  H   UNK N   1      33.368  15.085  12.188  0.00  0.00     0.210 HD
ENDBRANCH   1  15
TORSDOF 9
ENDMDL
MODEL 6
REMARK VINA RESULT:      -4.4      1.932      5.202
REMARK  9 active torsions:
REMARK  status: ('A' for Active; 'I' for Inactive)
REMARK    1  A    between atoms: C_1  and  C_2 
REMARK    2  A    between atoms: C_2  and  C_3 
REMARK    3  A    between atoms: C_2  and  O_11 
REMARK    4  A    between atoms: C_3  and  C_4 
REMARK    5  A    between atoms: C_3  and  O_10 
REMARK    6  A    between atoms: C_4  and  C_5 
REMARK    7  A    between atoms: C_4  and  O_9 
REMARK    8  A    between atoms: C_5  and  C_6 
REMARK    9  A    between atoms: C_5  and  O_8 
ROOT
HETATM    1  C   UNK N   1      36.104  13.262  12.079  0.00  0.00     0.178 C 
ENDROOT
BRANCH   1   2
HETATM    2  C   UNK N   1      35.747  12.624  13.438  0.00  0.00     0.159 C 
BRANCH   2   3
HETATM    3  C   UNK N   1      35.147  11.231  13.262  0.00  0.00     0.119 C 
HETATM    4 Br   UNK N   1      33.761  10.835  14.559  0.00  0.00    -0.094 Br
ENDBRANCH   2   3
BRANCH   2   5
HETATM    5  O   UNK N   1      34.807  13.400  14.114  0.00  0.00    -0.392 OA
HETATM    6  H   UNK N   1      34.998  14.325  14.338  0.00  0.00     0.210 HD
ENDBRANCH   2   5
ENDBRANCH   1   2
BRANCH   1   7
HETATM    7  C   UNK N   1      35.367  14.597  11.829  0.00  0.00     0.178 C 
BRANCH   7   8
HETATM    8  C   UNK N   1      35.886  15.347  10.584  0.00  0.00     0.159 C 
BRANCH   8   9
HETATM    9  C   UNK N   1      34.838  16.310  10.032  0.00  0.00     0.119 C 
HETATM   10 Br   UNK N   1      34.271  15.862   8.231  0.00  0.00    -0.094 Br
ENDBRANCH   8   9
BRANCH   8  11
HETATM   11  O   UNK N   1      37.019  16.096  10.897  0.00  0.00    -0.392 OA
HETATM   12  H   UNK N   1      37.795  15.674  11.300  0.00  0.00     0.210 HD
ENDBRANCH   8  11
ENDBRANCH   7   8
BRANCH   7  13
HETATM   13  O   UNK N   1      34.002  14.355  11.674  0.00  0.00    -0.390 OA
HETATM   14  H   UNK N   1      33.346  15.035  11.893  0.00  0.00     0.210 HD
ENDBRANCH   7  13
ENDBRANCH   1   7
BRANCH   1  15
HETATM   15  O   UNK N   1      37.481  13.473  12.027  0.00  0.00    -0.390 OA
HETATM   16  H   UNK N   1      38.002  13.181  11.262  0.00  0.00     0.210 HD
ENDBRANCH   1  15
TORSDOF 9
ENDMDL
MODEL 7
REMARK VINA RESULT:      -4.3      1.525      1.548
REMARK  9 active torsions:
REMARK  status: ('A' for Active; 'I' for Inactive)
REMARK    1  A    between atoms: C_1  and  C_2 
REMARK    2  A    between atoms: C_2  and  C_3 
REMARK    3  A    between atoms: C_2  and  O_11 
REMARK    4  A    between atoms: C_3  and  C_4 
REMARK    5  A    between atoms: C_3  and  O_10 
REMARK    6  A    between atoms: C_4  and  C_5 
REMARK    7  A    between atoms: C_4  and  O_9 
REMARK    8  A    between atoms: C_5  and  C_6 
REMARK    9  A    between atoms: C_5  and  O_8 
ROOT
HETATM    1  C   UNK N   1      34.659  15.187  10.553  0.00  0.00     0.178 C 
ENDROOT
BRANCH   1   2
HETATM    2  C   UNK N   1      34.706  16.683  10.176  0.00  0.00     0.159 C 
BRANCH   2   3
HETATM    3  C   UNK N   1      34.581  16.886   8.669  0.00  0.00     0.119 C 
HETATM    4 Br   UNK N   1      32.963  17.829   8.164  0.00  0.00    -0.094 Br
ENDBRANCH   2   3
BRANCH   2   5
HETATM    5  O   UNK N   1      35.915  17.253  10.575  0.00  0.00    -0.392 OA
HETATM    6  H   UNK N   1      36.757  16.927  10.221  0.00  0.00     0.210 HD
ENDBRANCH   2   5
ENDBRANCH   1   2
BRANCH   1   7
HETATM    7  C   UNK N   1      35.756  14.786  11.563  0.00  0.00     0.178 C 
BRANCH   7   8
HETATM    8  C   UNK N   1      35.536  13.382  12.165  0.00  0.00     0.159 C 
BRANCH   8   9
HETATM    9  C   UNK N   1      36.797  12.859  12.847  0.00  0.00     0.119 C 
HETATM   10 Br   UNK N   1      36.696  12.930  14.784  0.00  0.00    -0.094 Br
ENDBRANCH   8   9
BRANCH   8  11
HETATM   11  O   UNK N   1      34.523  13.411  13.123  0.00  0.00    -0.392 OA
HETATM   12  H   UNK N   1      34.038  12.602  13.354  0.00  0.00     0.210 HD
ENDBRANCH   8  11
ENDBRANCH   7   8
BRANCH   7  13
HETATM   13  O   UNK N   1      37.002  14.818  10.936  0.00  0.00    -0.390 OA
HETATM   14  H   UNK N   1      37.298  14.084  10.376  0.00  0.00     0.210 HD
ENDBRANCH   7  13
ENDBRANCH   1   7
BRANCH   1  15
HETATM   15  O   UNK N   1      33.404  14.895  11.087  0.00  0.00    -0.390 OA
HETATM   16  H   UNK N   1      32.861  14.179  10.721  0.00  0.00     0.210 HD
ENDBRANCH   1  15
TORSDOF 9
ENDMDL
MODEL 8
REMARK VINA RESULT:      -4.3      1.548      4.904
REMARK  9 active torsions:
REMARK  status: ('A' for Active; 'I' for Inactive)
REMARK    1  A    between atoms: C_1  and  C_2 
REMARK    2  A    between atoms: C_2  and  C_3 
REMARK    3  A    between atoms: C_2  and  O_11 
REMARK    4  A    between atoms: C_3  and  C_4 
REMARK    5  A    between atoms: C_3  and  O_10 
REMARK    6  A    between atoms: C_4  and  C_5 
REMARK    7  A    between atoms: C_4  and  O_9 
REMARK    8  A    between atoms: C_5  and  C_6 
REMARK    9  A    between atoms: C_5  and  O_8 
ROOT
HETATM    1  C   UNK N   1      35.379  14.645  11.770  0.00  0.00     0.178 C 
ENDROOT
BRANCH   1   2
HETATM    2  C   UNK N   1      36.052  13.326  12.206  0.00  0.00     0.159 C 
BRANCH   2   3
HETATM    3  C   UNK N   1      35.151  12.518  13.135  0.00  0.00     0.119 C 
HETATM    4 Br   UNK N   1      35.375  12.988  15.004  0.00  0.00    -0.094 Br
ENDBRANCH   2   3
BRANCH   2   5
HETATM    5  O   UNK N   1      37.237  13.583  12.893  0.00  0.00    -0.392 OA
HETATM    6  H   UNK N   1      38.058  13.125  12.654  0.00  0.00     0.210 HD
ENDBRANCH   2   5
ENDBRANCH   1   2
BRANCH   1   7
HETATM    7  C   UNK N   1      35.935  15.192  10.436  0.00  0.00     0.178 C 
BRANCH   7   8
HETATM    8  C   UNK N   1      35.399  16.598  10.092  0.00  0.00     0.159 C 
BRANCH   8   9
HETATM    9  C   UNK N   1      34.308  16.537   9.026  0.00  0.00     0.119 C 
HETATM   10 Br   UNK N   1      34.155  18.180   8.005  0.00  0.00    -0.094 Br
ENDBRANCH   8   9
BRANCH   8  11
HETATM   11  O   UNK N   1      34.848  17.204  11.220  0.00  0.00    -0.392 OA
HETATM   12  H   UNK N   1      35.320  17.194  12.068  0.00  0.00     0.210 HD
ENDBRANCH   8  11
ENDBRANCH   7   8
BRANCH   7  13
HETATM   13  O   UNK N   1      37.328  15.243  10.497  0.00  0.00    -0.390 OA
HETATM   14  H   UNK N   1      37.819  14.707  11.140  0.00  0.00     0.210 HD
ENDBRANCH   7  13
ENDBRANCH   1   7
BRANCH   1  15
HETATM   15  O   UNK N   1      34.005  14.433  11.650  0.00  0.00    -0.390 OA
HETATM   16  H   UNK N   1      33.484  14.911  10.986  0.00  0.00     0.210 HD
ENDBRANCH   1  15
TORSDOF 9
ENDMDL
MODEL 9
REMARK VINA RESULT:      -4.3     13.438     14.775
REMARK  9 active torsions:
REMARK  status: ('A' for Active; 'I' for Inactive)
REMARK    1  A    between atoms: C_1  and  C_2 
REMARK    2  A    between atoms: C_2  and  C_3 
REMARK    3  A    between atoms: C_2  and  O_11 
REMARK    4  A    between atoms: C_3  and  C_4 
REMARK    5  A    between atoms: C_3  and  O_10 
REMARK    6  A    between atoms: C_4  and  C_5 
REMARK    7  A    between atoms: C_4  and  O_9 
REMARK    8  A    between atoms: C_5  and  C_6 
REMARK    9  A    between atoms: C_5  and  O_8 
ROOT
HETATM    1  C   UNK N   1      44.466  23.234   1.943  0.00  0.00     0.178 C 
ENDROOT
BRANCH   1   2
HETATM    2  C   UNK N   1      45.218  24.582   1.971  0.00  0.00     0.159 C 
BRANCH   2   3
HETATM    3  C   UNK N   1      45.755  24.952   0.591  0.00  0.00     0.119 C 
HETATM    4 Br   UNK N   1      45.190  26.714   0.008  0.00  0.00    -0.094 Br
ENDBRANCH   2   3
BRANCH   2   5
HETATM    5  O   UNK N   1      46.306  24.520   2.839  0.00  0.00    -0.392 OA
HETATM    6  H   UNK N   1      46.968  25.228   2.856  0.00  0.00     0.210 HD
ENDBRANCH   2   5
ENDBRANCH   1   2
BRANCH   1   7
HETATM    7  C   UNK N   1      43.765  22.908   3.280  0.00  0.00     0.178 C 
BRANCH   7   8
HETATM    8  C   UNK N   1      44.490  21.812   4.088  0.00  0.00     0.159 C 
BRANCH   8   9
HETATM    9  C   UNK N   1      44.502  20.479   3.343  0.00  0.00     0.119 C 
HETATM   10 Br   UNK N   1      42.721  19.819   2.943  0.00  0.00    -0.094 Br
ENDBRANCH   8   9
BRANCH   8  11
HETATM   11  O   UNK N   1      45.816  22.171   4.325  0.00  0.00    -0.392 OA
HETATM   12  H   UNK N   1      46.142  23.051   4.079  0.00  0.00     0.210 HD
ENDBRANCH   8  11
ENDBRANCH   7   8
BRANCH   7  13
HETATM   13  O   UNK N   1      43.683  24.063   4.058  0.00  0.00    -0.390 OA
HETATM   14  H   UNK N   1      42.829  24.379   4.394  0.00  0.00     0.210 HD
ENDBRANCH   7  13
ENDBRANCH   1   7
BRANCH   1  15
HETATM   15  O   UNK N   1      43.522  23.264   0.916  0.00  0.00    -0.390 OA
HETATM   16  H   UNK N   1      43.682  22.801   0.079  0.00  0.00     0.210 HD
ENDBRANCH   1  15
TORSDOF 9
ENDMDL
