MODEL 1
REMARK VINA RESULT:      -6.3      0.000      0.000
REMARK  5 active torsions:
REMARK  status: ('A' for Active; 'I' for Inactive)
REMARK    1  A    between atoms: C_2  and  C_3 
REMARK    2  A    between atoms: C_3  and  N_4 
REMARK    3  A    between atoms: N_9  and  C_12 
REMARK    4  A    between atoms: C_12  and  C_13 
REMARK    5  A    between atoms: C_17  and  C_19 
ROOT
HETATM    1  N   UNK N   1      29.655  22.301  -5.709  0.00  0.00    -0.283 N 
HETATM    2  C   UNK N   1      28.868  23.128  -4.960  0.00  0.00     0.145 A 
HETATM    3  C   UNK N   1      29.085  23.342  -3.646  0.00  0.00     0.147 A 
HETATM    4  C   UNK N   1      30.142  22.745  -2.992  0.00  0.00     0.282 A 
HETATM    5  O   UNK N   1      30.330  22.964  -1.804  0.00  0.00    -0.265 OA
HETATM    6  N   UNK N   1      30.986  21.913  -3.709  0.00  0.00    -0.264 N 
HETATM    7  C   UNK N   1      30.734  21.687  -5.075  0.00  0.00     0.333 A 
HETATM    8  O   UNK N   1      31.458  20.949  -5.723  0.00  0.00    -0.246 OA
HETATM    9  N   UNK N   1      28.170  24.199  -3.163  0.00  0.00    -0.338 N 
ATOM     10  HN  UNK N   1      28.073  24.542  -2.207  1.00  0.00     0.167 HD
HETATM   11  C   UNK N   1      27.406  24.498  -4.245  0.00  0.00     0.087 A 
HETATM   12  N   UNK N   1      27.813  23.855  -5.368  0.00  0.00    -0.329 N 
HETATM   13  H   UNK N   1      27.426  23.909  -6.271  0.00  0.00     0.168 HD
ENDROOT
BRANCH  11  14
HETATM   14  C   UNK N   1      26.298  25.509  -4.236  0.00  0.00     0.053 C 
HETATM   15  C   UNK N   1      26.754  26.914  -3.946  0.00  0.00     0.012 C 
HETATM   16  C   UNK N   1      25.566  27.753  -4.369  0.00  0.00     0.001 C 
HETATM   17  C   UNK N   1      24.894  26.984  -5.500  0.00  0.00     0.001 C 
HETATM   18  C   UNK N   1      25.562  25.620  -5.553  0.00  0.00     0.012 C 
ENDBRANCH  11  14
BRANCH   1  19
HETATM   19  C   UNK N   1      29.446  22.023  -7.145  0.00  0.00     0.135 C 
BRANCH  19  20
HETATM   20  C   UNK N   1      28.353  21.021  -7.488  0.00  0.00     0.016 C 
HETATM   21  C   UNK N   1      28.986  19.697  -7.860  0.00  0.00     0.006 C 
ENDBRANCH  19  20
ENDBRANCH   1  19
BRANCH   6  22
HETATM   22  C   UNK N   1      32.122  21.319  -2.964  0.00  0.00     0.137 C 
BRANCH  22  23
HETATM   23  C   UNK N   1      33.520  21.551  -3.524  0.00  0.00     0.016 C 
HETATM   24  C   UNK N   1      34.210  20.220  -3.730  0.00  0.00     0.006 C 
ENDBRANCH  22  23
ENDBRANCH   6  22
TORSDOF 5
ENDMDL
MODEL 2
REMARK VINA RESULT:      -6.2     15.153     16.398
REMARK  5 active torsions:
REMARK  status: ('A' for Active; 'I' for Inactive)
REMARK    1  A    between atoms: C_2  and  C_3 
REMARK    2  A    between atoms: C_3  and  N_4 
REMARK    3  A    between atoms: N_9  and  C_12 
REMARK    4  A    between atoms: C_12  and  C_13 
REMARK    5  A    between atoms: C_17  and  C_19 
ROOT
HETATM    1  N   UNK N   1      20.307  15.869   7.824  0.00  0.00    -0.283 N 
HETATM    2  C   UNK N   1      21.301  16.188   6.943  0.00  0.00     0.145 A 
HETATM    3  C   UNK N   1      22.416  15.441   6.807  0.00  0.00     0.147 A 
HETATM    4  C   UNK N   1      22.598  14.290   7.545  0.00  0.00     0.282 A 
HETATM    5  O   UNK N   1      23.608  13.620   7.395  0.00  0.00    -0.265 OA
HETATM    6  N   UNK N   1      21.610  13.908   8.437  0.00  0.00    -0.264 N 
HETATM    7  C   UNK N   1      20.461  14.709   8.579  0.00  0.00     0.333 A 
HETATM    8  O   UNK N   1      19.584  14.396   9.368  0.00  0.00    -0.246 OA
HETATM    9  N   UNK N   1      23.218  15.978   5.873  0.00  0.00    -0.338 N 
ATOM     10  HN  UNK N   1      24.129  15.646   5.558  1.00  0.00     0.167 HD
HETATM   11  C   UNK N   1      22.530  17.070   5.446  0.00  0.00     0.087 A 
HETATM   12  N   UNK N   1      21.344  17.224   6.086  0.00  0.00    -0.329 N 
HETATM   13  H   UNK N   1      20.670  17.930   5.954  0.00  0.00     0.168 HD
ENDROOT
BRANCH  11  14
HETATM   14  C   UNK N   1      22.972  17.954   4.318  0.00  0.00     0.053 C 
HETATM   15  C   UNK N   1      21.974  19.018   3.948  0.00  0.00     0.012 C 
HETATM   16  C   UNK N   1      22.789  19.971   3.099  0.00  0.00     0.001 C 
HETATM   17  C   UNK N   1      24.217  19.881   3.625  0.00  0.00     0.001 C 
HETATM   18  C   UNK N   1      24.244  18.720   4.605  0.00  0.00     0.012 C 
ENDBRANCH  11  14
BRANCH   1  19
HETATM   19  C   UNK N   1      19.078  16.665   8.019  0.00  0.00     0.135 C 
BRANCH  19  20
HETATM   20  C   UNK N   1      19.143  17.765   9.069  0.00  0.00     0.016 C 
HETATM   21  C   UNK N   1      17.862  17.767   9.874  0.00  0.00     0.006 C 
ENDBRANCH  19  20
ENDBRANCH   1  19
BRANCH   6  22
HETATM   22  C   UNK N   1      21.843  12.648   9.184  0.00  0.00     0.137 C 
BRANCH  22  23
HETATM   23  C   UNK N   1      22.404  12.769  10.595  0.00  0.00     0.016 C 
HETATM   24  C   UNK N   1      21.493  12.048  11.565  0.00  0.00     0.006 C 
ENDBRANCH  22  23
ENDBRANCH   6  22
TORSDOF 5
ENDMDL
MODEL 3
REMARK VINA RESULT:      -6.2     11.688     14.869
REMARK  5 active torsions:
REMARK  status: ('A' for Active; 'I' for Inactive)
REMARK    1  A    between atoms: C_2  and  C_3 
REMARK    2  A    between atoms: C_3  and  N_4 
REMARK    3  A    between atoms: N_9  and  C_12 
REMARK    4  A    between atoms: C_12  and  C_13 
REMARK    5  A    between atoms: C_17  and  C_19 
ROOT
HETATM    1  N   UNK N   1      30.713  16.985   5.694  0.00  0.00    -0.283 N 
HETATM    2  C   UNK N   1      31.407  16.909   6.867  0.00  0.00     0.145 A 
HETATM    3  C   UNK N   1      30.957  17.460   8.013  0.00  0.00     0.147 A 
HETATM    4  C   UNK N   1      29.746  18.118   8.060  0.00  0.00     0.282 A 
HETATM    5  O   UNK N   1      29.350  18.598   9.111  0.00  0.00    -0.265 OA
HETATM    6  N   UNK N   1      28.990  18.206   6.902  0.00  0.00    -0.264 N 
HETATM    7  C   UNK N   1      29.483  17.640   5.712  0.00  0.00     0.333 A 
HETATM    8  O   UNK N   1      28.839  17.717   4.678  0.00  0.00    -0.246 OA
HETATM    9  N   UNK N   1      31.830  17.230   9.008  0.00  0.00    -0.338 N 
ATOM     10  HN  UNK N   1      31.769  17.529   9.981  1.00  0.00     0.167 HD
HETATM   11  C   UNK N   1      32.813  16.506   8.413  0.00  0.00     0.087 A 
HETATM   12  N   UNK N   1      32.580  16.290   7.094  0.00  0.00    -0.329 N 
HETATM   13  H   UNK N   1      33.139  15.795   6.452  0.00  0.00     0.168 HD
ENDROOT
BRANCH  11  14
HETATM   14  C   UNK N   1      33.981  15.913   9.145  0.00  0.00     0.053 C 
HETATM   15  C   UNK N   1      34.870  16.934   9.804  0.00  0.00     0.012 C 
HETATM   16  C   UNK N   1      35.700  16.098  10.757  0.00  0.00     0.001 C 
HETATM   17  C   UNK N   1      34.815  14.926  11.163  0.00  0.00     0.001 C 
HETATM   18  C   UNK N   1      33.588  14.980  10.268  0.00  0.00     0.012 C 
ENDBRANCH  11  14
BRANCH   1  19
HETATM   19  C   UNK N   1      31.174  16.411   4.412  0.00  0.00     0.135 C 
BRANCH  19  20
HETATM   20  C   UNK N   1      32.180  17.237   3.624  0.00  0.00     0.016 C 
HETATM   21  C   UNK N   1      33.194  16.315   2.982  0.00  0.00     0.006 C 
ENDBRANCH  19  20
ENDBRANCH   1  19
BRANCH   6  22
HETATM   22  C   UNK N   1      27.684  18.899   7.014  0.00  0.00     0.137 C 
BRANCH  22  23
HETATM   23  C   UNK N   1      27.636  20.365   6.602  0.00  0.00     0.016 C 
HETATM   24  C   UNK N   1      26.667  20.536   5.453  0.00  0.00     0.006 C 
ENDBRANCH  22  23
ENDBRANCH   6  22
TORSDOF 5
ENDMDL
MODEL 4
REMARK VINA RESULT:      -6.0     16.322     19.705
REMARK  5 active torsions:
REMARK  status: ('A' for Active; 'I' for Inactive)
REMARK    1  A    between atoms: C_2  and  C_3 
REMARK    2  A    between atoms: C_3  and  N_4 
REMARK    3  A    between atoms: N_9  and  C_12 
REMARK    4  A    between atoms: C_12  and  C_13 
REMARK    5  A    between atoms: C_17  and  C_19 
ROOT
HETATM    1  N   UNK N   1      34.446  13.671   9.599  0.00  0.00    -0.283 N 
HETATM    2  C   UNK N   1      35.075  13.962  10.775  0.00  0.00     0.145 A 
HETATM    3  C   UNK N   1      35.499  15.205  11.082  0.00  0.00     0.147 A 
HETATM    4  C   UNK N   1      35.295  16.261  10.219  0.00  0.00     0.282 A 
HETATM    5  O   UNK N   1      35.674  17.382  10.523  0.00  0.00    -0.265 OA
HETATM    6  N   UNK N   1      34.641  16.026   9.021  0.00  0.00    -0.264 N 
HETATM    7  C   UNK N   1      34.221  14.720   8.709  0.00  0.00     0.333 A 
HETATM    8  O   UNK N   1      33.654  14.488   7.654  0.00  0.00    -0.246 OA
HETATM    9  N   UNK N   1      36.075  15.208  12.296  0.00  0.00    -0.338 N 
ATOM     10  HN  UNK N   1      36.496  15.993  12.790  1.00  0.00     0.167 HD
HETATM   11  C   UNK N   1      35.965  13.918  12.708  0.00  0.00     0.087 A 
HETATM   12  N   UNK N   1      35.351  13.126  11.793  0.00  0.00    -0.329 N 
HETATM   13  H   UNK N   1      35.153  12.164  11.858  0.00  0.00     0.168 HD
ENDROOT
BRANCH  11  14
HETATM   14  C   UNK N   1      36.376  13.432  14.066  0.00  0.00     0.053 C 
HETATM   15  C   UNK N   1      35.228  13.250  15.023  0.00  0.00     0.012 C 
HETATM   16  C   UNK N   1      35.838  12.417  16.132  0.00  0.00     0.001 C 
HETATM   17  C   UNK N   1      36.915  11.566  15.470  0.00  0.00     0.001 C 
HETATM   18  C   UNK N   1      37.065  12.085  14.050  0.00  0.00     0.012 C 
ENDBRANCH  11  14
BRANCH   1  19
HETATM   19  C   UNK N   1      33.979  12.322   9.213  0.00  0.00     0.135 C 
BRANCH  19  20
HETATM   20  C   UNK N   1      35.059  11.292   8.917  0.00  0.00     0.016 C 
HETATM   21  C   UNK N   1      35.660  11.572   7.556  0.00  0.00     0.006 C 
ENDBRANCH  19  20
ENDBRANCH   1  19
BRANCH   6  22
HETATM   22  C   UNK N   1      34.422  17.201   8.143  0.00  0.00     0.137 C 
BRANCH  22  23
HETATM   23  C   UNK N   1      33.104  17.949   8.295  0.00  0.00     0.016 C 
HETATM   24  C   UNK N   1      32.122  17.461   7.252  0.00  0.00     0.006 C 
ENDBRANCH  22  23
ENDBRANCH   6  22
TORSDOF 5
ENDMDL
MODEL 5
REMARK VINA RESULT:      -6.0     17.730     21.192
REMARK  5 active torsions:
REMARK  status: ('A' for Active; 'I' for Inactive)
REMARK    1  A    between atoms: C_2  and  C_3 
REMARK    2  A    between atoms: C_3  and  N_4 
REMARK    3  A    between atoms: N_9  and  C_12 
REMARK    4  A    between atoms: C_12  and  C_13 
REMARK    5  A    between atoms: C_17  and  C_19 
ROOT
HETATM    1  N   UNK N   1      37.393  13.493  10.612  0.00  0.00    -0.283 N 
HETATM    2  C   UNK N   1      36.824  13.442  11.853  0.00  0.00     0.145 A 
HETATM    3  C   UNK N   1      35.596  13.938  12.108  0.00  0.00     0.147 A 
HETATM    4  C   UNK N   1      34.835  14.508  11.108  0.00  0.00     0.282 A 
HETATM    5  O   UNK N   1      33.719  14.937  11.358  0.00  0.00    -0.265 OA
HETATM    6  N   UNK N   1      35.355  14.565   9.826  0.00  0.00    -0.264 N 
HETATM    7  C   UNK N   1      36.645  14.059   9.581  0.00  0.00     0.333 A 
HETATM    8  O   UNK N   1      37.127  14.111   8.461  0.00  0.00    -0.246 OA
HETATM    9  N   UNK N   1      35.284  13.750  13.401  0.00  0.00    -0.338 N 
ATOM     10  HN  UNK N   1      34.432  14.025  13.889  1.00  0.00     0.167 HD
HETATM   11  C   UNK N   1      36.371  13.109  13.905  0.00  0.00     0.087 A 
HETATM   12  N   UNK N   1      37.336  12.904  12.974  0.00  0.00    -0.329 N 
HETATM   13  H   UNK N   1      38.208  12.463  13.092  0.00  0.00     0.168 HD
ENDROOT
BRANCH  11  14
HETATM   14  C   UNK N   1      36.462  12.587  15.308  0.00  0.00     0.053 C 
HETATM   15  C   UNK N   1      35.207  12.782  16.116  0.00  0.00     0.012 C 
HETATM   16  C   UNK N   1      35.416  11.860  17.299  0.00  0.00     0.001 C 
HETATM   17  C   UNK N   1      36.272  10.709  16.785  0.00  0.00     0.001 C 
HETATM   18  C   UNK N   1      36.731  11.100  15.390  0.00  0.00     0.012 C 
ENDBRANCH  11  14
BRANCH   1  19
HETATM   19  C   UNK N   1      38.741  12.979  10.290  0.00  0.00     0.135 C 
BRANCH  19  20
HETATM   20  C   UNK N   1      38.813  11.551   9.770  0.00  0.00     0.016 C 
HETATM   21  C   UNK N   1      39.932  11.442   8.756  0.00  0.00     0.006 C 
ENDBRANCH  19  20
ENDBRANCH   1  19
BRANCH   6  22
HETATM   22  C   UNK N   1      34.485  15.162   8.784  0.00  0.00     0.137 C 
BRANCH  22  23
HETATM   23  C   UNK N   1      34.635  16.655   8.522  0.00  0.00     0.016 C 
HETATM   24  C   UNK N   1      33.271  17.310   8.529  0.00  0.00     0.006 C 
ENDBRANCH  22  23
ENDBRANCH   6  22
TORSDOF 5
ENDMDL
MODEL 6
REMARK VINA RESULT:      -6.0     17.999     21.203
REMARK  5 active torsions:
REMARK  status: ('A' for Active; 'I' for Inactive)
REMARK    1  A    between atoms: C_2  and  C_3 
REMARK    2  A    between atoms: C_3  and  N_4 
REMARK    3  A    between atoms: N_9  and  C_12 
REMARK    4  A    between atoms: C_12  and  C_13 
REMARK    5  A    between atoms: C_17  and  C_19 
ROOT
HETATM    1  N   UNK N   1      35.327  12.388  11.237  0.00  0.00    -0.283 N 
HETATM    2  C   UNK N   1      35.805  13.128  12.281  0.00  0.00     0.145 A 
HETATM    3  C   UNK N   1      36.236  14.397  12.132  0.00  0.00     0.147 A 
HETATM    4  C   UNK N   1      36.193  15.025  10.905  0.00  0.00     0.282 A 
HETATM    5  O   UNK N   1      36.575  16.181  10.795  0.00  0.00    -0.265 OA
HETATM    6  N   UNK N   1      35.697  14.328   9.816  0.00  0.00    -0.264 N 
HETATM    7  C   UNK N   1      35.268  12.998   9.986  0.00  0.00     0.333 A 
HETATM    8  O   UNK N   1      34.838  12.362   9.038  0.00  0.00    -0.246 OA
HETATM    9  N   UNK N   1      36.643  14.886  13.315  0.00  0.00    -0.338 N 
ATOM     10  HN  UNK N   1      37.027  15.809  13.516  1.00  0.00     0.167 HD
HETATM   11  C   UNK N   1      36.425  13.861  14.180  0.00  0.00     0.087 A 
HETATM   12  N   UNK N   1      35.907  12.764  13.572  0.00  0.00    -0.329 N 
HETATM   13  H   UNK N   1      35.662  11.903  13.981  0.00  0.00     0.168 HD
ENDROOT
BRANCH  11  14
HETATM   14  C   UNK N   1      36.630  13.954  15.663  0.00  0.00     0.053 C 
HETATM   15  C   UNK N   1      36.934  15.346  16.151  0.00  0.00     0.012 C 
HETATM   16  C   UNK N   1      36.713  15.239  17.645  0.00  0.00     0.001 C 
HETATM   17  C   UNK N   1      35.638  14.175  17.833  0.00  0.00     0.001 C 
HETATM   18  C   UNK N   1      35.427  13.529  16.474  0.00  0.00     0.012 C 
ENDBRANCH  11  14
BRANCH   1  19
HETATM   19  C   UNK N   1      34.860  10.990  11.349  0.00  0.00     0.135 C 
BRANCH  19  20
HETATM   20  C   UNK N   1      35.940   9.921  11.434  0.00  0.00     0.016 C 
HETATM   21  C   UNK N   1      35.692   9.054  12.650  0.00  0.00     0.006 C 
ENDBRANCH  19  20
ENDBRANCH   1  19
BRANCH   6  22
HETATM   22  C   UNK N   1      35.647  15.059   8.527  0.00  0.00     0.137 C 
BRANCH  22  23
HETATM   23  C   UNK N   1      34.321  15.702   8.141  0.00  0.00     0.016 C 
HETATM   24  C   UNK N   1      34.429  17.205   8.279  0.00  0.00     0.006 C 
ENDBRANCH  22  23
ENDBRANCH   6  22
TORSDOF 5
ENDMDL
MODEL 7
REMARK VINA RESULT:      -5.9     19.644     22.756
REMARK  5 active torsions:
REMARK  status: ('A' for Active; 'I' for Inactive)
REMARK    1  A    between atoms: C_2  and  C_3 
REMARK    2  A    between atoms: C_3  and  N_4 
REMARK    3  A    between atoms: N_9  and  C_12 
REMARK    4  A    between atoms: C_12  and  C_13 
REMARK    5  A    between atoms: C_17  and  C_19 
ROOT
HETATM    1  N   UNK N   1      36.141  11.415  12.359  0.00  0.00    -0.283 N 
HETATM    2  C   UNK N   1      35.905  11.966  13.586  0.00  0.00     0.145 A 
HETATM    3  C   UNK N   1      35.939  13.297  13.802  0.00  0.00     0.147 A 
HETATM    4  C   UNK N   1      36.196  14.180  12.773  0.00  0.00     0.282 A 
HETATM    5  O   UNK N   1      36.207  15.382  12.987  0.00  0.00    -0.265 OA
HETATM    6  N   UNK N   1      36.420  13.676  11.503  0.00  0.00    -0.264 N 
HETATM    7  C   UNK N   1      36.398  12.283  11.299  0.00  0.00     0.333 A 
HETATM    8  O   UNK N   1      36.605  11.818  10.191  0.00  0.00    -0.246 OA
HETATM    9  N   UNK N   1      35.665  13.561  15.090  0.00  0.00    -0.338 N 
ATOM     10  HN  UNK N   1      35.628  14.469  15.552  1.00  0.00     0.167 HD
HETATM   11  C   UNK N   1      35.453  12.333  15.632  0.00  0.00     0.087 A 
HETATM   12  N   UNK N   1      35.591  11.331  14.729  0.00  0.00    -0.329 N 
HETATM   13  H   UNK N   1      35.486  10.363  14.876  0.00  0.00     0.168 HD
ENDROOT
BRANCH  11  14
HETATM   14  C   UNK N   1      35.009  12.105  17.047  0.00  0.00     0.053 C 
HETATM   15  C   UNK N   1      35.705  10.958  17.729  0.00  0.00     0.012 C 
HETATM   16  C   UNK N   1      35.382  11.183  19.191  0.00  0.00     0.001 C 
HETATM   17  C   UNK N   1      35.237  12.690  19.360  0.00  0.00     0.001 C 
HETATM   18  C   UNK N   1      35.251  13.285  17.961  0.00  0.00     0.012 C 
ENDBRANCH  11  14
BRANCH   1  19
HETATM   19  C   UNK N   1      36.131   9.964  12.079  0.00  0.00     0.135 C 
BRANCH  19  20
HETATM   20  C   UNK N   1      34.814   9.238  12.315  0.00  0.00     0.016 C 
HETATM   21  C   UNK N   1      33.728   9.888  11.485  0.00  0.00     0.006 C 
ENDBRANCH  19  20
ENDBRANCH   1  19
BRANCH   6  22
HETATM   22  C   UNK N   1      36.663  14.669  10.429  0.00  0.00     0.137 C 
BRANCH  22  23
HETATM   23  C   UNK N   1      35.470  15.075   9.573  0.00  0.00     0.016 C 
HETATM   24  C   UNK N   1      35.092  16.509   9.879  0.00  0.00     0.006 C 
ENDBRANCH  22  23
ENDBRANCH   6  22
TORSDOF 5
ENDMDL
MODEL 8
REMARK VINA RESULT:      -5.8      2.199      6.325
REMARK  5 active torsions:
REMARK  status: ('A' for Active; 'I' for Inactive)
REMARK    1  A    between atoms: C_2  and  C_3 
REMARK    2  A    between atoms: C_3  and  N_4 
REMARK    3  A    between atoms: N_9  and  C_12 
REMARK    4  A    between atoms: C_12  and  C_13 
REMARK    5  A    between atoms: C_17  and  C_19 
ROOT
HETATM    1  N   UNK N   1      27.515  23.215  -6.963  0.00  0.00    -0.283 N 
HETATM    2  C   UNK N   1      28.349  22.967  -5.911  0.00  0.00     0.145 A 
HETATM    3  C   UNK N   1      28.264  23.639  -4.745  0.00  0.00     0.147 A 
HETATM    4  C   UNK N   1      27.301  24.606  -4.548  0.00  0.00     0.282 A 
HETATM    5  O   UNK N   1      27.231  25.193  -3.478  0.00  0.00    -0.265 OA
HETATM    6  N   UNK N   1      26.413  24.882  -5.575  0.00  0.00    -0.264 N 
HETATM    7  C   UNK N   1      26.528  24.184  -6.792  0.00  0.00     0.333 A 
HETATM    8  O   UNK N   1      25.765  24.420  -7.714  0.00  0.00    -0.246 OA
HETATM    9  N   UNK N   1      29.196  23.192  -3.887  0.00  0.00    -0.338 N 
ATOM     10  HN  UNK N   1      29.382  23.511  -2.937  1.00  0.00     0.167 HD
HETATM   11  C   UNK N   1      29.833  22.215  -4.585  0.00  0.00     0.087 A 
HETATM   12  N   UNK N   1      29.332  22.052  -5.835  0.00  0.00    -0.329 N 
HETATM   13  H   UNK N   1      29.621  21.413  -6.526  0.00  0.00     0.168 HD
ENDROOT
BRANCH  11  14
HETATM   14  C   UNK N   1      30.903  21.335  -4.011  0.00  0.00     0.053 C 
HETATM   15  C   UNK N   1      31.831  20.749  -5.042  0.00  0.00     0.012 C 
HETATM   16  C   UNK N   1      32.995  20.251  -4.210  0.00  0.00     0.001 C 
HETATM   17  C   UNK N   1      33.073  21.179  -3.004  0.00  0.00     0.001 C 
HETATM   18  C   UNK N   1      31.823  22.043  -3.041  0.00  0.00     0.012 C 
ENDBRANCH  11  14
BRANCH   1  19
HETATM   19  C   UNK N   1      27.582  22.517  -8.265  0.00  0.00     0.135 C 
BRANCH  19  20
HETATM   20  C   UNK N   1      26.898  21.159  -8.340  0.00  0.00     0.016 C 
HETATM   21  C   UNK N   1      25.881  21.172  -9.462  0.00  0.00     0.006 C 
ENDBRANCH  19  20
ENDBRANCH   1  19
BRANCH   6  22
HETATM   22  C   UNK N   1      25.381  25.910  -5.302  0.00  0.00     0.137 C 
BRANCH  22  23
HETATM   23  C   UNK N   1      25.709  27.347  -5.689  0.00  0.00     0.016 C 
HETATM   24  C   UNK N   1      25.704  28.219  -4.452  0.00  0.00     0.006 C 
ENDBRANCH  22  23
ENDBRANCH   6  22
TORSDOF 5
ENDMDL
MODEL 9
REMARK VINA RESULT:      -5.8      2.979      5.336
REMARK  5 active torsions:
REMARK  status: ('A' for Active; 'I' for Inactive)
REMARK    1  A    between atoms: C_2  and  C_3 
REMARK    2  A    between atoms: C_3  and  N_4 
REMARK    3  A    between atoms: N_9  and  C_12 
REMARK    4  A    between atoms: C_12  and  C_13 
REMARK    5  A    between atoms: C_17  and  C_19 
ROOT
HETATM    1  N   UNK N   1      28.200  22.586  -7.107  0.00  0.00    -0.283 N 
HETATM    2  C   UNK N   1      27.321  23.511  -6.619  0.00  0.00     0.145 A 
HETATM    3  C   UNK N   1      26.058  23.623  -7.078  0.00  0.00     0.147 A 
HETATM    4  C   UNK N   1      25.579  22.782  -8.062  0.00  0.00     0.282 A 
HETATM    5  O   UNK N   1      24.427  22.891  -8.453  0.00  0.00    -0.265 OA
HETATM    6  N   UNK N   1      26.422  21.811  -8.576  0.00  0.00    -0.264 N 
HETATM    7  C   UNK N   1      27.743  21.720  -8.098  0.00  0.00     0.333 A 
HETATM    8  O   UNK N   1      28.505  20.880  -8.547  0.00  0.00    -0.246 OA
HETATM    9  N   UNK N   1      25.416  24.603  -6.422  0.00  0.00    -0.338 N 
ATOM     10  HN  UNK N   1      24.458  24.927  -6.554  1.00  0.00     0.167 HD
HETATM   11  C   UNK N   1      26.343  25.063  -5.542  0.00  0.00     0.087 A 
HETATM   12  N   UNK N   1      27.527  24.408  -5.638  0.00  0.00    -0.329 N 
HETATM   13  H   UNK N   1      28.346  24.554  -5.113  0.00  0.00     0.168 HD
ENDROOT
BRANCH  11  14
HETATM   14  C   UNK N   1      26.068  26.107  -4.500  0.00  0.00     0.053 C 
HETATM   15  C   UNK N   1      27.303  26.623  -3.811  0.00  0.00     0.012 C 
HETATM   16  C   UNK N   1      26.811  27.882  -3.128  0.00  0.00     0.001 C 
HETATM   17  C   UNK N   1      25.687  28.420  -4.004  0.00  0.00     0.001 C 
HETATM   18  C   UNK N   1      25.397  27.349  -5.043  0.00  0.00     0.012 C 
ENDBRANCH  11  14
BRANCH   1  19
HETATM   19  C   UNK N   1      29.597  22.438  -6.648  0.00  0.00     0.135 C 
BRANCH  19  20
HETATM   20  C   UNK N   1      29.810  21.615  -5.386  0.00  0.00     0.016 C 
HETATM   21  C   UNK N   1      30.896  20.590  -5.633  0.00  0.00     0.006 C 
ENDBRANCH  19  20
ENDBRANCH   1  19
BRANCH   6  22
HETATM   22  C   UNK N   1      25.849  20.916  -9.610  0.00  0.00     0.137 C 
BRANCH  22  23
HETATM   23  C   UNK N   1      26.223  21.198 -11.060  0.00  0.00     0.016 C 
HETATM   24  C   UNK N   1      25.360  20.359 -11.977  0.00  0.00     0.006 C 
ENDBRANCH  22  23
ENDBRANCH   6  22
TORSDOF 5
ENDMDL
