MODEL 1
REMARK VINA RESULT:      -7.8      0.000      0.000
REMARK WARNING: 32 MAX_TORS EXCEEDED!!!
REMARK  40 active torsions:
REMARK  status: ('A' for Active; 'I' for Inactive)
REMARK    1  A    between atoms: O_2  and  C_3 
REMARK    2  A    between atoms: C_6  and  N_72 
REMARK    3  A    between atoms: C_8  and  C_9 
REMARK       I    between atoms: C_9  and  N_11 
REMARK    4  A    between atoms: C_12  and  N_11 
REMARK    5  A    between atoms: C_12  and  C_13 
REMARK    6  A    between atoms: C_12  and  C_18 
REMARK    7  A    between atoms: C_13  and  C_14 
REMARK    8  A    between atoms: C_14  and  C_15 
REMARK    9  A    between atoms: C_15  and  C_16 
REMARK   10  A    between atoms: C_16  and  N_17 
REMARK       I    between atoms: C_18  and  N_20 
REMARK   11  A    between atoms: N_20  and  C_21 
REMARK   12  A    between atoms: C_24  and  O_70 
REMARK   13  A    between atoms: C_25  and  C_27 
REMARK       I    between atoms: C_27  and  N_29 
REMARK   14  A    between atoms: C_30  and  N_29 
REMARK   15  A    between atoms: C_30  and  C_31 
REMARK   16  A    between atoms: C_30  and  C_36 
REMARK   17  A    between atoms: C_31  and  C_32 
REMARK   18  A    between atoms: C_32  and  C_33 
REMARK   19  A    between atoms: C_33  and  C_34 
REMARK   20  A    between atoms: C_34  and  N_35 
REMARK       I    between atoms: C_36  and  N_38 
REMARK   21  A    between atoms: N_38  and  C_39 
REMARK   22  A    between atoms: C_42  and  O_68 
REMARK   23  A    between atoms: C_43  and  C_45 
REMARK       I    between atoms: C_45  and  N_47 
REMARK   24  A    between atoms: C_48  and  N_47 
REMARK   25  A    between atoms: C_48  and  C_49 
REMARK   26  A    between atoms: C_48  and  C_54 
REMARK   27  A    between atoms: C_49  and  C_50 
REMARK   28  A    between atoms: C_50  and  C_51 
REMARK   29  A    between atoms: C_51  and  C_52 
REMARK   30  A    between atoms: C_52  and  N_53 
REMARK       I    between atoms: C_54  and  N_56 
REMARK   31  A    between atoms: N_56  and  C_57 
REMARK   32  A    between atoms: C_60  and  O_66 
REMARK   33  A    between atoms: C_61  and  C_63 
REMARK       I    between atoms: C_63  and  N_65 
REMARK       I    between atoms: N_72  and  C_73 
REMARK   34  A    between atoms: C_73  and  C_75 
REMARK   35  A    between atoms: C_75  and  C_76 
REMARK   36  A    between atoms: C_75  and  N_81 
REMARK   37  A    between atoms: C_76  and  C_77 
REMARK   38  A    between atoms: C_77  and  C_78 
REMARK   39  A    between atoms: C_78  and  C_79 
REMARK   40  A    between atoms: C_79  and  N_80 
ROOT
HETATM    1  C   UNK N   1      28.047  17.011   5.741  0.00  0.00     0.255 C 
HETATM    2  O   UNK N   1      28.808  16.198   5.194  0.00  0.00    -0.268 OA
HETATM    3  N   UNK N   1      26.861  17.280   5.187  0.00  0.00    -0.344 N 
HETATM    4  H   UNK N   1      26.396  18.134   5.346  0.00  0.00     0.163 HD
ENDROOT
BRANCH   3   5
HETATM    5  C   UNK N   1      26.306  16.275   4.358  0.00  0.00     0.177 C 
BRANCH   5   6
HETATM    6  C   UNK N   1      26.358  16.638   2.880  0.00  0.00     0.035 C 
BRANCH   6   7
HETATM    7  C   UNK N   1      26.456  15.395   1.999  0.00  0.00     0.004 C 
BRANCH   7   8
HETATM    8  C   UNK N   1      25.082  14.867   1.595  0.00  0.00     0.019 C 
BRANCH   8   9
HETATM    9  C   UNK N   1      24.797  13.526   2.240  0.00  0.00     0.111 C 
BRANCH   9  10
HETATM   10  N   UNK N   1      25.902  12.622   1.976  0.00  0.00    -0.430 N 
HETATM   11  H   UNK N   1      26.528  12.148   1.325  0.00  0.00     0.149 HD
HETATM   12  H   UNK N   1      26.201  12.304   2.897  0.00  0.00     0.149 HD
ENDBRANCH   9  10
ENDBRANCH   8   9
ENDBRANCH   7   8
ENDBRANCH   6   7
ENDBRANCH   5   6
BRANCH   5  13
HETATM   13  C   UNK N   1      25.002  16.030   5.067  0.00  0.00     0.241 C 
HETATM   14  O   UNK N   1      24.052  16.738   4.784  0.00  0.00    -0.271 OA
HETATM   15  N   UNK N   1      24.779  14.854   5.725  0.00  0.00    -0.348 N 
HETATM   16  H   UNK N   1      23.909  14.415   5.590  0.00  0.00     0.163 HD
BRANCH  15  17
HETATM   17  C   UNK N   1      25.716  14.211   6.600  0.00  0.00     0.132 C 
HETATM   18  C   UNK N   1      26.189  13.069   5.970  0.00  0.00     0.005 C 
HETATM   19  C   UNK N   1      25.197  12.115   5.699  0.00  0.00     0.036 C 
HETATM   20  C   UNK N   1      23.957  12.219   6.399  0.00  0.00     0.083 C 
HETATM   21  C   UNK N   1      23.912  13.078   7.576  0.00  0.00     0.063 C 
HETATM   22  C   UNK N   1      25.048  13.883   7.771  0.00  0.00     0.022 C 
BRANCH  20  23
HETATM   23  O   UNK N   1      22.869  11.573   5.924  0.00  0.00    -0.355 OA
HETATM   24  C   UNK N   1      22.790  10.200   5.826  0.00  0.00     0.210 C 
ENDBRANCH  20  23
BRANCH  21  25
HETATM   25  C   UNK N   1      22.749  13.383   8.496  0.00  0.00     0.254 C 
HETATM   26  O   UNK N   1      22.588  12.674   9.473  0.00  0.00    -0.268 OA
HETATM   27  N   UNK N   1      21.855  14.371   8.318  0.00  0.00    -0.344 N 
HETATM   28  H   UNK N   1      21.222  14.557   9.049  0.00  0.00     0.163 HD
BRANCH  27  29
HETATM   29  C   UNK N   1      21.766  15.164   7.148  0.00  0.00     0.177 C 
BRANCH  29  30
HETATM   30  C   UNK N   1      21.126  16.522   7.435  0.00  0.00     0.035 C 
BRANCH  30  31
HETATM   31  C   UNK N   1      20.138  16.517   8.598  0.00  0.00     0.004 C 
BRANCH  31  32
HETATM   32  C   UNK N   1      19.630  17.914   8.904  0.00  0.00     0.019 C 
BRANCH  32  33
HETATM   33  C   UNK N   1      18.243  17.823   9.496  0.00  0.00     0.111 C 
BRANCH  33  34
HETATM   34  N   UNK N   1      17.736  16.474   9.332  0.00  0.00    -0.430 N 
HETATM   35  H   UNK N   1      17.838  15.586   8.842  0.00  0.00     0.149 HD
HETATM   36  H   UNK N   1      16.950  16.372   9.975  0.00  0.00     0.149 HD
ENDBRANCH  33  34
ENDBRANCH  32  33
ENDBRANCH  31  32
ENDBRANCH  30  31
ENDBRANCH  29  30
BRANCH  29  37
HETATM   37  C   UNK N   1      21.075  14.423   6.053  0.00  0.00     0.245 C 
HETATM   38  O   UNK N   1      19.941  13.977   6.193  0.00  0.00    -0.271 OA
HETATM   39  N   UNK N   1      21.703  14.381   4.868  0.00  0.00    -0.325 N 
HETATM   40  H   UNK N   1      22.603  13.985   4.819  0.00  0.00     0.169 HD
BRANCH  39  41
HETATM   41  C   UNK N   1      21.121  14.882   3.702  0.00  0.00     0.035 A 
HETATM   42  C   UNK N   1      21.129  14.101   2.555  0.00  0.00     0.032 A 
HETATM   43  C   UNK N   1      20.745  14.660   1.342  0.00  0.00     0.040 A 
HETATM   44  C   UNK N   1      20.383  16.020   1.261  0.00  0.00     0.084 A 
HETATM   45  C   UNK N   1      20.412  16.820   2.429  0.00  0.00     0.067 A 
HETATM   46  C   UNK N   1      20.789  16.234   3.628  0.00  0.00     0.049 A 
BRANCH  44  47
HETATM   47  O   UNK N   1      20.010  16.556   0.077  0.00  0.00    -0.355 OA
HETATM   48  C   UNK N   1      18.849  16.203  -0.573  0.00  0.00     0.210 C 
ENDBRANCH  44  47
BRANCH  45  49
HETATM   49  C   UNK N   1      20.059  18.262   2.449  0.00  0.00     0.252 C 
HETATM   50  O   UNK N   1      20.927  19.098   2.660  0.00  0.00    -0.268 OA
HETATM   51  N   UNK N   1      18.791  18.670   2.250  0.00  0.00    -0.366 N 
HETATM   52  H   UNK N   1      18.584  19.631   2.188  0.00  0.00     0.159 HD
HETATM   53  H   UNK N   1      18.069  18.006   2.166  0.00  0.00     0.159 HD
ENDBRANCH  45  49
ENDBRANCH  39  41
ENDBRANCH  29  37
ENDBRANCH  27  29
ENDBRANCH  21  25
ENDBRANCH  15  17
ENDBRANCH   5  13
ENDBRANCH   3   5
BRANCH   1  54
HETATM   54  C   UNK N   1      28.483  17.681   6.939  0.00  0.00     0.067 C 
HETATM   55  C   UNK N   1      28.060  18.945   7.390  0.00  0.00     0.084 C 
HETATM   56  C   UNK N   1      28.741  19.516   8.493  0.00  0.00     0.040 C 
HETATM   57  C   UNK N   1      29.912  18.900   8.982  0.00  0.00     0.032 C 
HETATM   58  C   UNK N   1      30.309  17.659   8.458  0.00  0.00     0.035 C 
HETATM   59  C   UNK N   1      29.502  17.066   7.541  0.00  0.00     0.049 C 
BRANCH  55  60
HETATM   60  O   UNK N   1      27.035  19.576   6.770  0.00  0.00    -0.355 OA
HETATM   61  C   UNK N   1      26.807  20.928   6.874  0.00  0.00     0.210 C 
ENDBRANCH  55  60
BRANCH  58  62
HETATM   62  N   UNK N   1      31.697  17.395   8.283  0.00  0.00    -0.325 N 
HETATM   63  C   UNK N   1      32.207  16.118   8.429  0.00  0.00     0.245 C 
HETATM   64  O   UNK N   1      31.627  15.263   9.090  0.00  0.00    -0.271 OA
HETATM   65  H   UNK N   1      32.306  18.135   8.054  0.00  0.00     0.169 HD
BRANCH  63  66
HETATM   66  C   UNK N   1      33.297  15.671   7.544  0.00  0.00     0.177 C 
BRANCH  66  67
HETATM   67  N   UNK N   1      34.281  14.942   8.343  0.00  0.00    -0.344 N 
HETATM   68  C   UNK N   1      34.973  15.444   9.405  0.00  0.00     0.255 C 
HETATM   69  O   UNK N   1      34.988  16.645   9.627  0.00  0.00    -0.268 OA
HETATM   70  H   UNK N   1      34.461  14.008   8.092  0.00  0.00     0.163 HD
BRANCH  68  71
HETATM   71  C   UNK N   1      35.709  14.528  10.306  0.00  0.00     0.067 A 
HETATM   72  C   UNK N   1      35.739  14.797  11.681  0.00  0.00     0.049 A 
HETATM   73  C   UNK N   1      36.497  13.999  12.548  0.00  0.00     0.035 A 
HETATM   74  C   UNK N   1      37.139  12.867  12.046  0.00  0.00     0.032 A 
HETATM   75  C   UNK N   1      37.102  12.573  10.690  0.00  0.00     0.040 A 
HETATM   76  C   UNK N   1      36.436  13.428   9.798  0.00  0.00     0.084 A 
BRANCH  73  77
HETATM   77  N   UNK N   1      36.900  14.423  13.843  0.00  0.00    -0.325 N 
HETATM   78  C   UNK N   1      36.639  13.921  15.084  0.00  0.00     0.244 C 
HETATM   79  O   UNK N   1      36.913  14.625  16.041  0.00  0.00    -0.271 OA
HETATM   80  H   UNK N   1      37.472  15.223  13.844  0.00  0.00     0.169 HD
BRANCH  78  81
HETATM   81  C   UNK N   1      36.023  12.576  15.388  0.00  0.00     0.167 C 
BRANCH  81  82
HETATM   82  C   UNK N   1      35.079  12.539  16.581  0.00  0.00     0.034 C 
BRANCH  82  83
HETATM   83  C   UNK N   1      35.341  11.276  17.409  0.00  0.00     0.004 C 
BRANCH  83  84
HETATM   84  C   UNK N   1      35.392  11.569  18.903  0.00  0.00     0.019 C 
BRANCH  84  85
HETATM   85  C   UNK N   1      35.286  13.065  19.139  0.00  0.00     0.111 C 
BRANCH  85  86
HETATM   86  N   UNK N   1      34.738  13.317  20.460  0.00  0.00    -0.430 N 
HETATM   87  H   UNK N   1      35.333  13.448  21.279  0.00  0.00     0.149 HD
HETATM   88  H   UNK N   1      33.725  13.363  20.574  0.00  0.00     0.149 HD
ENDBRANCH  85  86
ENDBRANCH  84  85
ENDBRANCH  83  84
ENDBRANCH  82  83
ENDBRANCH  81  82
BRANCH  81  89
HETATM   89  N   UNK N   1      36.861  11.401  15.220  0.00  0.00    -0.418 N 
HETATM   90  H   UNK N   1      37.876  11.390  15.117  0.00  0.00     0.150 HD
HETATM   91  H   UNK N   1      36.387  10.498  15.204  0.00  0.00     0.150 HD
ENDBRANCH  81  89
ENDBRANCH  78  81
ENDBRANCH  73  77
BRANCH  76  92
HETATM   92  O   UNK N   1      36.471  13.194   8.465  0.00  0.00    -0.355 OA
HETATM   93  C   UNK N   1      37.115  12.110   7.920  0.00  0.00     0.210 C 
ENDBRANCH  76  92
ENDBRANCH  68  71
ENDBRANCH  66  67
BRANCH  66  94
HETATM   94  C   UNK N   1      33.819  16.839   6.758  0.00  0.00     0.035 C 
BRANCH  94  95
HETATM   95  C   UNK N   1      33.726  16.532   5.287  0.00  0.00     0.004 C 
BRANCH  95  96
HETATM   96  C   UNK N   1      32.817  17.551   4.640  0.00  0.00     0.019 C 
BRANCH  96  97
HETATM   97  C   UNK N   1      32.292  17.016   3.317  0.00  0.00     0.111 C 
BRANCH  97  98
HETATM   98  N   UNK N   1      33.300  16.185   2.680  0.00  0.00    -0.430 N 
HETATM   99  H   UNK N   1      34.135  15.890   2.173  0.00  0.00     0.149 HD
HETATM  100  H   UNK N   1      32.895  15.267   2.869  0.00  0.00     0.149 HD
ENDBRANCH  97  98
ENDBRANCH  96  97
ENDBRANCH  95  96
ENDBRANCH  94  95
ENDBRANCH  66  94
ENDBRANCH  63  66
ENDBRANCH  58  62
ENDBRANCH   1  54
TORSDOF 40
ENDMDL
MODEL 2
REMARK VINA RESULT:      -7.7      2.598     12.917
REMARK WARNING: 32 MAX_TORS EXCEEDED!!!
REMARK  40 active torsions:
REMARK  status: ('A' for Active; 'I' for Inactive)
REMARK    1  A    between atoms: O_2  and  C_3 
REMARK    2  A    between atoms: C_6  and  N_72 
REMARK    3  A    between atoms: C_8  and  C_9 
REMARK       I    between atoms: C_9  and  N_11 
REMARK    4  A    between atoms: C_12  and  N_11 
REMARK    5  A    between atoms: C_12  and  C_13 
REMARK    6  A    between atoms: C_12  and  C_18 
REMARK    7  A    between atoms: C_13  and  C_14 
REMARK    8  A    between atoms: C_14  and  C_15 
REMARK    9  A    between atoms: C_15  and  C_16 
REMARK   10  A    between atoms: C_16  and  N_17 
REMARK       I    between atoms: C_18  and  N_20 
REMARK   11  A    between atoms: N_20  and  C_21 
REMARK   12  A    between atoms: C_24  and  O_70 
REMARK   13  A    between atoms: C_25  and  C_27 
REMARK       I    between atoms: C_27  and  N_29 
REMARK   14  A    between atoms: C_30  and  N_29 
REMARK   15  A    between atoms: C_30  and  C_31 
REMARK   16  A    between atoms: C_30  and  C_36 
REMARK   17  A    between atoms: C_31  and  C_32 
REMARK   18  A    between atoms: C_32  and  C_33 
REMARK   19  A    between atoms: C_33  and  C_34 
REMARK   20  A    between atoms: C_34  and  N_35 
REMARK       I    between atoms: C_36  and  N_38 
REMARK   21  A    between atoms: N_38  and  C_39 
REMARK   22  A    between atoms: C_42  and  O_68 
REMARK   23  A    between atoms: C_43  and  C_45 
REMARK       I    between atoms: C_45  and  N_47 
REMARK   24  A    between atoms: C_48  and  N_47 
REMARK   25  A    between atoms: C_48  and  C_49 
REMARK   26  A    between atoms: C_48  and  C_54 
REMARK   27  A    between atoms: C_49  and  C_50 
REMARK   28  A    between atoms: C_50  and  C_51 
REMARK   29  A    between atoms: C_51  and  C_52 
REMARK   30  A    between atoms: C_52  and  N_53 
REMARK       I    between atoms: C_54  and  N_56 
REMARK   31  A    between atoms: N_56  and  C_57 
REMARK   32  A    between atoms: C_60  and  O_66 
REMARK   33  A    between atoms: C_61  and  C_63 
REMARK       I    between atoms: C_63  and  N_65 
REMARK       I    between atoms: N_72  and  C_73 
REMARK   34  A    between atoms: C_73  and  C_75 
REMARK   35  A    between atoms: C_75  and  C_76 
REMARK   36  A    between atoms: C_75  and  N_81 
REMARK   37  A    between atoms: C_76  and  C_77 
REMARK   38  A    between atoms: C_77  and  C_78 
REMARK   39  A    between atoms: C_78  and  C_79 
REMARK   40  A    between atoms: C_79  and  N_80 
ROOT
HETATM    1  C   UNK N   1      28.731  17.314   4.077  0.00  0.00     0.255 C 
HETATM    2  O   UNK N   1      29.217  17.560   2.962  0.00  0.00    -0.268 OA
HETATM    3  N   UNK N   1      28.622  16.046   4.484  0.00  0.00    -0.344 N 
HETATM    4  H   UNK N   1      27.949  15.771   5.147  0.00  0.00     0.163 HD
ENDROOT
BRANCH   3   5
HETATM    5  C   UNK N   1      29.524  15.117   3.912  0.00  0.00     0.177 C 
BRANCH   5   6
HETATM    6  C   UNK N   1      28.816  13.990   3.171  0.00  0.00     0.035 C 
BRANCH   6   7
HETATM    7  C   UNK N   1      27.498  13.616   3.844  0.00  0.00     0.004 C 
BRANCH   7   8
HETATM    8  C   UNK N   1      26.316  13.709   2.882  0.00  0.00     0.019 C 
BRANCH   8   9
HETATM    9  C   UNK N   1      26.575  14.731   1.792  0.00  0.00     0.111 C 
BRANCH   9  10
HETATM   10  N   UNK N   1      25.919  15.978   2.139  0.00  0.00    -0.430 N 
HETATM   11  H   UNK N   1      25.911  16.997   2.184  0.00  0.00     0.149 HD
HETATM   12  H   UNK N   1      25.020  15.697   2.530  0.00  0.00     0.149 HD
ENDBRANCH   9  10
ENDBRANCH   8   9
ENDBRANCH   7   8
ENDBRANCH   6   7
ENDBRANCH   5   6
BRANCH   5  13
HETATM   13  C   UNK N   1      30.419  14.848   5.090  0.00  0.00     0.241 C 
HETATM   14  O   UNK N   1      29.961  14.221   6.028  0.00  0.00    -0.271 OA
HETATM   15  N   UNK N   1      31.775  14.976   4.978  0.00  0.00    -0.348 N 
HETATM   16  H   UNK N   1      32.333  14.264   5.364  0.00  0.00     0.163 HD
BRANCH  15  17
HETATM   17  C   UNK N   1      32.446  16.071   4.341  0.00  0.00     0.132 C 
HETATM   18  C   UNK N   1      32.613  15.760   2.999  0.00  0.00     0.005 C 
HETATM   19  C   UNK N   1      33.414  14.631   2.772  0.00  0.00     0.036 C 
HETATM   20  C   UNK N   1      34.250  14.175   3.836  0.00  0.00     0.083 C 
HETATM   21  C   UNK N   1      34.480  15.082   4.954  0.00  0.00     0.063 C 
HETATM   22  C   UNK N   1      33.676  16.235   4.962  0.00  0.00     0.022 C 
BRANCH  20  23
HETATM   23  O   UNK N   1      34.745  12.919   3.800  0.00  0.00    -0.355 OA
HETATM   24  C   UNK N   1      35.119  12.288   2.632  0.00  0.00     0.210 C 
ENDBRANCH  20  23
BRANCH  21  25
HETATM   25  C   UNK N   1      35.301  14.869   6.208  0.00  0.00     0.254 C 
HETATM   26  O   UNK N   1      36.482  15.165   6.178  0.00  0.00    -0.268 OA
HETATM   27  N   UNK N   1      34.839  14.358   7.362  0.00  0.00    -0.344 N 
HETATM   28  H   UNK N   1      35.431  14.389   8.149  0.00  0.00     0.163 HD
BRANCH  27  29
HETATM   29  C   UNK N   1      33.557  13.779   7.521  0.00  0.00     0.177 C 
BRANCH  29  30
HETATM   30  C   UNK N   1      32.678  14.605   8.460  0.00  0.00     0.035 C 
BRANCH  30  31
HETATM   31  C   UNK N   1      33.329  15.894   8.957  0.00  0.00     0.004 C 
BRANCH  31  32
HETATM   32  C   UNK N   1      32.623  17.120   8.409  0.00  0.00     0.019 C 
BRANCH  32  33
HETATM   33  C   UNK N   1      33.632  18.225   8.198  0.00  0.00     0.111 C 
BRANCH  33  34
HETATM   34  N   UNK N   1      34.838  17.927   8.946  0.00  0.00    -0.430 N 
HETATM   35  H   UNK N   1      35.261  17.351   9.675  0.00  0.00     0.149 HD
HETATM   36  H   UNK N   1      35.565  18.552   8.601  0.00  0.00     0.149 HD
ENDBRANCH  33  34
ENDBRANCH  32  33
ENDBRANCH  31  32
ENDBRANCH  30  31
ENDBRANCH  29  30
BRANCH  29  37
HETATM   37  C   UNK N   1      33.664  12.352   7.941  0.00  0.00     0.245 C 
HETATM   38  O   UNK N   1      34.276  11.527   7.271  0.00  0.00    -0.271 OA
HETATM   39  N   UNK N   1      33.170  12.044   9.151  0.00  0.00    -0.325 N 
HETATM   40  H   UNK N   1      32.219  12.220   9.336  0.00  0.00     0.169 HD
BRANCH  39  41
HETATM   41  C   UNK N   1      33.962  11.484  10.155  0.00  0.00     0.035 A 
HETATM   42  C   UNK N   1      33.499  10.365  10.833  0.00  0.00     0.032 A 
HETATM   43  C   UNK N   1      34.172   9.923  11.965  0.00  0.00     0.040 A 
HETATM   44  C   UNK N   1      35.297  10.621  12.451  0.00  0.00     0.084 A 
HETATM   45  C   UNK N   1      35.742  11.782  11.774  0.00  0.00     0.067 A 
HETATM   46  C   UNK N   1      35.057  12.196  10.640  0.00  0.00     0.049 A 
BRANCH  44  47
HETATM   47  O   UNK N   1      35.946  10.184  13.554  0.00  0.00    -0.355 OA
HETATM   48  C   UNK N   1      35.293   9.772  14.693  0.00  0.00     0.210 C 
ENDBRANCH  44  47
BRANCH  45  49
HETATM   49  C   UNK N   1      36.907  12.593  12.208  0.00  0.00     0.252 C 
HETATM   50  O   UNK N   1      37.781  12.883  11.402  0.00  0.00    -0.268 OA
HETATM   51  N   UNK N   1      37.028  13.008  13.484  0.00  0.00    -0.366 N 
HETATM   52  H   UNK N   1      37.765  13.610  13.740  0.00  0.00     0.159 HD
HETATM   53  H   UNK N   1      36.379  12.710  14.161  0.00  0.00     0.159 HD
ENDBRANCH  45  49
ENDBRANCH  39  41
ENDBRANCH  29  37
ENDBRANCH  27  29
ENDBRANCH  21  25
ENDBRANCH  15  17
ENDBRANCH   5  13
ENDBRANCH   3   5
BRANCH   1  54
HETATM   54  C   UNK N   1      28.254  18.405   4.887  0.00  0.00     0.067 C 
HETATM   55  C   UNK N   1      28.511  18.602   6.257  0.00  0.00     0.084 C 
HETATM   56  C   UNK N   1      27.801  19.632   6.921  0.00  0.00     0.040 C 
HETATM   57  C   UNK N   1      26.751  20.295   6.254  0.00  0.00     0.032 C 
HETATM   58  C   UNK N   1      26.513  20.021   4.896  0.00  0.00     0.035 C 
HETATM   59  C   UNK N   1      27.358  19.169   4.261  0.00  0.00     0.049 C 
BRANCH  55  60
HETATM   60  O   UNK N   1      29.409  17.817   6.896  0.00  0.00    -0.355 OA
HETATM   61  C   UNK N   1      29.183  17.264   8.135  0.00  0.00     0.210 C 
ENDBRANCH  55  60
BRANCH  58  62
HETATM   62  N   UNK N   1      25.171  19.986   4.423  0.00  0.00    -0.325 N 
HETATM   63  C   UNK N   1      24.490  18.790   4.291  0.00  0.00     0.245 C 
HETATM   64  O   UNK N   1      25.079  17.721   4.167  0.00  0.00    -0.271 OA
HETATM   65  H   UNK N   1      24.719  20.828   4.185  0.00  0.00     0.169 HD
BRANCH  63  66
HETATM   66  C   UNK N   1      23.050  18.742   4.603  0.00  0.00     0.177 C 
BRANCH  66  67
HETATM   67  N   UNK N   1      22.760  17.484   5.290  0.00  0.00    -0.344 N 
HETATM   68  C   UNK N   1      21.852  17.316   6.292  0.00  0.00     0.255 C 
HETATM   69  O   UNK N   1      21.367  18.281   6.860  0.00  0.00    -0.268 OA
HETATM   70  H   UNK N   1      23.265  16.689   5.003  0.00  0.00     0.163 HD
BRANCH  68  71
HETATM   71  C   UNK N   1      21.441  15.951   6.694  0.00  0.00     0.067 A 
HETATM   72  C   UNK N   1      21.447  15.605   8.052  0.00  0.00     0.049 A 
HETATM   73  C   UNK N   1      21.146  14.298   8.457  0.00  0.00     0.035 A 
HETATM   74  C   UNK N   1      20.734  13.368   7.504  0.00  0.00     0.032 A 
HETATM   75  C   UNK N   1      20.701  13.699   6.156  0.00  0.00     0.040 A 
HETATM   76  C   UNK N   1      21.106  14.973   5.730  0.00  0.00     0.084 A 
BRANCH  73  77
HETATM   77  N   UNK N   1      21.512  13.773   9.725  0.00  0.00    -0.325 N 
HETATM   78  C   UNK N   1      22.660  13.183  10.166  0.00  0.00     0.244 C 
HETATM   79  O   UNK N   1      22.616  12.606  11.239  0.00  0.00    -0.271 OA
HETATM   80  H   UNK N   1      20.810  13.850  10.410  0.00  0.00     0.169 HD
BRANCH  78  81
HETATM   81  C   UNK N   1      23.984  13.161   9.441  0.00  0.00     0.167 C 
BRANCH  81  82
HETATM   82  C   UNK N   1      24.134  12.085   8.375  0.00  0.00     0.034 C 
BRANCH  82  83
HETATM   83  C   UNK N   1      24.215  12.736   6.990  0.00  0.00     0.004 C 
BRANCH  83  84
HETATM   84  C   UNK N   1      25.423  13.655   6.858  0.00  0.00     0.019 C 
BRANCH  84  85
HETATM   85  C   UNK N   1      24.991  14.997   6.293  0.00  0.00     0.111 C 
BRANCH  85  86
HETATM   86  N   UNK N   1      25.904  16.034   6.740  0.00  0.00    -0.430 N 
HETATM   87  H   UNK N   1      26.620  16.427   6.129  0.00  0.00     0.149 HD
HETATM   88  H   UNK N   1      25.826  16.381   7.697  0.00  0.00     0.149 HD
ENDBRANCH  85  86
ENDBRANCH  84  85
ENDBRANCH  83  84
ENDBRANCH  82  83
ENDBRANCH  81  82
BRANCH  81  89
HETATM   89  N   UNK N   1      25.181  13.439  10.218  0.00  0.00    -0.418 N 
HETATM   90  H   UNK N   1      25.578  12.848  10.948  0.00  0.00     0.150 HD
HETATM   91  H   UNK N   1      25.670  14.310  10.013  0.00  0.00     0.150 HD
ENDBRANCH  81  89
ENDBRANCH  78  81
ENDBRANCH  73  77
BRANCH  76  92
HETATM   92  O   UNK N   1      21.160  15.273   4.412  0.00  0.00    -0.355 OA
HETATM   93  C   UNK N   1      21.275  14.311   3.437  0.00  0.00     0.210 C 
ENDBRANCH  76  92
ENDBRANCH  68  71
ENDBRANCH  66  67
BRANCH  66  94
HETATM   94  C   UNK N   1      22.255  19.012   3.358  0.00  0.00     0.035 C 
BRANCH  94  95
HETATM   95  C   UNK N   1      21.038  19.825   3.710  0.00  0.00     0.004 C 
BRANCH  95  96
HETATM   96  C   UNK N   1      19.923  19.459   2.757  0.00  0.00     0.019 C 
BRANCH  96  97
HETATM   97  C   UNK N   1      19.779  17.948   2.678  0.00  0.00     0.111 C 
BRANCH  97  98
HETATM   98  N   UNK N   1      19.220  17.567   1.392  0.00  0.00    -0.430 N 
HETATM   99  H   UNK N   1      18.975  17.571   0.401  0.00  0.00     0.149 HD
HETATM  100  H   UNK N   1      18.746  16.707   1.670  0.00  0.00     0.149 HD
ENDBRANCH  97  98
ENDBRANCH  96  97
ENDBRANCH  95  96
ENDBRANCH  94  95
ENDBRANCH  66  94
ENDBRANCH  63  66
ENDBRANCH  58  62
ENDBRANCH   1  54
TORSDOF 40
ENDMDL
MODEL 3
REMARK VINA RESULT:      -7.7      2.497     12.997
REMARK WARNING: 32 MAX_TORS EXCEEDED!!!
REMARK  40 active torsions:
REMARK  status: ('A' for Active; 'I' for Inactive)
REMARK    1  A    between atoms: O_2  and  C_3 
REMARK    2  A    between atoms: C_6  and  N_72 
REMARK    3  A    between atoms: C_8  and  C_9 
REMARK       I    between atoms: C_9  and  N_11 
REMARK    4  A    between atoms: C_12  and  N_11 
REMARK    5  A    between atoms: C_12  and  C_13 
REMARK    6  A    between atoms: C_12  and  C_18 
REMARK    7  A    between atoms: C_13  and  C_14 
REMARK    8  A    between atoms: C_14  and  C_15 
REMARK    9  A    between atoms: C_15  and  C_16 
REMARK   10  A    between atoms: C_16  and  N_17 
REMARK       I    between atoms: C_18  and  N_20 
REMARK   11  A    between atoms: N_20  and  C_21 
REMARK   12  A    between atoms: C_24  and  O_70 
REMARK   13  A    between atoms: C_25  and  C_27 
REMARK       I    between atoms: C_27  and  N_29 
REMARK   14  A    between atoms: C_30  and  N_29 
REMARK   15  A    between atoms: C_30  and  C_31 
REMARK   16  A    between atoms: C_30  and  C_36 
REMARK   17  A    between atoms: C_31  and  C_32 
REMARK   18  A    between atoms: C_32  and  C_33 
REMARK   19  A    between atoms: C_33  and  C_34 
REMARK   20  A    between atoms: C_34  and  N_35 
REMARK       I    between atoms: C_36  and  N_38 
REMARK   21  A    between atoms: N_38  and  C_39 
REMARK   22  A    between atoms: C_42  and  O_68 
REMARK   23  A    between atoms: C_43  and  C_45 
REMARK       I    between atoms: C_45  and  N_47 
REMARK   24  A    between atoms: C_48  and  N_47 
REMARK   25  A    between atoms: C_48  and  C_49 
REMARK   26  A    between atoms: C_48  and  C_54 
REMARK   27  A    between atoms: C_49  and  C_50 
REMARK   28  A    between atoms: C_50  and  C_51 
REMARK   29  A    between atoms: C_51  and  C_52 
REMARK   30  A    between atoms: C_52  and  N_53 
REMARK       I    between atoms: C_54  and  N_56 
REMARK   31  A    between atoms: N_56  and  C_57 
REMARK   32  A    between atoms: C_60  and  O_66 
REMARK   33  A    between atoms: C_61  and  C_63 
REMARK       I    between atoms: C_63  and  N_65 
REMARK       I    between atoms: N_72  and  C_73 
REMARK   34  A    between atoms: C_73  and  C_75 
REMARK   35  A    between atoms: C_75  and  C_76 
REMARK   36  A    between atoms: C_75  and  N_81 
REMARK   37  A    between atoms: C_76  and  C_77 
REMARK   38  A    between atoms: C_77  and  C_78 
REMARK   39  A    between atoms: C_78  and  C_79 
REMARK   40  A    between atoms: C_79  and  N_80 
ROOT
HETATM    1  C   UNK N   1      26.814  16.357   3.405  0.00  0.00     0.255 C 
HETATM    2  O   UNK N   1      26.863  15.847   2.274  0.00  0.00    -0.268 OA
HETATM    3  N   UNK N   1      27.220  15.651   4.465  0.00  0.00    -0.344 N 
HETATM    4  H   UNK N   1      26.881  15.836   5.371  0.00  0.00     0.163 HD
ENDROOT
BRANCH   3   5
HETATM    5  C   UNK N   1      28.162  14.622   4.218  0.00  0.00     0.177 C 
BRANCH   5   6
HETATM    6  C   UNK N   1      27.527  13.239   4.193  0.00  0.00     0.035 C 
BRANCH   6   7
HETATM    7  C   UNK N   1      28.485  12.170   4.715  0.00  0.00     0.004 C 
BRANCH   7   8
HETATM    8  C   UNK N   1      28.449  10.903   3.864  0.00  0.00     0.019 C 
BRANCH   8   9
HETATM    9  C   UNK N   1      29.627  10.000   4.174  0.00  0.00     0.111 C 
BRANCH   9  10
HETATM   10  N   UNK N   1      29.795   9.908   5.613  0.00  0.00    -0.430 N 
HETATM   11  H   UNK N   1      29.925   9.356   6.460  0.00  0.00     0.149 HD
HETATM   12  H   UNK N   1      29.772  10.875   5.937  0.00  0.00     0.149 HD
ENDBRANCH   9  10
ENDBRANCH   8   9
ENDBRANCH   7   8
ENDBRANCH   6   7
ENDBRANCH   5   6
BRANCH   5  13
HETATM   13  C   UNK N   1      29.226  14.986   5.216  0.00  0.00     0.241 C 
HETATM   14  O   UNK N   1      28.875  15.401   6.306  0.00  0.00    -0.271 OA
HETATM   15  N   UNK N   1      30.508  14.541   5.059  0.00  0.00    -0.348 N 
HETATM   16  H   UNK N   1      30.965  14.179   5.852  0.00  0.00     0.163 HD
BRANCH  15  17
HETATM   17  C   UNK N   1      31.240  14.561   3.826  0.00  0.00     0.132 C 
HETATM   18  C   UNK N   1      31.573  13.255   3.494  0.00  0.00     0.005 C 
HETATM   19  C   UNK N   1      32.408  12.626   4.429  0.00  0.00     0.036 C 
HETATM   20  C   UNK N   1      33.113  13.447   5.360  0.00  0.00     0.083 C 
HETATM   21  C   UNK N   1      33.195  14.875   5.080  0.00  0.00     0.063 C 
HETATM   22  C   UNK N   1      32.383  15.323   4.023  0.00  0.00     0.022 C 
BRANCH  20  23
HETATM   23  O   UNK N   1      33.624  12.892   6.482  0.00  0.00    -0.355 OA
HETATM   24  C   UNK N   1      33.379  11.588   6.857  0.00  0.00     0.210 C 
ENDBRANCH  20  23
BRANCH  21  25
HETATM   25  C   UNK N   1      33.860  15.974   5.882  0.00  0.00     0.254 C 
HETATM   26  O   UNK N   1      34.986  16.313   5.568  0.00  0.00    -0.268 OA
HETATM   27  N   UNK N   1      33.315  16.604   6.936  0.00  0.00    -0.344 N 
HETATM   28  H   UNK N   1      33.786  17.391   7.297  0.00  0.00     0.163 HD
BRANCH  27  29
HETATM   29  C   UNK N   1      32.107  16.212   7.563  0.00  0.00     0.177 C 
BRANCH  29  30
HETATM   30  C   UNK N   1      31.216  17.416   7.873  0.00  0.00     0.035 C 
BRANCH  30  31
HETATM   31  C   UNK N   1      30.173  17.161   8.957  0.00  0.00     0.004 C 
BRANCH  31  32
HETATM   32  C   UNK N   1      29.527  18.453   9.423  0.00  0.00     0.019 C 
BRANCH  32  33
HETATM   33  C   UNK N   1      28.132  18.550   8.850  0.00  0.00     0.111 C 
BRANCH  33  34
HETATM   34  N   UNK N   1      27.645  17.220   8.541  0.00  0.00    -0.430 N 
HETATM   35  H   UNK N   1      26.861  16.665   8.196  0.00  0.00     0.149 HD
HETATM   36  H   UNK N   1      28.398  16.568   8.760  0.00  0.00     0.149 HD
ENDBRANCH  33  34
ENDBRANCH  32  33
ENDBRANCH  31  32
ENDBRANCH  30  31
ENDBRANCH  29  30
BRANCH  29  37
HETATM   37  C   UNK N   1      32.377  15.372   8.765  0.00  0.00     0.245 C 
HETATM   38  O   UNK N   1      31.977  14.216   8.847  0.00  0.00    -0.271 OA
HETATM   39  N   UNK N   1      33.189  15.900   9.695  0.00  0.00    -0.325 N 
HETATM   40  H   UNK N   1      32.938  16.753  10.118  0.00  0.00     0.169 HD
BRANCH  39  41
HETATM   41  C   UNK N   1      34.378  15.279  10.080  0.00  0.00     0.035 A 
HETATM   42  C   UNK N   1      35.215  14.759   9.103  0.00  0.00     0.032 A 
HETATM   43  C   UNK N   1      36.289  13.960   9.474  0.00  0.00     0.040 A 
HETATM   44  C   UNK N   1      36.515  13.644  10.829  0.00  0.00     0.084 A 
HETATM   45  C   UNK N   1      35.636  14.149  11.818  0.00  0.00     0.067 A 
HETATM   46  C   UNK N   1      34.578  14.953  11.420  0.00  0.00     0.049 A 
BRANCH  44  47
HETATM   47  O   UNK N   1      37.564  12.866  11.182  0.00  0.00    -0.355 OA
HETATM   48  C   UNK N   1      38.800  12.960  10.585  0.00  0.00     0.210 C 
ENDBRANCH  44  47
BRANCH  45  49
HETATM   49  C   UNK N   1      35.780  13.869  13.269  0.00  0.00     0.252 C 
HETATM   50  O   UNK N   1      34.892  13.275  13.865  0.00  0.00    -0.268 OA
HETATM   51  N   UNK N   1      36.872  14.268  13.949  0.00  0.00    -0.366 N 
HETATM   52  H   UNK N   1      36.990  14.009  14.892  0.00  0.00     0.159 HD
HETATM   53  H   UNK N   1      37.553  14.822  13.503  0.00  0.00     0.159 HD
ENDBRANCH  45  49
ENDBRANCH  39  41
ENDBRANCH  29  37
ENDBRANCH  27  29
ENDBRANCH  21  25
ENDBRANCH  15  17
ENDBRANCH   5  13
ENDBRANCH   3   5
BRANCH   1  54
HETATM   54  C   UNK N   1      26.276  17.685   3.551  0.00  0.00     0.067 C 
HETATM   55  C   UNK N   1      26.984  18.831   3.959  0.00  0.00     0.084 C 
HETATM   56  C   UNK N   1      26.240  20.008   4.222  0.00  0.00     0.040 C 
HETATM   57  C   UNK N   1      24.831  19.950   4.242  0.00  0.00     0.032 C 
HETATM   58  C   UNK N   1      24.183  18.761   3.869  0.00  0.00     0.035 C 
HETATM   59  C   UNK N   1      24.949  17.728   3.434  0.00  0.00     0.049 C 
BRANCH  55  60
HETATM   60  O   UNK N   1      28.330  18.784   4.092  0.00  0.00    -0.355 OA
HETATM   61  C   UNK N   1      28.966  18.696   5.307  0.00  0.00     0.210 C 
ENDBRANCH  55  60
BRANCH  58  62
HETATM   62  N   UNK N   1      23.001  18.371   4.561  0.00  0.00    -0.325 N 
HETATM   63  C   UNK N   1      21.776  18.935   4.257  0.00  0.00     0.245 C 
HETATM   64  O   UNK N   1      21.685  20.032   3.717  0.00  0.00    -0.271 OA
HETATM   65  H   UNK N   1      23.058  17.688   5.269  0.00  0.00     0.169 HD
BRANCH  63  66
HETATM   66  C   UNK N   1      20.566  18.095   4.299  0.00  0.00     0.177 C 
BRANCH  66  67
HETATM   67  N   UNK N   1      20.704  17.126   5.385  0.00  0.00    -0.344 N 
HETATM   68  C   UNK N   1      20.757  17.422   6.714  0.00  0.00     0.255 C 
HETATM   69  O   UNK N   1      20.928  18.572   7.089  0.00  0.00    -0.268 OA
HETATM   70  H   UNK N   1      20.764  16.176   5.135  0.00  0.00     0.163 HD
BRANCH  68  71
HETATM   71  C   UNK N   1      20.596  16.346   7.718  0.00  0.00     0.067 A 
HETATM   72  C   UNK N   1      21.486  15.262   7.710  0.00  0.00     0.049 A 
HETATM   73  C   UNK N   1      21.308  14.187   8.590  0.00  0.00     0.035 A 
HETATM   74  C   UNK N   1      20.300  14.252   9.550  0.00  0.00     0.032 A 
HETATM   75  C   UNK N   1      19.423  15.327   9.587  0.00  0.00     0.040 A 
HETATM   76  C   UNK N   1      19.525  16.357   8.639  0.00  0.00     0.084 A 
BRANCH  73  77
HETATM   77  N   UNK N   1      21.894  12.909   8.383  0.00  0.00    -0.325 N 
HETATM   78  C   UNK N   1      23.181  12.528   8.141  0.00  0.00     0.244 C 
HETATM   79  O   UNK N   1      23.365  11.385   7.762  0.00  0.00    -0.271 OA
HETATM   80  H   UNK N   1      21.254  12.162   8.424  0.00  0.00     0.169 HD
BRANCH  78  81
HETATM   81  C   UNK N   1      24.407  13.399   8.281  0.00  0.00     0.167 C 
BRANCH  81  82
HETATM   82  C   UNK N   1      25.261  13.540   7.030  0.00  0.00     0.034 C 
BRANCH  82  83
HETATM   83  C   UNK N   1      24.380  13.404   5.784  0.00  0.00     0.004 C 
BRANCH  83  84
HETATM   84  C   UNK N   1      23.939  14.757   5.241  0.00  0.00     0.019 C 
BRANCH  84  85
HETATM   85  C   UNK N   1      23.245  14.575   3.903  0.00  0.00     0.111 C 
BRANCH  85  86
HETATM   86  N   UNK N   1      24.202  14.116   2.911  0.00  0.00    -0.430 N 
HETATM   87  H   UNK N   1      23.918  13.832   1.973  0.00  0.00     0.149 HD
HETATM   88  H   UNK N   1      25.190  14.075   3.162  0.00  0.00     0.149 HD
ENDBRANCH  85  86
ENDBRANCH  84  85
ENDBRANCH  83  84
ENDBRANCH  82  83
ENDBRANCH  81  82
BRANCH  81  89
HETATM   89  N   UNK N   1      25.143  13.326   9.532  0.00  0.00    -0.418 N 
HETATM   90  H   UNK N   1      24.962  12.684  10.304  0.00  0.00     0.150 HD
HETATM   91  H   UNK N   1      25.915  13.982   9.650  0.00  0.00     0.150 HD
ENDBRANCH  81  89
ENDBRANCH  78  81
ENDBRANCH  73  77
BRANCH  76  92
HETATM   92  O   UNK N   1      18.620  17.362   8.616  0.00  0.00    -0.355 OA
HETATM   93  C   UNK N   1      17.267  17.140   8.535  0.00  0.00     0.210 C 
ENDBRANCH  76  92
ENDBRANCH  68  71
ENDBRANCH  66  67
BRANCH  66  94
HETATM   94  C   UNK N   1      20.301  17.525   2.935  0.00  0.00     0.035 C 
BRANCH  94  95
HETATM   95  C   UNK N   1      19.965  16.063   3.063  0.00  0.00     0.004 C 
BRANCH  95  96
HETATM   96  C   UNK N   1      20.043  15.429   1.692  0.00  0.00     0.019 C 
BRANCH  96  97
HETATM   97  C   UNK N   1      19.929  16.498   0.617  0.00  0.00     0.111 C 
BRANCH  97  98
HETATM   98  N   UNK N   1      18.607  16.460   0.015  0.00  0.00    -0.430 N 
HETATM   99  H   UNK N   1      17.789  16.704  -0.545  0.00  0.00     0.149 HD
HETATM  100  H   UNK N   1      18.256  15.607   0.449  0.00  0.00     0.149 HD
ENDBRANCH  97  98
ENDBRANCH  96  97
ENDBRANCH  95  96
ENDBRANCH  94  95
ENDBRANCH  66  94
ENDBRANCH  63  66
ENDBRANCH  58  62
ENDBRANCH   1  54
TORSDOF 40
ENDMDL
MODEL 4
REMARK VINA RESULT:      -7.7      3.210      7.818
REMARK WARNING: 32 MAX_TORS EXCEEDED!!!
REMARK  40 active torsions:
REMARK  status: ('A' for Active; 'I' for Inactive)
REMARK    1  A    between atoms: O_2  and  C_3 
REMARK    2  A    between atoms: C_6  and  N_72 
REMARK    3  A    between atoms: C_8  and  C_9 
REMARK       I    between atoms: C_9  and  N_11 
REMARK    4  A    between atoms: C_12  and  N_11 
REMARK    5  A    between atoms: C_12  and  C_13 
REMARK    6  A    between atoms: C_12  and  C_18 
REMARK    7  A    between atoms: C_13  and  C_14 
REMARK    8  A    between atoms: C_14  and  C_15 
REMARK    9  A    between atoms: C_15  and  C_16 
REMARK   10  A    between atoms: C_16  and  N_17 
REMARK       I    between atoms: C_18  and  N_20 
REMARK   11  A    between atoms: N_20  and  C_21 
REMARK   12  A    between atoms: C_24  and  O_70 
REMARK   13  A    between atoms: C_25  and  C_27 
REMARK       I    between atoms: C_27  and  N_29 
REMARK   14  A    between atoms: C_30  and  N_29 
REMARK   15  A    between atoms: C_30  and  C_31 
REMARK   16  A    between atoms: C_30  and  C_36 
REMARK   17  A    between atoms: C_31  and  C_32 
REMARK   18  A    between atoms: C_32  and  C_33 
REMARK   19  A    between atoms: C_33  and  C_34 
REMARK   20  A    between atoms: C_34  and  N_35 
REMARK       I    between atoms: C_36  and  N_38 
REMARK   21  A    between atoms: N_38  and  C_39 
REMARK   22  A    between atoms: C_42  and  O_68 
REMARK   23  A    between atoms: C_43  and  C_45 
REMARK       I    between atoms: C_45  and  N_47 
REMARK   24  A    between atoms: C_48  and  N_47 
REMARK   25  A    between atoms: C_48  and  C_49 
REMARK   26  A    between atoms: C_48  and  C_54 
REMARK   27  A    between atoms: C_49  and  C_50 
REMARK   28  A    between atoms: C_50  and  C_51 
REMARK   29  A    between atoms: C_51  and  C_52 
REMARK   30  A    between atoms: C_52  and  N_53 
REMARK       I    between atoms: C_54  and  N_56 
REMARK   31  A    between atoms: N_56  and  C_57 
REMARK   32  A    between atoms: C_60  and  O_66 
REMARK   33  A    between atoms: C_61  and  C_63 
REMARK       I    between atoms: C_63  and  N_65 
REMARK       I    between atoms: N_72  and  C_73 
REMARK   34  A    between atoms: C_73  and  C_75 
REMARK   35  A    between atoms: C_75  and  C_76 
REMARK   36  A    between atoms: C_75  and  N_81 
REMARK   37  A    between atoms: C_76  and  C_77 
REMARK   38  A    between atoms: C_77  and  C_78 
REMARK   39  A    between atoms: C_78  and  C_79 
REMARK   40  A    between atoms: C_79  and  N_80 
ROOT
HETATM    1  C   UNK N   1      21.438  17.985   5.724  0.00  0.00     0.255 C 
HETATM    2  O   UNK N   1      21.125  18.424   6.841  0.00  0.00    -0.268 OA
HETATM    3  N   UNK N   1      21.218  16.699   5.435  0.00  0.00    -0.344 N 
HETATM    4  H   UNK N   1      21.747  16.222   4.755  0.00  0.00     0.163 HD
ENDROOT
BRANCH   3   5
HETATM    5  C   UNK N   1      20.183  16.055   6.158  0.00  0.00     0.177 C 
BRANCH   5   6
HETATM    6  C   UNK N   1      20.701  14.940   7.055  0.00  0.00     0.035 C 
BRANCH   6   7
HETATM    7  C   UNK N   1      20.519  15.276   8.533  0.00  0.00     0.004 C 
BRANCH   7   8
HETATM    8  C   UNK N   1      21.414  14.424   9.430  0.00  0.00     0.019 C 
BRANCH   8   9
HETATM    9  C   UNK N   1      20.610  13.372  10.168  0.00  0.00     0.111 C 
BRANCH   9  10
HETATM   10  N   UNK N   1      21.512  12.376  10.717  0.00  0.00    -0.430 N 
HETATM   11  H   UNK N   1      22.442  11.966  10.797  0.00  0.00     0.149 HD
HETATM   12  H   UNK N   1      20.924  11.801  11.320  0.00  0.00     0.149 HD
ENDBRANCH   9  10
ENDBRANCH   8   9
ENDBRANCH   7   8
ENDBRANCH   6   7
ENDBRANCH   5   6
BRANCH   5  13
HETATM   13  C   UNK N   1      19.205  15.788   5.048  0.00  0.00     0.241 C 
HETATM   14  O   UNK N   1      18.020  15.739   5.326  0.00  0.00    -0.271 OA
HETATM   15  N   UNK N   1      19.573  15.948   3.742  0.00  0.00    -0.348 N 
HETATM   16  H   UNK N   1      18.947  16.420   3.148  0.00  0.00     0.163 HD
BRANCH  15  17
HETATM   17  C   UNK N   1      20.802  15.480   3.171  0.00  0.00     0.132 C 
HETATM   18  C   UNK N   1      20.836  15.859   1.837  0.00  0.00     0.005 C 
HETATM   19  C   UNK N   1      19.811  15.299   1.059  0.00  0.00     0.036 C 
HETATM   20  C   UNK N   1      19.118  14.164   1.579  0.00  0.00     0.083 C 
HETATM   21  C   UNK N   1      19.722  13.454   2.700  0.00  0.00     0.063 C 
HETATM   22  C   UNK N   1      20.825  14.097   3.288  0.00  0.00     0.022 C 
BRANCH  20  23
HETATM   23  O   UNK N   1      17.917  13.824   1.060  0.00  0.00    -0.355 OA
HETATM   24  C   UNK N   1      17.750  12.798   0.154  0.00  0.00     0.210 C 
ENDBRANCH  20  23
BRANCH  21  25
HETATM   25  C   UNK N   1      19.217  12.240   3.450  0.00  0.00     0.254 C 
HETATM   26  O   UNK N   1      18.183  12.346   4.085  0.00  0.00    -0.268 OA
HETATM   27  N   UNK N   1      19.827  11.043   3.492  0.00  0.00    -0.344 N 
HETATM   28  H   UNK N   1      19.339  10.292   3.902  0.00  0.00     0.163 HD
BRANCH  27  29
HETATM   29  C   UNK N   1      21.124  10.792   2.984  0.00  0.00     0.177 C 
BRANCH  29  30
HETATM   30  C   UNK N   1      21.081   9.902   1.742  0.00  0.00     0.035 C 
BRANCH  30  31
HETATM   31  C   UNK N   1      21.954  10.391   0.589  0.00  0.00     0.004 C 
BRANCH  31  32
HETATM   32  C   UNK N   1      22.000  11.906   0.529  0.00  0.00     0.019 C 
BRANCH  32  33
HETATM   33  C   UNK N   1      23.430  12.357   0.347  0.00  0.00     0.111 C 
BRANCH  33  34
HETATM   34  N   UNK N   1      23.486  13.805   0.367  0.00  0.00    -0.430 N 
HETATM   35  H   UNK N   1      23.094  14.673  -0.000  0.00  0.00     0.149 HD
HETATM   36  H   UNK N   1      24.224  14.066   1.022  0.00  0.00     0.149 HD
ENDBRANCH  33  34
ENDBRANCH  32  33
ENDBRANCH  31  32
ENDBRANCH  30  31
ENDBRANCH  29  30
BRANCH  29  37
HETATM   37  C   UNK N   1      22.017  10.249   4.049  0.00  0.00     0.245 C 
HETATM   38  O   UNK N   1      22.978   9.535   3.782  0.00  0.00    -0.271 OA
HETATM   39  N   UNK N   1      21.794  10.686   5.298  0.00  0.00    -0.325 N 
HETATM   40  H   UNK N   1      20.910  10.536   5.705  0.00  0.00     0.169 HD
BRANCH  39  41
HETATM   41  C   UNK N   1      22.776  11.347   6.039  0.00  0.00     0.035 A 
HETATM   42  C   UNK N   1      23.167  10.820   7.262  0.00  0.00     0.032 A 
HETATM   43  C   UNK N   1      23.983  11.568   8.101  0.00  0.00     0.040 A 
HETATM   44  C   UNK N   1      24.387  12.869   7.738  0.00  0.00     0.084 A 
HETATM   45  C   UNK N   1      23.955  13.414   6.504  0.00  0.00     0.067 A 
HETATM   46  C   UNK N   1      23.149  12.641   5.681  0.00  0.00     0.049 A 
BRANCH  44  47
HETATM   47  O   UNK N   1      25.182  13.590   8.560  0.00  0.00    -0.355 OA
HETATM   48  C   UNK N   1      25.232  13.388   9.921  0.00  0.00     0.210 C 
ENDBRANCH  44  47
BRANCH  45  49
HETATM   49  C   UNK N   1      24.316  14.775   6.033  0.00  0.00     0.252 C 
HETATM   50  O   UNK N   1      23.804  15.223   5.016  0.00  0.00    -0.268 OA
HETATM   51  N   UNK N   1      25.211  15.527   6.702  0.00  0.00    -0.366 N 
HETATM   52  H   UNK N   1      25.383  16.456   6.424  0.00  0.00     0.159 HD
HETATM   53  H   UNK N   1      25.695  15.147   7.471  0.00  0.00     0.159 HD
ENDBRANCH  45  49
ENDBRANCH  39  41
ENDBRANCH  29  37
ENDBRANCH  27  29
ENDBRANCH  21  25
ENDBRANCH  15  17
ENDBRANCH   5  13
ENDBRANCH   3   5
BRANCH   1  54
HETATM   54  C   UNK N   1      22.075  18.866   4.779  0.00  0.00     0.067 C 
HETATM   55  C   UNK N   1      21.435  19.616   3.774  0.00  0.00     0.084 C 
HETATM   56  C   UNK N   1      22.250  20.280   2.825  0.00  0.00     0.040 C 
HETATM   57  C   UNK N   1      23.638  20.029   2.803  0.00  0.00     0.032 C 
HETATM   58  C   UNK N   1      24.211  19.232   3.808  0.00  0.00     0.035 C 
HETATM   59  C   UNK N   1      23.406  18.789   4.807  0.00  0.00     0.049 C 
BRANCH  55  60
HETATM   60  O   UNK N   1      20.084  19.683   3.737  0.00  0.00    -0.355 OA
HETATM   61  C   UNK N   1      19.334  19.223   2.681  0.00  0.00     0.210 C 
ENDBRANCH  55  60
BRANCH  58  62
HETATM   62  N   UNK N   1      25.273  18.347   3.467  0.00  0.00    -0.325 N 
HETATM   63  C   UNK N   1      26.518  18.462   4.057  0.00  0.00     0.245 C 
HETATM   64  O   UNK N   1      26.902  19.514   4.556  0.00  0.00    -0.271 OA
HETATM   65  H   UNK N   1      25.118  17.641   2.798  0.00  0.00     0.169 HD
BRANCH  63  66
HETATM   66  C   UNK N   1      27.283  17.242   4.368  0.00  0.00     0.177 C 
BRANCH  66  67
HETATM   67  N   UNK N   1      28.408  17.600   5.231  0.00  0.00    -0.344 N 
HETATM   68  C   UNK N   1      28.996  16.784   6.151  0.00  0.00     0.255 C 
HETATM   69  O   UNK N   1      28.460  15.740   6.490  0.00  0.00    -0.268 OA
HETATM   70  H   UNK N   1      28.772  18.510   5.140  0.00  0.00     0.163 HD
BRANCH  68  71
HETATM   71  C   UNK N   1      30.301  17.158   6.742  0.00  0.00     0.067 A 
HETATM   72  C   UNK N   1      31.473  16.960   5.998  0.00  0.00     0.049 A 
HETATM   73  C   UNK N   1      32.728  17.223   6.560  0.00  0.00     0.035 A 
HETATM   74  C   UNK N   1      32.800  17.786   7.833  0.00  0.00     0.032 A 
HETATM   75  C   UNK N   1      31.649  18.010   8.576  0.00  0.00     0.040 A 
HETATM   76  C   UNK N   1      30.394  17.648   8.064  0.00  0.00     0.084 A 
BRANCH  73  77
HETATM   77  N   UNK N   1      33.939  16.685   6.046  0.00  0.00    -0.325 N 
HETATM   78  C   UNK N   1      34.623  15.543   6.343  0.00  0.00     0.244 C 
HETATM   79  O   UNK N   1      35.762  15.447   5.921  0.00  0.00    -0.271 OA
HETATM   80  H   UNK N   1      34.359  17.237   5.349  0.00  0.00     0.169 HD
BRANCH  78  81
HETATM   81  C   UNK N   1      34.107  14.385   7.164  0.00  0.00     0.167 C 
BRANCH  81  82
HETATM   82  C   UNK N   1      35.162  13.591   7.921  0.00  0.00     0.034 C 
BRANCH  82  83
HETATM   83  C   UNK N   1      34.956  13.764   9.429  0.00  0.00     0.004 C 
BRANCH  83  84
HETATM   84  C   UNK N   1      35.935  12.928  10.242  0.00  0.00     0.019 C 
BRANCH  84  85
HETATM   85  C   UNK N   1      36.784  13.832  11.118  0.00  0.00     0.111 C 
BRANCH  85  86
HETATM   86  N   UNK N   1      38.174  13.418  11.053  0.00  0.00    -0.430 N 
HETATM   87  H   UNK N   1      38.824  13.804  10.369  0.00  0.00     0.149 HD
HETATM   88  H   UNK N   1      38.511  12.716  11.713  0.00  0.00     0.149 HD
ENDBRANCH  85  86
ENDBRANCH  84  85
ENDBRANCH  83  84
ENDBRANCH  82  83
ENDBRANCH  81  82
BRANCH  81  89
HETATM   89  N   UNK N   1      33.018  13.600   6.607  0.00  0.00    -0.418 N 
HETATM   90  H   UNK N   1      32.128  13.959   6.262  0.00  0.00     0.150 HD
HETATM   91  H   UNK N   1      33.157  12.591   6.557  0.00  0.00     0.150 HD
ENDBRANCH  81  89
ENDBRANCH  78  81
ENDBRANCH  73  77
BRANCH  76  92
HETATM   92  O   UNK N   1      29.278  17.782   8.818  0.00  0.00    -0.355 OA
HETATM   93  C   UNK N   1      29.138  17.186  10.048  0.00  0.00     0.210 C 
ENDBRANCH  76  92
ENDBRANCH  68  71
ENDBRANCH  66  67
BRANCH  66  94
HETATM   94  C   UNK N   1      27.631  16.526   3.094  0.00  0.00     0.035 C 
BRANCH  94  95
HETATM   95  C   UNK N   1      27.262  15.072   3.223  0.00  0.00     0.004 C 
BRANCH  95  96
HETATM   96  C   UNK N   1      28.515  14.241   3.062  0.00  0.00     0.019 C 
BRANCH  96  97
HETATM   97  C   UNK N   1      28.545  13.136   4.106  0.00  0.00     0.111 C 
BRANCH  97  98
HETATM   98  N   UNK N   1      27.443  13.301   5.039  0.00  0.00    -0.430 N 
HETATM   99  H   UNK N   1      26.772  13.127   5.788  0.00  0.00     0.149 HD
HETATM  100  H   UNK N   1      27.113  14.218   4.738  0.00  0.00     0.149 HD
ENDBRANCH  97  98
ENDBRANCH  96  97
ENDBRANCH  95  96
ENDBRANCH  94  95
ENDBRANCH  66  94
ENDBRANCH  63  66
ENDBRANCH  58  62
ENDBRANCH   1  54
TORSDOF 40
ENDMDL
MODEL 5
REMARK VINA RESULT:      -7.6      3.400      8.093
REMARK WARNING: 32 MAX_TORS EXCEEDED!!!
REMARK  40 active torsions:
REMARK  status: ('A' for Active; 'I' for Inactive)
REMARK    1  A    between atoms: O_2  and  C_3 
REMARK    2  A    between atoms: C_6  and  N_72 
REMARK    3  A    between atoms: C_8  and  C_9 
REMARK       I    between atoms: C_9  and  N_11 
REMARK    4  A    between atoms: C_12  and  N_11 
REMARK    5  A    between atoms: C_12  and  C_13 
REMARK    6  A    between atoms: C_12  and  C_18 
REMARK    7  A    between atoms: C_13  and  C_14 
REMARK    8  A    between atoms: C_14  and  C_15 
REMARK    9  A    between atoms: C_15  and  C_16 
REMARK   10  A    between atoms: C_16  and  N_17 
REMARK       I    between atoms: C_18  and  N_20 
REMARK   11  A    between atoms: N_20  and  C_21 
REMARK   12  A    between atoms: C_24  and  O_70 
REMARK   13  A    between atoms: C_25  and  C_27 
REMARK       I    between atoms: C_27  and  N_29 
REMARK   14  A    between atoms: C_30  and  N_29 
REMARK   15  A    between atoms: C_30  and  C_31 
REMARK   16  A    between atoms: C_30  and  C_36 
REMARK   17  A    between atoms: C_31  and  C_32 
REMARK   18  A    between atoms: C_32  and  C_33 
REMARK   19  A    between atoms: C_33  and  C_34 
REMARK   20  A    between atoms: C_34  and  N_35 
REMARK       I    between atoms: C_36  and  N_38 
REMARK   21  A    between atoms: N_38  and  C_39 
REMARK   22  A    between atoms: C_42  and  O_68 
REMARK   23  A    between atoms: C_43  and  C_45 
REMARK       I    between atoms: C_45  and  N_47 
REMARK   24  A    between atoms: C_48  and  N_47 
REMARK   25  A    between atoms: C_48  and  C_49 
REMARK   26  A    between atoms: C_48  and  C_54 
REMARK   27  A    between atoms: C_49  and  C_50 
REMARK   28  A    between atoms: C_50  and  C_51 
REMARK   29  A    between atoms: C_51  and  C_52 
REMARK   30  A    between atoms: C_52  and  N_53 
REMARK       I    between atoms: C_54  and  N_56 
REMARK   31  A    between atoms: N_56  and  C_57 
REMARK   32  A    between atoms: C_60  and  O_66 
REMARK   33  A    between atoms: C_61  and  C_63 
REMARK       I    between atoms: C_63  and  N_65 
REMARK       I    between atoms: N_72  and  C_73 
REMARK   34  A    between atoms: C_73  and  C_75 
REMARK   35  A    between atoms: C_75  and  C_76 
REMARK   36  A    between atoms: C_75  and  N_81 
REMARK   37  A    between atoms: C_76  and  C_77 
REMARK   38  A    between atoms: C_77  and  C_78 
REMARK   39  A    between atoms: C_78  and  C_79 
REMARK   40  A    between atoms: C_79  and  N_80 
ROOT
HETATM    1  C   UNK N   1      21.318  17.551   4.657  0.00  0.00     0.255 C 
HETATM    2  O   UNK N   1      20.154  17.749   4.275  0.00  0.00    -0.268 OA
HETATM    3  N   UNK N   1      21.592  16.479   5.407  0.00  0.00    -0.344 N 
HETATM    4  H   UNK N   1      22.362  16.459   6.019  0.00  0.00     0.163 HD
ENDROOT
BRANCH   3   5
HETATM    5  C   UNK N   1      20.718  15.373   5.275  0.00  0.00     0.177 C 
BRANCH   5   6
HETATM    6  C   UNK N   1      20.056  14.988   6.591  0.00  0.00     0.035 C 
BRANCH   6   7
HETATM    7  C   UNK N   1      20.706  15.698   7.777  0.00  0.00     0.004 C 
BRANCH   7   8
HETATM    8  C   UNK N   1      19.675  16.163   8.802  0.00  0.00     0.019 C 
BRANCH   8   9
HETATM    9  C   UNK N   1      19.554  17.674   8.811  0.00  0.00     0.111 C 
BRANCH   9  10
HETATM   10  N   UNK N   1      18.278  18.050   9.392  0.00  0.00    -0.430 N 
HETATM   11  H   UNK N   1      17.393  18.554   9.346  0.00  0.00     0.149 HD
HETATM   12  H   UNK N   1      18.256  17.574  10.294  0.00  0.00     0.149 HD
ENDBRANCH   9  10
ENDBRANCH   8   9
ENDBRANCH   7   8
ENDBRANCH   6   7
ENDBRANCH   5   6
BRANCH   5  13
HETATM   13  C   UNK N   1      21.603  14.416   4.526  0.00  0.00     0.241 C 
HETATM   14  O   UNK N   1      22.377  13.727   5.166  0.00  0.00    -0.271 OA
HETATM   15  N   UNK N   1      21.314  14.065   3.237  0.00  0.00    -0.348 N 
HETATM   16  H   UNK N   1      21.378  13.112   3.000  0.00  0.00     0.163 HD
BRANCH  15  17
HETATM   17  C   UNK N   1      20.927  14.980   2.203  0.00  0.00     0.132 C 
HETATM   18  C   UNK N   1      19.663  14.623   1.756  0.00  0.00     0.005 C 
HETATM   19  C   UNK N   1      19.602  13.344   1.183  0.00  0.00     0.036 C 
HETATM   20  C   UNK N   1      20.826  12.731   0.777  0.00  0.00     0.083 C 
HETATM   21  C   UNK N   1      22.005  13.580   0.665  0.00  0.00     0.063 C 
HETATM   22  C   UNK N   1      21.856  14.880   1.177  0.00  0.00     0.022 C 
BRANCH  20  23
HETATM   23  O   UNK N   1      20.863  11.396   0.569  0.00  0.00    -0.355 OA
HETATM   24  C   UNK N   1      20.999  10.477   1.587  0.00  0.00     0.210 C 
ENDBRANCH  20  23
BRANCH  21  25
HETATM   25  C   UNK N   1      23.419  13.209   0.271  0.00  0.00     0.254 C 
HETATM   26  O   UNK N   1      23.608  12.777  -0.852  0.00  0.00    -0.268 OA
HETATM   27  N   UNK N   1      24.497  13.299   1.069  0.00  0.00    -0.344 N 
HETATM   28  H   UNK N   1      25.384  13.155   0.664  0.00  0.00     0.163 HD
BRANCH  27  29
HETATM   29  C   UNK N   1      24.442  13.588   2.454  0.00  0.00     0.177 C 
BRANCH  29  30
HETATM   30  C   UNK N   1      24.891  15.019   2.750  0.00  0.00     0.035 C 
BRANCH  30  31
HETATM   31  C   UNK N   1      25.953  15.553   1.793  0.00  0.00     0.004 C 
BRANCH  31  32
HETATM   32  C   UNK N   1      27.320  15.601   2.449  0.00  0.00     0.019 C 
BRANCH  32  33
HETATM   33  C   UNK N   1      28.165  14.462   1.930  0.00  0.00     0.111 C 
BRANCH  33  34
HETATM   34  N   UNK N   1      28.613  13.647   3.043  0.00  0.00    -0.430 N 
HETATM   35  H   UNK N   1      28.379  13.264   3.959  0.00  0.00     0.149 HD
HETATM   36  H   UNK N   1      29.552  13.322   2.815  0.00  0.00     0.149 HD
ENDBRANCH  33  34
ENDBRANCH  32  33
ENDBRANCH  31  32
ENDBRANCH  30  31
ENDBRANCH  29  30
BRANCH  29  37
HETATM   37  C   UNK N   1      25.200  12.573   3.241  0.00  0.00     0.245 C 
HETATM   38  O   UNK N   1      25.835  12.879   4.245  0.00  0.00    -0.271 OA
HETATM   39  N   UNK N   1      25.048  11.292   2.872  0.00  0.00    -0.325 N 
HETATM   40  H   UNK N   1      25.286  11.029   1.954  0.00  0.00     0.169 HD
BRANCH  39  41
HETATM   41  C   UNK N   1      24.561  10.320   3.748  0.00  0.00     0.035 A 
HETATM   42  C   UNK N   1      25.266   9.135   3.900  0.00  0.00     0.032 A 
HETATM   43  C   UNK N   1      24.694   8.081   4.602  0.00  0.00     0.040 A 
HETATM   44  C   UNK N   1      23.390   8.193   5.129  0.00  0.00     0.084 A 
HETATM   45  C   UNK N   1      22.663   9.393   4.940  0.00  0.00     0.067 A 
HETATM   46  C   UNK N   1      23.263  10.433   4.244  0.00  0.00     0.049 A 
BRANCH  44  47
HETATM   47  O   UNK N   1      22.840   7.163   5.811  0.00  0.00    -0.355 OA
HETATM   48  C   UNK N   1      23.217   6.827   7.091  0.00  0.00     0.210 C 
ENDBRANCH  44  47
BRANCH  45  49
HETATM   49  C   UNK N   1      21.284   9.609   5.445  0.00  0.00     0.252 C 
HETATM   50  O   UNK N   1      21.003  10.652   6.020  0.00  0.00    -0.268 OA
HETATM   51  N   UNK N   1      20.333   8.668   5.292  0.00  0.00    -0.366 N 
HETATM   52  H   UNK N   1      19.405   8.855   5.562  0.00  0.00     0.159 HD
HETATM   53  H   UNK N   1      20.566   7.791   4.910  0.00  0.00     0.159 HD
ENDBRANCH  45  49
ENDBRANCH  39  41
ENDBRANCH  29  37
ENDBRANCH  27  29
ENDBRANCH  21  25
ENDBRANCH  15  17
ENDBRANCH   5  13
ENDBRANCH   3   5
BRANCH   1  54
HETATM   54  C   UNK N   1      22.339  18.510   4.319  0.00  0.00     0.067 C 
HETATM   55  C   UNK N   1      22.298  19.432   3.257  0.00  0.00     0.084 C 
HETATM   56  C   UNK N   1      23.477  20.165   2.972  0.00  0.00     0.040 C 
HETATM   57  C   UNK N   1      24.680  19.827   3.626  0.00  0.00     0.032 C 
HETATM   58  C   UNK N   1      24.664  18.863   4.647  0.00  0.00     0.035 C 
HETATM   59  C   UNK N   1      23.465  18.340   5.012  0.00  0.00     0.049 C 
BRANCH  55  60
HETATM   60  O   UNK N   1      21.159  19.594   2.544  0.00  0.00    -0.355 OA
HETATM   61  C   UNK N   1      21.021  20.524   1.541  0.00  0.00     0.210 C 
ENDBRANCH  55  60
BRANCH  58  62
HETATM   62  N   UNK N   1      25.762  17.964   4.766  0.00  0.00    -0.325 N 
HETATM   63  C   UNK N   1      26.844  18.260   5.574  0.00  0.00     0.245 C 
HETATM   64  O   UNK N   1      27.122  19.413   5.886  0.00  0.00    -0.271 OA
HETATM   65  H   UNK N   1      25.751  17.117   4.264  0.00  0.00     0.169 HD
BRANCH  63  66
HETATM   66  C   UNK N   1      27.502  17.175   6.324  0.00  0.00     0.177 C 
BRANCH  66  67
HETATM   67  N   UNK N   1      28.943  17.246   6.086  0.00  0.00    -0.344 N 
HETATM   68  C   UNK N   1      29.882  17.626   6.997  0.00  0.00     0.255 C 
HETATM   69  O   UNK N   1      29.553  18.171   8.040  0.00  0.00    -0.268 OA
HETATM   70  H   UNK N   1      29.263  16.999   5.188  0.00  0.00     0.163 HD
BRANCH  68  71
HETATM   71  C   UNK N   1      31.316  17.371   6.730  0.00  0.00     0.067 A 
HETATM   72  C   UNK N   1      32.210  17.288   7.806  0.00  0.00     0.049 A 
HETATM   73  C   UNK N   1      33.584  17.134   7.582  0.00  0.00     0.035 A 
HETATM   74  C   UNK N   1      34.046  16.955   6.279  0.00  0.00     0.032 A 
HETATM   75  C   UNK N   1      33.173  17.013   5.202  0.00  0.00     0.040 A 
HETATM   76  C   UNK N   1      31.809  17.277   5.410  0.00  0.00     0.084 A 
BRANCH  73  77
HETATM   77  N   UNK N   1      34.570  17.439   8.559  0.00  0.00    -0.325 N 
HETATM   78  C   UNK N   1      34.939  16.802   9.707  0.00  0.00     0.244 C 
HETATM   79  O   UNK N   1      35.651  17.414  10.483  0.00  0.00    -0.271 OA
HETATM   80  H   UNK N   1      35.081  18.259   8.371  0.00  0.00     0.169 HD
BRANCH  78  81
HETATM   81  C   UNK N   1      34.532  15.407  10.120  0.00  0.00     0.167 C 
BRANCH  81  82
HETATM   82  C   UNK N   1      35.024  14.284   9.219  0.00  0.00     0.034 C 
BRANCH  82  83
HETATM   83  C   UNK N   1      33.827  13.550   8.606  0.00  0.00     0.004 C 
BRANCH  83  84
HETATM   84  C   UNK N   1      33.959  13.395   7.097  0.00  0.00     0.019 C 
BRANCH  84  85
HETATM   85  C   UNK N   1      32.595  13.523   6.443  0.00  0.00     0.111 C 
BRANCH  85  86
HETATM   86  N   UNK N   1      32.732  13.449   4.999  0.00  0.00    -0.430 N 
HETATM   87  H   UNK N   1      32.778  14.283   4.414  0.00  0.00     0.149 HD
HETATM   88  H   UNK N   1      32.785  12.531   4.555  0.00  0.00     0.149 HD
ENDBRANCH  85  86
ENDBRANCH  84  85
ENDBRANCH  83  84
ENDBRANCH  82  83
ENDBRANCH  81  82
BRANCH  81  89
HETATM   89  N   UNK N   1      33.195  15.230  10.662  0.00  0.00    -0.418 N 
HETATM   90  H   UNK N   1      32.952  15.105  11.644  0.00  0.00     0.150 HD
HETATM   91  H   UNK N   1      32.424  15.230   9.994  0.00  0.00     0.150 HD
ENDBRANCH  81  89
ENDBRANCH  78  81
ENDBRANCH  73  77
BRANCH  76  92
HETATM   92  O   UNK N   1      30.970  17.421   4.358  0.00  0.00    -0.355 OA
HETATM   93  C   UNK N   1      31.043  16.631   3.237  0.00  0.00     0.210 C 
ENDBRANCH  76  92
ENDBRANCH  68  71
ENDBRANCH  66  67
BRANCH  66  94
HETATM   94  C   UNK N   1      26.844  15.866   5.998  0.00  0.00     0.035 C 
BRANCH  94  95
HETATM   95  C   UNK N   1      26.310  15.248   7.262  0.00  0.00     0.004 C 
BRANCH  95  96
HETATM   96  C   UNK N   1      24.972  14.611   6.960  0.00  0.00     0.019 C 
BRANCH  96  97
HETATM   97  C   UNK N   1      24.773  13.378   7.827  0.00  0.00     0.111 C 
BRANCH  97  98
HETATM   98  N   UNK N   1      24.206  12.299   7.037  0.00  0.00    -0.430 N 
HETATM   99  H   UNK N   1      23.914  11.369   6.734  0.00  0.00     0.149 HD
HETATM  100  H   UNK N   1      23.872  12.841   6.240  0.00  0.00     0.149 HD
ENDBRANCH  97  98
ENDBRANCH  96  97
ENDBRANCH  95  96
ENDBRANCH  94  95
ENDBRANCH  66  94
ENDBRANCH  63  66
ENDBRANCH  58  62
ENDBRANCH   1  54
TORSDOF 40
ENDMDL
MODEL 6
REMARK VINA RESULT:      -7.6      2.159      5.512
REMARK WARNING: 32 MAX_TORS EXCEEDED!!!
REMARK  40 active torsions:
REMARK  status: ('A' for Active; 'I' for Inactive)
REMARK    1  A    between atoms: O_2  and  C_3 
REMARK    2  A    between atoms: C_6  and  N_72 
REMARK    3  A    between atoms: C_8  and  C_9 
REMARK       I    between atoms: C_9  and  N_11 
REMARK    4  A    between atoms: C_12  and  N_11 
REMARK    5  A    between atoms: C_12  and  C_13 
REMARK    6  A    between atoms: C_12  and  C_18 
REMARK    7  A    between atoms: C_13  and  C_14 
REMARK    8  A    between atoms: C_14  and  C_15 
REMARK    9  A    between atoms: C_15  and  C_16 
REMARK   10  A    between atoms: C_16  and  N_17 
REMARK       I    between atoms: C_18  and  N_20 
REMARK   11  A    between atoms: N_20  and  C_21 
REMARK   12  A    between atoms: C_24  and  O_70 
REMARK   13  A    between atoms: C_25  and  C_27 
REMARK       I    between atoms: C_27  and  N_29 
REMARK   14  A    between atoms: C_30  and  N_29 
REMARK   15  A    between atoms: C_30  and  C_31 
REMARK   16  A    between atoms: C_30  and  C_36 
REMARK   17  A    between atoms: C_31  and  C_32 
REMARK   18  A    between atoms: C_32  and  C_33 
REMARK   19  A    between atoms: C_33  and  C_34 
REMARK   20  A    between atoms: C_34  and  N_35 
REMARK       I    between atoms: C_36  and  N_38 
REMARK   21  A    between atoms: N_38  and  C_39 
REMARK   22  A    between atoms: C_42  and  O_68 
REMARK   23  A    between atoms: C_43  and  C_45 
REMARK       I    between atoms: C_45  and  N_47 
REMARK   24  A    between atoms: C_48  and  N_47 
REMARK   25  A    between atoms: C_48  and  C_49 
REMARK   26  A    between atoms: C_48  and  C_54 
REMARK   27  A    between atoms: C_49  and  C_50 
REMARK   28  A    between atoms: C_50  and  C_51 
REMARK   29  A    between atoms: C_51  and  C_52 
REMARK   30  A    between atoms: C_52  and  N_53 
REMARK       I    between atoms: C_54  and  N_56 
REMARK   31  A    between atoms: N_56  and  C_57 
REMARK   32  A    between atoms: C_60  and  O_66 
REMARK   33  A    between atoms: C_61  and  C_63 
REMARK       I    between atoms: C_63  and  N_65 
REMARK       I    between atoms: N_72  and  C_73 
REMARK   34  A    between atoms: C_73  and  C_75 
REMARK   35  A    between atoms: C_75  and  C_76 
REMARK   36  A    between atoms: C_75  and  N_81 
REMARK   37  A    between atoms: C_76  and  C_77 
REMARK   38  A    between atoms: C_77  and  C_78 
REMARK   39  A    between atoms: C_78  and  C_79 
REMARK   40  A    between atoms: C_79  and  N_80 
ROOT
HETATM    1  C   UNK N   1      27.331  16.536   5.481  0.00  0.00     0.255 C 
HETATM    2  O   UNK N   1      27.116  17.441   6.302  0.00  0.00    -0.268 OA
HETATM    3  N   UNK N   1      26.427  15.564   5.319  0.00  0.00    -0.344 N 
HETATM    4  H   UNK N   1      26.680  14.673   4.986  0.00  0.00     0.163 HD
ENDROOT
BRANCH   3   5
HETATM    5  C   UNK N   1      25.088  15.882   5.652  0.00  0.00     0.177 C 
BRANCH   5   6
HETATM    6  C   UNK N   1      24.593  15.126   6.878  0.00  0.00     0.035 C 
BRANCH   6   7
HETATM    7  C   UNK N   1      23.688  13.958   6.491  0.00  0.00     0.004 C 
BRANCH   7   8
HETATM    8  C   UNK N   1      22.339  14.018   7.204  0.00  0.00     0.019 C 
BRANCH   8   9
HETATM    9  C   UNK N   1      22.009  12.696   7.867  0.00  0.00     0.111 C 
BRANCH   9  10
HETATM   10  N   UNK N   1      23.174  11.830   7.817  0.00  0.00    -0.430 N 
HETATM   11  H   UNK N   1      24.172  11.690   7.663  0.00  0.00     0.149 HD
HETATM   12  H   UNK N   1      22.817  10.905   8.054  0.00  0.00     0.149 HD
ENDBRANCH   9  10
ENDBRANCH   8   9
ENDBRANCH   7   8
ENDBRANCH   6   7
ENDBRANCH   5   6
BRANCH   5  13
HETATM   13  C   UNK N   1      24.431  15.726   4.309  0.00  0.00     0.241 C 
HETATM   14  O   UNK N   1      24.659  14.714   3.671  0.00  0.00    -0.271 OA
HETATM   15  N   UNK N   1      23.355  16.496   3.967  0.00  0.00    -0.348 N 
HETATM   16  H   UNK N   1      22.591  16.046   3.540  0.00  0.00     0.163 HD
BRANCH  15  17
HETATM   17  C   UNK N   1      23.255  17.910   4.183  0.00  0.00     0.132 C 
HETATM   18  C   UNK N   1      23.106  18.134   5.545  0.00  0.00     0.005 C 
HETATM   19  C   UNK N   1      21.940  17.576   6.090  0.00  0.00     0.036 C 
HETATM   20  C   UNK N   1      20.893  17.203   5.195  0.00  0.00     0.083 C 
HETATM   21  C   UNK N   1      20.945  17.722   3.834  0.00  0.00     0.063 C 
HETATM   22  C   UNK N   1      22.145  18.368   3.488  0.00  0.00     0.022 C 
BRANCH  20  23
HETATM   23  O   UNK N   1      19.933  16.349   5.615  0.00  0.00    -0.355 OA
HETATM   24  C   UNK N   1      19.532  16.253   6.931  0.00  0.00     0.210 C 
ENDBRANCH  20  23
BRANCH  21  25
HETATM   25  C   UNK N   1      19.990  17.490   2.682  0.00  0.00     0.254 C 
HETATM   26  O   UNK N   1      19.169  18.355   2.434  0.00  0.00    -0.268 OA
HETATM   27  N   UNK N   1      19.958  16.392   1.909  0.00  0.00    -0.344 N 
HETATM   28  H   UNK N   1      19.384  16.408   1.109  0.00  0.00     0.163 HD
BRANCH  27  29
HETATM   29  C   UNK N   1      20.696  15.211   2.170  0.00  0.00     0.177 C 
BRANCH  29  30
HETATM   30  C   UNK N   1      21.321  14.645   0.895  0.00  0.00     0.035 C 
BRANCH  30  31
HETATM   31  C   UNK N   1      22.633  13.897   1.118  0.00  0.00     0.004 C 
BRANCH  31  32
HETATM   32  C   UNK N   1      23.047  13.118  -0.116  0.00  0.00     0.019 C 
BRANCH  32  33
HETATM   33  C   UNK N   1      24.074  12.079   0.269  0.00  0.00     0.111 C 
BRANCH  33  34
HETATM   34  N   UNK N   1      24.881  12.582   1.364  0.00  0.00    -0.430 N 
HETATM   35  H   UNK N   1      25.094  13.382   1.960  0.00  0.00     0.149 HD
HETATM   36  H   UNK N   1      25.489  11.819   1.661  0.00  0.00     0.149 HD
ENDBRANCH  33  34
ENDBRANCH  32  33
ENDBRANCH  31  32
ENDBRANCH  30  31
ENDBRANCH  29  30
BRANCH  29  37
HETATM   37  C   UNK N   1      19.862  14.210   2.895  0.00  0.00     0.245 C 
HETATM   38  O   UNK N   1      18.862  13.713   2.386  0.00  0.00    -0.271 OA
HETATM   39  N   UNK N   1      20.331  13.783   4.078  0.00  0.00    -0.325 N 
HETATM   40  H   UNK N   1      20.491  14.442   4.793  0.00  0.00     0.169 HD
BRANCH  39  41
HETATM   41  C   UNK N   1      20.598  12.436   4.328  0.00  0.00     0.035 A 
HETATM   42  C   UNK N   1      19.680  11.689   5.052  0.00  0.00     0.032 A 
HETATM   43  C   UNK N   1      20.023  10.415   5.486  0.00  0.00     0.040 A 
HETATM   44  C   UNK N   1      21.306   9.889   5.229  0.00  0.00     0.084 A 
HETATM   45  C   UNK N   1      22.250  10.671   4.520  0.00  0.00     0.067 A 
HETATM   46  C   UNK N   1      21.878  11.937   4.090  0.00  0.00     0.049 A 
BRANCH  44  47
HETATM   47  O   UNK N   1      21.631   8.647   5.654  0.00  0.00    -0.355 OA
HETATM   48  C   UNK N   1      21.298   7.507   4.960  0.00  0.00     0.210 C 
ENDBRANCH  44  47
BRANCH  45  49
HETATM   49  C   UNK N   1      23.628  10.216   4.207  0.00  0.00     0.252 C 
HETATM   50  O   UNK N   1      23.990  10.127   3.042  0.00  0.00    -0.268 OA
HETATM   51  N   UNK N   1      24.490   9.884   5.187  0.00  0.00    -0.366 N 
HETATM   52  H   UNK N   1      25.423   9.659   4.970  0.00  0.00     0.159 HD
HETATM   53  H   UNK N   1      24.186   9.867   6.123  0.00  0.00     0.159 HD
ENDBRANCH  45  49
ENDBRANCH  39  41
ENDBRANCH  29  37
ENDBRANCH  27  29
ENDBRANCH  21  25
ENDBRANCH  15  17
ENDBRANCH   5  13
ENDBRANCH   3   5
BRANCH   1  54
HETATM   54  C   UNK N   1      28.573  16.532   4.753  0.00  0.00     0.067 C 
HETATM   55  C   UNK N   1      28.841  15.832   3.561  0.00  0.00     0.084 C 
HETATM   56  C   UNK N   1      30.179  15.804   3.097  0.00  0.00     0.040 C 
HETATM   57  C   UNK N   1      31.210  16.311   3.915  0.00  0.00     0.032 C 
HETATM   58  C   UNK N   1      30.881  16.959   5.118  0.00  0.00     0.035 C 
HETATM   59  C   UNK N   1      29.567  17.131   5.410  0.00  0.00     0.049 C 
BRANCH  55  60
HETATM   60  O   UNK N   1      27.835  15.211   2.902  0.00  0.00    -0.355 OA
HETATM   61  C   UNK N   1      28.010  14.064   2.164  0.00  0.00     0.210 C 
ENDBRANCH  55  60
BRANCH  58  62
HETATM   62  N   UNK N   1      31.721  16.776   6.252  0.00  0.00    -0.325 N 
HETATM   63  C   UNK N   1      32.908  17.474   6.384  0.00  0.00     0.245 C 
HETATM   64  O   UNK N   1      33.494  17.941   5.413  0.00  0.00    -0.271 OA
HETATM   65  H   UNK N   1      31.453  16.141   6.956  0.00  0.00     0.169 HD
BRANCH  63  66
HETATM   66  C   UNK N   1      33.330  17.933   7.719  0.00  0.00     0.177 C 
BRANCH  66  67
HETATM   67  N   UNK N   1      33.871  16.793   8.458  0.00  0.00    -0.344 N 
HETATM   68  C   UNK N   1      34.789  16.860   9.463  0.00  0.00     0.255 C 
HETATM   69  O   UNK N   1      35.415  17.889   9.667  0.00  0.00    -0.268 OA
HETATM   70  H   UNK N   1      33.543  15.899   8.209  0.00  0.00     0.163 HD
BRANCH  68  71
HETATM   71  C   UNK N   1      35.029  15.680  10.324  0.00  0.00     0.067 A 
HETATM   72  C   UNK N   1      35.512  15.868  11.626  0.00  0.00     0.049 A 
HETATM   73  C   UNK N   1      35.831  14.769  12.435  0.00  0.00     0.035 A 
HETATM   74  C   UNK N   1      35.561  13.482  11.972  0.00  0.00     0.032 A 
HETATM   75  C   UNK N   1      35.062  13.277  10.693  0.00  0.00     0.040 A 
HETATM   76  C   UNK N   1      34.843  14.367   9.835  0.00  0.00     0.084 A 
BRANCH  73  77
HETATM   77  N   UNK N   1      36.678  14.859  13.571  0.00  0.00    -0.325 N 
HETATM   78  C   UNK N   1      36.719  14.144  14.732  0.00  0.00     0.244 C 
HETATM   79  O   UNK N   1      37.395  14.592  15.642  0.00  0.00    -0.271 OA
HETATM   80  H   UNK N   1      37.360  15.566  13.509  0.00  0.00     0.169 HD
BRANCH  78  81
HETATM   81  C   UNK N   1      35.990  12.850  15.006  0.00  0.00     0.167 C 
BRANCH  81  82
HETATM   82  C   UNK N   1      34.719  12.973  15.833  0.00  0.00     0.034 C 
BRANCH  82  83
HETATM   83  C   UNK N   1      34.924  12.307  17.198  0.00  0.00     0.004 C 
BRANCH  83  84
HETATM   84  C   UNK N   1      35.254  13.319  18.287  0.00  0.00     0.019 C 
BRANCH  84  85
HETATM   85  C   UNK N   1      35.265  12.634  19.642  0.00  0.00     0.111 C 
BRANCH  85  86
HETATM   86  N   UNK N   1      35.360  11.195  19.465  0.00  0.00    -0.430 N 
HETATM   87  H   UNK N   1      35.318  10.548  20.252  0.00  0.00     0.149 HD
HETATM   88  H   UNK N   1      35.472  10.821  18.522  0.00  0.00     0.149 HD
ENDBRANCH  85  86
ENDBRANCH  84  85
ENDBRANCH  83  84
ENDBRANCH  82  83
ENDBRANCH  81  82
BRANCH  81  89
HETATM   89  N   UNK N   1      36.794  11.669  15.271  0.00  0.00    -0.418 N 
HETATM   90  H   UNK N   1      36.444  10.731  15.470  0.00  0.00     0.150 HD
HETATM   91  H   UNK N   1      37.806  11.789  15.258  0.00  0.00     0.150 HD
ENDBRANCH  81  89
ENDBRANCH  78  81
ENDBRANCH  73  77
BRANCH  76  92
HETATM   92  O   UNK N   1      34.440  14.168   8.559  0.00  0.00    -0.355 OA
HETATM   93  C   UNK N   1      35.203  13.491   7.638  0.00  0.00     0.210 C 
ENDBRANCH  76  92
ENDBRANCH  68  71
ENDBRANCH  66  67
BRANCH  66  94
HETATM   94  C   UNK N   1      32.201  18.672   8.379  0.00  0.00     0.035 C 
BRANCH  94  95
HETATM   95  C   UNK N   1      31.179  17.683   8.873  0.00  0.00     0.004 C 
BRANCH  95  96
HETATM   96  C   UNK N   1      30.004  18.447   9.439  0.00  0.00     0.019 C 
BRANCH  96  97
HETATM   97  C   UNK N   1      28.771  17.558   9.470  0.00  0.00     0.111 C 
BRANCH  97  98
HETATM   98  N   UNK N   1      27.594  18.324   9.096  0.00  0.00    -0.430 N 
HETATM   99  H   UNK N   1      26.624  18.626   8.999  0.00  0.00     0.149 HD
HETATM  100  H   UNK N   1      28.048  19.070   8.569  0.00  0.00     0.149 HD
ENDBRANCH  97  98
ENDBRANCH  96  97
ENDBRANCH  95  96
ENDBRANCH  94  95
ENDBRANCH  66  94
ENDBRANCH  63  66
ENDBRANCH  58  62
ENDBRANCH   1  54
TORSDOF 40
ENDMDL
MODEL 7
REMARK VINA RESULT:      -7.6      4.265      8.456
REMARK WARNING: 32 MAX_TORS EXCEEDED!!!
REMARK  40 active torsions:
REMARK  status: ('A' for Active; 'I' for Inactive)
REMARK    1  A    between atoms: O_2  and  C_3 
REMARK    2  A    between atoms: C_6  and  N_72 
REMARK    3  A    between atoms: C_8  and  C_9 
REMARK       I    between atoms: C_9  and  N_11 
REMARK    4  A    between atoms: C_12  and  N_11 
REMARK    5  A    between atoms: C_12  and  C_13 
REMARK    6  A    between atoms: C_12  and  C_18 
REMARK    7  A    between atoms: C_13  and  C_14 
REMARK    8  A    between atoms: C_14  and  C_15 
REMARK    9  A    between atoms: C_15  and  C_16 
REMARK   10  A    between atoms: C_16  and  N_17 
REMARK       I    between atoms: C_18  and  N_20 
REMARK   11  A    between atoms: N_20  and  C_21 
REMARK   12  A    between atoms: C_24  and  O_70 
REMARK   13  A    between atoms: C_25  and  C_27 
REMARK       I    between atoms: C_27  and  N_29 
REMARK   14  A    between atoms: C_30  and  N_29 
REMARK   15  A    between atoms: C_30  and  C_31 
REMARK   16  A    between atoms: C_30  and  C_36 
REMARK   17  A    between atoms: C_31  and  C_32 
REMARK   18  A    between atoms: C_32  and  C_33 
REMARK   19  A    between atoms: C_33  and  C_34 
REMARK   20  A    between atoms: C_34  and  N_35 
REMARK       I    between atoms: C_36  and  N_38 
REMARK   21  A    between atoms: N_38  and  C_39 
REMARK   22  A    between atoms: C_42  and  O_68 
REMARK   23  A    between atoms: C_43  and  C_45 
REMARK       I    between atoms: C_45  and  N_47 
REMARK   24  A    between atoms: C_48  and  N_47 
REMARK   25  A    between atoms: C_48  and  C_49 
REMARK   26  A    between atoms: C_48  and  C_54 
REMARK   27  A    between atoms: C_49  and  C_50 
REMARK   28  A    between atoms: C_50  and  C_51 
REMARK   29  A    between atoms: C_51  and  C_52 
REMARK   30  A    between atoms: C_52  and  N_53 
REMARK       I    between atoms: C_54  and  N_56 
REMARK   31  A    between atoms: N_56  and  C_57 
REMARK   32  A    between atoms: C_60  and  O_66 
REMARK   33  A    between atoms: C_61  and  C_63 
REMARK       I    between atoms: C_63  and  N_65 
REMARK       I    between atoms: N_72  and  C_73 
REMARK   34  A    between atoms: C_73  and  C_75 
REMARK   35  A    between atoms: C_75  and  C_76 
REMARK   36  A    between atoms: C_75  and  N_81 
REMARK   37  A    between atoms: C_76  and  C_77 
REMARK   38  A    between atoms: C_77  and  C_78 
REMARK   39  A    between atoms: C_78  and  C_79 
REMARK   40  A    between atoms: C_79  and  N_80 
ROOT
HETATM    1  C   UNK N   1      21.470  17.766   5.773  0.00  0.00     0.255 C 
HETATM    2  O   UNK N   1      21.243  18.134   6.936  0.00  0.00    -0.268 OA
HETATM    3  N   UNK N   1      21.139  16.527   5.397  0.00  0.00    -0.344 N 
HETATM    4  H   UNK N   1      21.599  16.069   4.657  0.00  0.00     0.163 HD
ENDROOT
BRANCH   3   5
HETATM    5  C   UNK N   1      20.092  15.904   6.119  0.00  0.00     0.177 C 
BRANCH   5   6
HETATM    6  C   UNK N   1      20.590  14.799   7.041  0.00  0.00     0.035 C 
BRANCH   6   7
HETATM    7  C   UNK N   1      20.383  15.156   8.511  0.00  0.00     0.004 C 
BRANCH   7   8
HETATM    8  C   UNK N   1      21.318  14.372   9.429  0.00  0.00     0.019 C 
BRANCH   8   9
HETATM    9  C   UNK N   1      20.565  13.302  10.194  0.00  0.00     0.111 C 
BRANCH   9  10
HETATM   10  N   UNK N   1      21.515  12.438  10.872  0.00  0.00    -0.430 N 
HETATM   11  H   UNK N   1      22.012  11.552  10.952  0.00  0.00     0.149 HD
HETATM   12  H   UNK N   1      21.850  12.993  11.660  0.00  0.00     0.149 HD
ENDBRANCH   9  10
ENDBRANCH   8   9
ENDBRANCH   7   8
ENDBRANCH   6   7
ENDBRANCH   5   6
BRANCH   5  13
HETATM   13  C   UNK N   1      19.123  15.626   5.004  0.00  0.00     0.241 C 
HETATM   14  O   UNK N   1      17.941  15.520   5.282  0.00  0.00    -0.271 OA
HETATM   15  N   UNK N   1      19.481  15.837   3.702  0.00  0.00    -0.348 N 
HETATM   16  H   UNK N   1      18.834  16.298   3.122  0.00  0.00     0.163 HD
BRANCH  15  17
HETATM   17  C   UNK N   1      20.727  15.436   3.118  0.00  0.00     0.132 C 
HETATM   18  C   UNK N   1      20.715  15.792   1.776  0.00  0.00     0.005 C 
HETATM   19  C   UNK N   1      19.714  15.156   1.027  0.00  0.00     0.036 C 
HETATM   20  C   UNK N   1      19.103  13.989   1.578  0.00  0.00     0.083 C 
HETATM   21  C   UNK N   1      19.769  13.339   2.700  0.00  0.00     0.063 C 
HETATM   22  C   UNK N   1      20.839  14.060   3.258  0.00  0.00     0.022 C 
BRANCH  20  23
HETATM   23  O   UNK N   1      17.917  13.565   1.086  0.00  0.00    -0.355 OA
HETATM   24  C   UNK N   1      17.436  13.942  -0.149  0.00  0.00     0.210 C 
ENDBRANCH  20  23
BRANCH  21  25
HETATM   25  C   UNK N   1      19.354  12.109   3.480  0.00  0.00     0.254 C 
HETATM   26  O   UNK N   1      18.310  12.151   4.106  0.00  0.00    -0.268 OA
HETATM   27  N   UNK N   1      20.054  10.965   3.557  0.00  0.00    -0.344 N 
HETATM   28  H   UNK N   1      19.623  10.189   3.984  0.00  0.00     0.163 HD
BRANCH  27  29
HETATM   29  C   UNK N   1      21.372  10.802   3.063  0.00  0.00     0.177 C 
BRANCH  29  30
HETATM   30  C   UNK N   1      21.389  10.006   1.758  0.00  0.00     0.035 C 
BRANCH  30  31
HETATM   31  C   UNK N   1      21.809  10.817   0.535  0.00  0.00     0.004 C 
BRANCH  31  32
HETATM   32  C   UNK N   1      22.941  11.772   0.862  0.00  0.00     0.019 C 
BRANCH  32  33
HETATM   33  C   UNK N   1      22.717  13.079   0.138  0.00  0.00     0.111 C 
BRANCH  33  34
HETATM   34  N   UNK N   1      23.678  14.060   0.604  0.00  0.00    -0.430 N 
HETATM   35  H   UNK N   1      24.202  14.906   0.378  0.00  0.00     0.149 HD
HETATM   36  H   UNK N   1      23.938  13.794   1.554  0.00  0.00     0.149 HD
ENDBRANCH  33  34
ENDBRANCH  32  33
ENDBRANCH  31  32
ENDBRANCH  30  31
ENDBRANCH  29  30
BRANCH  29  37
HETATM   37  C   UNK N   1      22.263  10.217   4.106  0.00  0.00     0.245 C 
HETATM   38  O   UNK N   1      23.287   9.608   3.812  0.00  0.00    -0.271 OA
HETATM   39  N   UNK N   1      21.958  10.499   5.383  0.00  0.00    -0.325 N 
HETATM   40  H   UNK N   1      21.074  10.241   5.730  0.00  0.00     0.169 HD
BRANCH  39  41
HETATM   41  C   UNK N   1      22.856  11.148   6.233  0.00  0.00     0.035 A 
HETATM   42  C   UNK N   1      23.148  10.581   7.465  0.00  0.00     0.032 A 
HETATM   43  C   UNK N   1      23.870  11.309   8.401  0.00  0.00     0.040 A 
HETATM   44  C   UNK N   1      24.276  12.632   8.126  0.00  0.00     0.084 A 
HETATM   45  C   UNK N   1      23.943  13.216   6.880  0.00  0.00     0.067 A 
HETATM   46  C   UNK N   1      23.230  12.462   5.959  0.00  0.00     0.049 A 
BRANCH  44  47
HETATM   47  O   UNK N   1      24.979  13.334   9.043  0.00  0.00    -0.355 OA
HETATM   48  C   UNK N   1      25.106  12.937  10.354  0.00  0.00     0.210 C 
ENDBRANCH  44  47
BRANCH  45  49
HETATM   49  C   UNK N   1      24.314  14.602   6.495  0.00  0.00     0.252 C 
HETATM   50  O   UNK N   1      23.763  15.138   5.544  0.00  0.00    -0.268 OA
HETATM   51  N   UNK N   1      25.262  15.280   7.170  0.00  0.00    -0.366 N 
HETATM   52  H   UNK N   1      25.443  16.224   6.954  0.00  0.00     0.159 HD
HETATM   53  H   UNK N   1      25.775  14.832   7.881  0.00  0.00     0.159 HD
ENDBRANCH  45  49
ENDBRANCH  39  41
ENDBRANCH  29  37
ENDBRANCH  27  29
ENDBRANCH  21  25
ENDBRANCH  15  17
ENDBRANCH   5  13
ENDBRANCH   3   5
BRANCH   1  54
HETATM   54  C   UNK N   1      22.130  18.672   4.869  0.00  0.00     0.067 C 
HETATM   55  C   UNK N   1      21.515  19.450   3.871  0.00  0.00     0.084 C 
HETATM   56  C   UNK N   1      22.353  20.139   2.959  0.00  0.00     0.040 C 
HETATM   57  C   UNK N   1      23.740  19.887   2.963  0.00  0.00     0.032 C 
HETATM   58  C   UNK N   1      24.289  19.061   3.959  0.00  0.00     0.035 C 
HETATM   59  C   UNK N   1      23.460  18.591   4.926  0.00  0.00     0.049 C 
BRANCH  55  60
HETATM   60  O   UNK N   1      20.165  19.520   3.804  0.00  0.00    -0.355 OA
HETATM   61  C   UNK N   1      19.448  19.209   2.672  0.00  0.00     0.210 C 
ENDBRANCH  55  60
BRANCH  58  62
HETATM   62  N   UNK N   1      25.358  18.184   3.618  0.00  0.00    -0.325 N 
HETATM   63  C   UNK N   1      26.361  17.894   4.523  0.00  0.00     0.245 C 
HETATM   64  O   UNK N   1      26.624  18.641   5.458  0.00  0.00    -0.271 OA
HETATM   65  H   UNK N   1      25.382  17.777   2.721  0.00  0.00     0.169 HD
BRANCH  63  66
HETATM   66  C   UNK N   1      26.929  16.534   4.559  0.00  0.00     0.177 C 
BRANCH  66  67
HETATM   67  N   UNK N   1      28.085  16.531   5.453  0.00  0.00    -0.344 N 
HETATM   68  C   UNK N   1      29.280  17.139   5.210  0.00  0.00     0.255 C 
HETATM   69  O   UNK N   1      29.555  17.548   4.093  0.00  0.00    -0.268 OA
HETATM   70  H   UNK N   1      27.993  16.047   6.305  0.00  0.00     0.163 HD
BRANCH  68  71
HETATM   71  C   UNK N   1      30.256  17.315   6.311  0.00  0.00     0.067 A 
HETATM   72  C   UNK N   1      31.617  17.087   6.064  0.00  0.00     0.049 A 
HETATM   73  C   UNK N   1      32.553  17.161   7.104  0.00  0.00     0.035 A 
HETATM   74  C   UNK N   1      32.134  17.571   8.369  0.00  0.00     0.032 A 
HETATM   75  C   UNK N   1      30.794  17.823   8.626  0.00  0.00     0.040 A 
HETATM   76  C   UNK N   1      29.833  17.644   7.618  0.00  0.00     0.084 A 
BRANCH  73  77
HETATM   77  N   UNK N   1      33.842  16.568   7.033  0.00  0.00    -0.325 N 
HETATM   78  C   UNK N   1      34.255  15.276   7.182  0.00  0.00     0.244 C 
HETATM   79  O   UNK N   1      35.452  15.084   7.311  0.00  0.00    -0.271 OA
HETATM   80  H   UNK N   1      34.567  17.204   6.843  0.00  0.00     0.169 HD
BRANCH  78  81
HETATM   81  C   UNK N   1      33.366  14.056   7.217  0.00  0.00     0.167 C 
BRANCH  81  82
HETATM   82  C   UNK N   1      33.074  13.415   5.868  0.00  0.00     0.034 C 
BRANCH  82  83
HETATM   83  C   UNK N   1      31.624  13.703   5.462  0.00  0.00     0.004 C 
BRANCH  83  84
HETATM   84  C   UNK N   1      31.375  13.424   3.986  0.00  0.00     0.019 C 
BRANCH  84  85
HETATM   85  C   UNK N   1      31.396  14.725   3.203  0.00  0.00     0.111 C 
BRANCH  85  86
HETATM   86  N   UNK N   1      32.718  14.940   2.642  0.00  0.00    -0.430 N 
HETATM   87  H   UNK N   1      33.320  14.167   2.359  0.00  0.00     0.149 HD
HETATM   88  H   UNK N   1      33.055  15.896   2.527  0.00  0.00     0.149 HD
ENDBRANCH  85  86
ENDBRANCH  84  85
ENDBRANCH  83  84
ENDBRANCH  82  83
ENDBRANCH  81  82
BRANCH  81  89
HETATM   89  N   UNK N   1      32.259  14.059   8.158  0.00  0.00    -0.418 N 
HETATM   90  H   UNK N   1      32.329  14.075   9.176  0.00  0.00     0.150 HD
HETATM   91  H   UNK N   1      31.319  14.044   7.762  0.00  0.00     0.150 HD
ENDBRANCH  81  89
ENDBRANCH  78  81
ENDBRANCH  73  77
BRANCH  76  92
HETATM   92  O   UNK N   1      28.517  17.803   7.887  0.00  0.00    -0.355 OA
HETATM   93  C   UNK N   1      27.964  17.479   9.102  0.00  0.00     0.210 C 
ENDBRANCH  76  92
ENDBRANCH  68  71
ENDBRANCH  66  67
BRANCH  66  94
HETATM   94  C   UNK N   1      27.177  16.054   3.157  0.00  0.00     0.035 C 
BRANCH  94  95
HETATM   95  C   UNK N   1      27.458  14.575   3.179  0.00  0.00     0.004 C 
BRANCH  95  96
HETATM   96  C   UNK N   1      26.143  13.837   3.278  0.00  0.00     0.019 C 
BRANCH  96  97
HETATM   97  C   UNK N   1      26.266  12.463   2.638  0.00  0.00     0.111 C 
BRANCH  97  98
HETATM   98  N   UNK N   1      25.655  11.458   3.491  0.00  0.00    -0.430 N 
HETATM   99  H   UNK N   1      25.389  10.559   3.892  0.00  0.00     0.149 HD
HETATM  100  H   UNK N   1      25.132  12.073   4.115  0.00  0.00     0.149 HD
ENDBRANCH  97  98
ENDBRANCH  96  97
ENDBRANCH  95  96
ENDBRANCH  94  95
ENDBRANCH  66  94
ENDBRANCH  63  66
ENDBRANCH  58  62
ENDBRANCH   1  54
TORSDOF 40
ENDMDL
MODEL 8
REMARK VINA RESULT:      -7.5      5.384     11.497
REMARK WARNING: 32 MAX_TORS EXCEEDED!!!
REMARK  40 active torsions:
REMARK  status: ('A' for Active; 'I' for Inactive)
REMARK    1  A    between atoms: O_2  and  C_3 
REMARK    2  A    between atoms: C_6  and  N_72 
REMARK    3  A    between atoms: C_8  and  C_9 
REMARK       I    between atoms: C_9  and  N_11 
REMARK    4  A    between atoms: C_12  and  N_11 
REMARK    5  A    between atoms: C_12  and  C_13 
REMARK    6  A    between atoms: C_12  and  C_18 
REMARK    7  A    between atoms: C_13  and  C_14 
REMARK    8  A    between atoms: C_14  and  C_15 
REMARK    9  A    between atoms: C_15  and  C_16 
REMARK   10  A    between atoms: C_16  and  N_17 
REMARK       I    between atoms: C_18  and  N_20 
REMARK   11  A    between atoms: N_20  and  C_21 
REMARK   12  A    between atoms: C_24  and  O_70 
REMARK   13  A    between atoms: C_25  and  C_27 
REMARK       I    between atoms: C_27  and  N_29 
REMARK   14  A    between atoms: C_30  and  N_29 
REMARK   15  A    between atoms: C_30  and  C_31 
REMARK   16  A    between atoms: C_30  and  C_36 
REMARK   17  A    between atoms: C_31  and  C_32 
REMARK   18  A    between atoms: C_32  and  C_33 
REMARK   19  A    between atoms: C_33  and  C_34 
REMARK   20  A    between atoms: C_34  and  N_35 
REMARK       I    between atoms: C_36  and  N_38 
REMARK   21  A    between atoms: N_38  and  C_39 
REMARK   22  A    between atoms: C_42  and  O_68 
REMARK   23  A    between atoms: C_43  and  C_45 
REMARK       I    between atoms: C_45  and  N_47 
REMARK   24  A    between atoms: C_48  and  N_47 
REMARK   25  A    between atoms: C_48  and  C_49 
REMARK   26  A    between atoms: C_48  and  C_54 
REMARK   27  A    between atoms: C_49  and  C_50 
REMARK   28  A    between atoms: C_50  and  C_51 
REMARK   29  A    between atoms: C_51  and  C_52 
REMARK   30  A    between atoms: C_52  and  N_53 
REMARK       I    between atoms: C_54  and  N_56 
REMARK   31  A    between atoms: N_56  and  C_57 
REMARK   32  A    between atoms: C_60  and  O_66 
REMARK   33  A    between atoms: C_61  and  C_63 
REMARK       I    between atoms: C_63  and  N_65 
REMARK       I    between atoms: N_72  and  C_73 
REMARK   34  A    between atoms: C_73  and  C_75 
REMARK   35  A    between atoms: C_75  and  C_76 
REMARK   36  A    between atoms: C_75  and  N_81 
REMARK   37  A    between atoms: C_76  and  C_77 
REMARK   38  A    between atoms: C_77  and  C_78 
REMARK   39  A    between atoms: C_78  and  C_79 
REMARK   40  A    between atoms: C_79  and  N_80 
ROOT
HETATM    1  C   UNK N   1      27.916  17.605   5.331  0.00  0.00     0.255 C 
HETATM    2  O   UNK N   1      27.457  16.775   6.132  0.00  0.00    -0.268 OA
HETATM    3  N   UNK N   1      29.238  17.785   5.254  0.00  0.00    -0.344 N 
HETATM    4  H   UNK N   1      29.628  18.631   4.937  0.00  0.00     0.163 HD
ENDROOT
BRANCH   3   5
HETATM    5  C   UNK N   1      30.051  16.694   5.650  0.00  0.00     0.177 C 
BRANCH   5   6
HETATM    6  C   UNK N   1      31.202  17.118   6.552  0.00  0.00     0.035 C 
BRANCH   6   7
HETATM    7  C   UNK N   1      30.852  16.950   8.029  0.00  0.00     0.004 C 
BRANCH   7   8
HETATM    8  C   UNK N   1      29.944  18.070   8.534  0.00  0.00     0.019 C 
BRANCH   8   9
HETATM    9  C   UNK N   1      28.673  17.513   9.144  0.00  0.00     0.111 C 
BRANCH   9  10
HETATM   10  N   UNK N   1      27.604  18.483   8.993  0.00  0.00    -0.430 N 
HETATM   11  H   UNK N   1      26.742  18.916   9.324  0.00  0.00     0.149 HD
HETATM   12  H   UNK N   1      27.822  18.974   8.126  0.00  0.00     0.149 HD
ENDBRANCH   9  10
ENDBRANCH   8   9
ENDBRANCH   7   8
ENDBRANCH   6   7
ENDBRANCH   5   6
BRANCH   5  13
HETATM   13  C   UNK N   1      30.290  16.037   4.320  0.00  0.00     0.241 C 
HETATM   14  O   UNK N   1      30.513  16.750   3.358  0.00  0.00    -0.271 OA
HETATM   15  N   UNK N   1      30.602  14.709   4.245  0.00  0.00    -0.348 N 
HETATM   16  H   UNK N   1      31.337  14.447   3.646  0.00  0.00     0.163 HD
BRANCH  15  17
HETATM   17  C   UNK N   1      29.939  13.667   4.975  0.00  0.00     0.132 C 
HETATM   18  C   UNK N   1      30.568  12.464   4.687  0.00  0.00     0.005 C 
HETATM   19  C   UNK N   1      30.499  12.094   3.335  0.00  0.00     0.036 C 
HETATM   20  C   UNK N   1      29.521  12.733   2.514  0.00  0.00     0.083 C 
HETATM   21  C   UNK N   1      28.448  13.463   3.178  0.00  0.00     0.063 C 
HETATM   22  C   UNK N   1      28.614  13.638   4.563  0.00  0.00     0.022 C 
BRANCH  20  23
HETATM   23  O   UNK N   1      29.651  12.688   1.170  0.00  0.00    -0.355 OA
HETATM   24  C   UNK N   1      30.744  12.137   0.536  0.00  0.00     0.210 C 
ENDBRANCH  20  23
BRANCH  21  25
HETATM   25  C   UNK N   1      27.295  14.234   2.572  0.00  0.00     0.254 C 
HETATM   26  O   UNK N   1      27.553  15.166   1.831  0.00  0.00    -0.268 OA
HETATM   27  N   UNK N   1      25.993  13.989   2.798  0.00  0.00    -0.344 N 
HETATM   28  H   UNK N   1      25.332  14.469   2.248  0.00  0.00     0.163 HD
BRANCH  27  29
HETATM   29  C   UNK N   1      25.509  13.085   3.775  0.00  0.00     0.177 C 
BRANCH  29  30
HETATM   30  C   UNK N   1      25.229  11.706   3.176  0.00  0.00     0.035 C 
BRANCH  30  31
HETATM   31  C   UNK N   1      24.694  11.740   1.747  0.00  0.00     0.004 C 
BRANCH  31  32
HETATM   32  C   UNK N   1      25.311  10.645   0.896  0.00  0.00     0.019 C 
BRANCH  32  33
HETATM   33  C   UNK N   1      24.256  10.067  -0.018  0.00  0.00     0.111 C 
BRANCH  33  34
HETATM   34  N   UNK N   1      24.452   8.636  -0.136  0.00  0.00    -0.430 N 
HETATM   35  H   UNK N   1      25.131   7.878  -0.213  0.00  0.00     0.149 HD
HETATM   36  H   UNK N   1      23.526   8.208  -0.148  0.00  0.00     0.149 HD
ENDBRANCH  33  34
ENDBRANCH  32  33
ENDBRANCH  31  32
ENDBRANCH  30  31
ENDBRANCH  29  30
BRANCH  29  37
HETATM   37  C   UNK N   1      24.330  13.653   4.489  0.00  0.00     0.245 C 
HETATM   38  O   UNK N   1      23.187  13.279   4.246  0.00  0.00    -0.271 OA
HETATM   39  N   UNK N   1      24.590  14.497   5.500  0.00  0.00    -0.325 N 
HETATM   40  H   UNK N   1      25.106  15.316   5.316  0.00  0.00     0.169 HD
BRANCH  39  41
HETATM   41  C   UNK N   1      24.154  14.252   6.803  0.00  0.00     0.035 A 
HETATM   42  C   UNK N   1      25.015  13.635   7.698  0.00  0.00     0.032 A 
HETATM   43  C   UNK N   1      24.532  13.198   8.925  0.00  0.00     0.040 A 
HETATM   44  C   UNK N   1      23.168  13.342   9.252  0.00  0.00     0.084 A 
HETATM   45  C   UNK N   1      22.287  13.941   8.319  0.00  0.00     0.067 A 
HETATM   46  C   UNK N   1      22.799  14.377   7.106  0.00  0.00     0.049 A 
BRANCH  44  47
HETATM   47  O   UNK N   1      22.705  12.914  10.449  0.00  0.00    -0.355 OA
HETATM   48  C   UNK N   1      23.072  11.711  11.007  0.00  0.00     0.210 C 
ENDBRANCH  44  47
BRANCH  45  49
HETATM   49  C   UNK N   1      20.835  14.131   8.562  0.00  0.00     0.252 C 
HETATM   50  O   UNK N   1      20.057  14.149   7.618  0.00  0.00    -0.268 OA
HETATM   51  N   UNK N   1      20.355  14.297   9.809  0.00  0.00    -0.366 N 
HETATM   52  H   UNK N   1      19.383  14.344   9.963  0.00  0.00     0.159 HD
HETATM   53  H   UNK N   1      20.976  14.372  10.569  0.00  0.00     0.159 HD
ENDBRANCH  45  49
ENDBRANCH  39  41
ENDBRANCH  29  37
ENDBRANCH  27  29
ENDBRANCH  21  25
ENDBRANCH  15  17
ENDBRANCH   5  13
ENDBRANCH   3   5
BRANCH   1  54
HETATM   54  C   UNK N   1      27.006  18.387   4.535  0.00  0.00     0.067 C 
HETATM   55  C   UNK N   1      26.864  19.787   4.564  0.00  0.00     0.084 C 
HETATM   56  C   UNK N   1      25.786  20.357   3.843  0.00  0.00     0.040 C 
HETATM   57  C   UNK N   1      24.804  19.516   3.280  0.00  0.00     0.032 C 
HETATM   58  C   UNK N   1      24.980  18.123   3.325  0.00  0.00     0.035 C 
HETATM   59  C   UNK N   1      26.135  17.643   3.854  0.00  0.00     0.049 C 
BRANCH  55  60
HETATM   60  O   UNK N   1      27.740  20.541   5.268  0.00  0.00    -0.355 OA
HETATM   61  C   UNK N   1      27.402  21.217   6.418  0.00  0.00     0.210 C 
ENDBRANCH  55  60
BRANCH  58  62
HETATM   62  N   UNK N   1      23.844  17.289   3.529  0.00  0.00    -0.325 N 
HETATM   63  C   UNK N   1      22.956  17.528   4.561  0.00  0.00     0.245 C 
HETATM   64  O   UNK N   1      23.282  18.161   5.560  0.00  0.00    -0.271 OA
HETATM   65  H   UNK N   1      23.688  16.527   2.924  0.00  0.00     0.169 HD
BRANCH  63  66
HETATM   66  C   UNK N   1      21.518  17.292   4.344  0.00  0.00     0.177 C 
BRANCH  66  67
HETATM   67  N   UNK N   1      21.309  15.868   4.086  0.00  0.00    -0.344 N 
HETATM   68  C   UNK N   1      20.114  15.217   4.143  0.00  0.00     0.255 C 
HETATM   69  O   UNK N   1      19.139  15.747   4.653  0.00  0.00    -0.268 OA
HETATM   70  H   UNK N   1      22.101  15.333   3.852  0.00  0.00     0.163 HD
BRANCH  68  71
HETATM   71  C   UNK N   1      19.987  13.855   3.574  0.00  0.00     0.067 A 
HETATM   72  C   UNK N   1      19.493  12.819   4.378  0.00  0.00     0.049 A 
HETATM   73  C   UNK N   1      19.443  11.504   3.897  0.00  0.00     0.035 A 
HETATM   74  C   UNK N   1      19.789  11.251   2.570  0.00  0.00     0.032 A 
HETATM   75  C   UNK N   1      20.259  12.269   1.752  0.00  0.00     0.040 A 
HETATM   76  C   UNK N   1      20.417  13.568   2.259  0.00  0.00     0.084 A 
BRANCH  73  77
HETATM   77  N   UNK N   1      19.346  10.369   4.745  0.00  0.00    -0.325 N 
HETATM   78  C   UNK N   1      20.300   9.575   5.312  0.00  0.00     0.244 C 
HETATM   79  O   UNK N   1      19.933   8.521   5.801  0.00  0.00    -0.271 OA
HETATM   80  H   UNK N   1      18.423  10.108   4.964  0.00  0.00     0.169 HD
BRANCH  78  81
HETATM   81  C   UNK N   1      21.779   9.872   5.378  0.00  0.00     0.167 C 
BRANCH  81  82
HETATM   82  C   UNK N   1      22.691   8.658   5.478  0.00  0.00     0.034 C 
BRANCH  82  83
HETATM   83  C   UNK N   1      24.073   9.089   5.980  0.00  0.00     0.004 C 
BRANCH  83  84
HETATM   84  C   UNK N   1      25.106   7.978   5.845  0.00  0.00     0.019 C 
BRANCH  84  85
HETATM   85  C   UNK N   1      26.178   8.387   4.851  0.00  0.00     0.111 C 
BRANCH  85  86
HETATM   86  N   UNK N   1      25.735   8.090   3.500  0.00  0.00    -0.430 N 
HETATM   87  H   UNK N   1      26.238   7.442   2.894  0.00  0.00     0.149 HD
HETATM   88  H   UNK N   1      24.892   8.544   3.146  0.00  0.00     0.149 HD
ENDBRANCH  85  86
ENDBRANCH  84  85
ENDBRANCH  83  84
ENDBRANCH  82  83
ENDBRANCH  81  82
BRANCH  81  89
HETATM   89  N   UNK N   1      22.198  11.031   6.149  0.00  0.00    -0.418 N 
HETATM   90  H   UNK N   1      21.759  11.383   6.999  0.00  0.00     0.150 HD
HETATM   91  H   UNK N   1      23.012  11.541   5.806  0.00  0.00     0.150 HD
ENDBRANCH  81  89
ENDBRANCH  78  81
ENDBRANCH  73  77
BRANCH  76  92
HETATM   92  O   UNK N   1      20.957  14.544   1.492  0.00  0.00    -0.355 OA
HETATM   93  C   UNK N   1      22.224  14.458   0.967  0.00  0.00     0.210 C 
ENDBRANCH  76  92
ENDBRANCH  68  71
ENDBRANCH  66  67
BRANCH  66  94
HETATM   94  C   UNK N   1      21.004  18.235   3.294  0.00  0.00     0.035 C 
BRANCH  94  95
HETATM   95  C   UNK N   1      20.899  19.620   3.876  0.00  0.00     0.004 C 
BRANCH  95  96
HETATM   96  C   UNK N   1      21.164  20.625   2.778  0.00  0.00     0.019 C 
BRANCH  96  97
HETATM   97  C   UNK N   1      20.799  20.030   1.427  0.00  0.00     0.111 C 
BRANCH  97  98
HETATM   98  N   UNK N   1      20.445  21.088   0.496  0.00  0.00    -0.430 N 
HETATM   99  H   UNK N   1      20.259  22.010   0.102  0.00  0.00     0.149 HD
HETATM  100  H   UNK N   1      20.243  20.518  -0.326  0.00  0.00     0.149 HD
ENDBRANCH  97  98
ENDBRANCH  96  97
ENDBRANCH  95  96
ENDBRANCH  94  95
ENDBRANCH  66  94
ENDBRANCH  63  66
ENDBRANCH  58  62
ENDBRANCH   1  54
TORSDOF 40
ENDMDL
MODEL 9
REMARK VINA RESULT:      -7.5      2.336      5.624
REMARK WARNING: 32 MAX_TORS EXCEEDED!!!
REMARK  40 active torsions:
REMARK  status: ('A' for Active; 'I' for Inactive)
REMARK    1  A    between atoms: O_2  and  C_3 
REMARK    2  A    between atoms: C_6  and  N_72 
REMARK    3  A    between atoms: C_8  and  C_9 
REMARK       I    between atoms: C_9  and  N_11 
REMARK    4  A    between atoms: C_12  and  N_11 
REMARK    5  A    between atoms: C_12  and  C_13 
REMARK    6  A    between atoms: C_12  and  C_18 
REMARK    7  A    between atoms: C_13  and  C_14 
REMARK    8  A    between atoms: C_14  and  C_15 
REMARK    9  A    between atoms: C_15  and  C_16 
REMARK   10  A    between atoms: C_16  and  N_17 
REMARK       I    between atoms: C_18  and  N_20 
REMARK   11  A    between atoms: N_20  and  C_21 
REMARK   12  A    between atoms: C_24  and  O_70 
REMARK   13  A    between atoms: C_25  and  C_27 
REMARK       I    between atoms: C_27  and  N_29 
REMARK   14  A    between atoms: C_30  and  N_29 
REMARK   15  A    between atoms: C_30  and  C_31 
REMARK   16  A    between atoms: C_30  and  C_36 
REMARK   17  A    between atoms: C_31  and  C_32 
REMARK   18  A    between atoms: C_32  and  C_33 
REMARK   19  A    between atoms: C_33  and  C_34 
REMARK   20  A    between atoms: C_34  and  N_35 
REMARK       I    between atoms: C_36  and  N_38 
REMARK   21  A    between atoms: N_38  and  C_39 
REMARK   22  A    between atoms: C_42  and  O_68 
REMARK   23  A    between atoms: C_43  and  C_45 
REMARK       I    between atoms: C_45  and  N_47 
REMARK   24  A    between atoms: C_48  and  N_47 
REMARK   25  A    between atoms: C_48  and  C_49 
REMARK   26  A    between atoms: C_48  and  C_54 
REMARK   27  A    between atoms: C_49  and  C_50 
REMARK   28  A    between atoms: C_50  and  C_51 
REMARK   29  A    between atoms: C_51  and  C_52 
REMARK   30  A    between atoms: C_52  and  N_53 
REMARK       I    between atoms: C_54  and  N_56 
REMARK   31  A    between atoms: N_56  and  C_57 
REMARK   32  A    between atoms: C_60  and  O_66 
REMARK   33  A    between atoms: C_61  and  C_63 
REMARK       I    between atoms: C_63  and  N_65 
REMARK       I    between atoms: N_72  and  C_73 
REMARK   34  A    between atoms: C_73  and  C_75 
REMARK   35  A    between atoms: C_75  and  C_76 
REMARK   36  A    between atoms: C_75  and  N_81 
REMARK   37  A    between atoms: C_76  and  C_77 
REMARK   38  A    between atoms: C_77  and  C_78 
REMARK   39  A    between atoms: C_78  and  C_79 
REMARK   40  A    between atoms: C_79  and  N_80 
ROOT
HETATM    1  C   UNK N   1      30.134  16.733   5.171  0.00  0.00     0.255 C 
HETATM    2  O   UNK N   1      30.616  17.826   4.836  0.00  0.00    -0.268 OA
HETATM    3  N   UNK N   1      28.948  16.696   5.785  0.00  0.00    -0.344 N 
HETATM    4  H   UNK N   1      28.694  15.951   6.377  0.00  0.00     0.163 HD
ENDROOT
BRANCH   3   5
HETATM    5  C   UNK N   1      28.073  17.783   5.541  0.00  0.00     0.177 C 
BRANCH   5   6
HETATM    6  C   UNK N   1      27.478  18.356   6.820  0.00  0.00     0.035 C 
BRANCH   6   7
HETATM    7  C   UNK N   1      27.841  19.828   7.000  0.00  0.00     0.004 C 
BRANCH   7   8
HETATM    8  C   UNK N   1      26.711  20.755   6.559  0.00  0.00     0.019 C 
BRANCH   8   9
HETATM    9  C   UNK N   1      26.806  21.070   5.079  0.00  0.00     0.111 C 
BRANCH   9  10
HETATM   10  N   UNK N   1      25.726  20.401   4.376  0.00  0.00    -0.430 N 
HETATM   11  H   UNK N   1      24.857  19.869   4.381  0.00  0.00     0.149 HD
HETATM   12  H   UNK N   1      25.947  20.524   3.388  0.00  0.00     0.149 HD
ENDBRANCH   9  10
ENDBRANCH   8   9
ENDBRANCH   7   8
ENDBRANCH   6   7
ENDBRANCH   5   6
BRANCH   5  13
HETATM   13  C   UNK N   1      27.208  17.197   4.460  0.00  0.00     0.241 C 
HETATM   14  O   UNK N   1      27.189  17.751   3.376  0.00  0.00    -0.271 OA
HETATM   15  N   UNK N   1      26.748  15.914   4.556  0.00  0.00    -0.348 N 
HETATM   16  H   UNK N   1      26.810  15.347   3.755  0.00  0.00     0.163 HD
BRANCH  15  17
HETATM   17  C   UNK N   1      26.181  15.331   5.737  0.00  0.00     0.132 C 
HETATM   18  C   UNK N   1      25.982  13.978   5.504  0.00  0.00     0.005 C 
HETATM   19  C   UNK N   1      25.078  13.706   4.466  0.00  0.00     0.036 C 
HETATM   20  C   UNK N   1      24.206  14.754   4.043  0.00  0.00     0.083 C 
HETATM   21  C   UNK N   1      24.065  15.913   4.916  0.00  0.00     0.063 C 
HETATM   22  C   UNK N   1      24.973  15.968   5.987  0.00  0.00     0.022 C 
BRANCH  20  23
HETATM   23  O   UNK N   1      23.594  14.665   2.842  0.00  0.00    -0.355 OA
HETATM   24  C   UNK N   1      23.975  13.767   1.867  0.00  0.00     0.210 C 
ENDBRANCH  20  23
BRANCH  21  25
HETATM   25  C   UNK N   1      23.230  17.162   4.724  0.00  0.00     0.254 C 
HETATM   26  O   UNK N   1      23.790  18.242   4.785  0.00  0.00    -0.268 OA
HETATM   27  N   UNK N   1      21.904  17.184   4.506  0.00  0.00    -0.344 N 
HETATM   28  H   UNK N   1      21.491  18.045   4.265  0.00  0.00     0.163 HD
BRANCH  27  29
HETATM   29  C   UNK N   1      21.062  16.049   4.600  0.00  0.00     0.177 C 
BRANCH  29  30
HETATM   30  C   UNK N   1      20.035  16.015   3.468  0.00  0.00     0.035 C 
BRANCH  30  31
HETATM   31  C   UNK N   1      20.498  16.692   2.181  0.00  0.00     0.004 C 
BRANCH  31  32
HETATM   32  C   UNK N   1      20.211  15.831   0.964  0.00  0.00     0.019 C 
BRANCH  32  33
HETATM   33  C   UNK N   1      19.418  16.633  -0.041  0.00  0.00     0.111 C 
BRANCH  33  34
HETATM   34  N   UNK N   1      18.169  15.953  -0.323  0.00  0.00    -0.430 N 
HETATM   35  H   UNK N   1      17.694  15.054  -0.399  0.00  0.00     0.149 HD
HETATM   36  H   UNK N   1      17.478  16.674  -0.531  0.00  0.00     0.149 HD
ENDBRANCH  33  34
ENDBRANCH  32  33
ENDBRANCH  31  32
ENDBRANCH  30  31
ENDBRANCH  29  30
BRANCH  29  37
HETATM   37  C   UNK N   1      20.433  15.962   5.950  0.00  0.00     0.245 C 
HETATM   38  O   UNK N   1      19.228  15.781   6.089  0.00  0.00    -0.271 OA
HETATM   39  N   UNK N   1      21.268  15.962   7.001  0.00  0.00    -0.325 N 
HETATM   40  H   UNK N   1      21.873  16.727   7.129  0.00  0.00     0.169 HD
BRANCH  39  41
HETATM   41  C   UNK N   1      21.304  14.910   7.919  0.00  0.00     0.035 A 
HETATM   42  C   UNK N   1      20.322  14.833   8.896  0.00  0.00     0.032 A 
HETATM   43  C   UNK N   1      20.458  13.922   9.935  0.00  0.00     0.040 A 
HETATM   44  C   UNK N   1      21.602  13.102  10.026  0.00  0.00     0.084 A 
HETATM   45  C   UNK N   1      22.617  13.211   9.045  0.00  0.00     0.067 A 
HETATM   46  C   UNK N   1      22.450  14.122   8.012  0.00  0.00     0.049 A 
BRANCH  44  47
HETATM   47  O   UNK N   1      21.727  12.217  11.041  0.00  0.00    -0.355 OA
HETATM   48  C   UNK N   1      20.695  11.909  11.898  0.00  0.00     0.210 C 
ENDBRANCH  44  47
BRANCH  45  49
HETATM   49  C   UNK N   1      23.862  12.402   9.054  0.00  0.00     0.252 C 
HETATM   50  O   UNK N   1      24.915  12.909   9.414  0.00  0.00    -0.268 OA
HETATM   51  N   UNK N   1      23.856  11.114   8.659  0.00  0.00    -0.366 N 
HETATM   52  H   UNK N   1      24.671  10.568   8.744  0.00  0.00     0.159 HD
HETATM   53  H   UNK N   1      23.036  10.718   8.285  0.00  0.00     0.159 HD
ENDBRANCH  45  49
ENDBRANCH  39  41
ENDBRANCH  29  37
ENDBRANCH  27  29
ENDBRANCH  21  25
ENDBRANCH  15  17
ENDBRANCH   5  13
ENDBRANCH   3   5
BRANCH   1  54
HETATM   54  C   UNK N   1      30.890  15.531   4.928  0.00  0.00     0.067 C 
HETATM   55  C   UNK N   1      30.395  14.328   4.393  0.00  0.00     0.084 C 
HETATM   56  C   UNK N   1      31.250  13.198   4.404  0.00  0.00     0.040 C 
HETATM   57  C   UNK N   1      32.477  13.261   5.097  0.00  0.00     0.032 C 
HETATM   58  C   UNK N   1      32.895  14.482   5.651  0.00  0.00     0.035 C 
HETATM   59  C   UNK N   1      32.123  15.578   5.434  0.00  0.00     0.049 C 
BRANCH  55  60
HETATM   60  O   UNK N   1      29.138  14.276   3.893  0.00  0.00    -0.355 OA
HETATM   61  C   UNK N   1      28.722  13.323   2.993  0.00  0.00     0.210 C 
ENDBRANCH  55  60
BRANCH  58  62
HETATM   62  N   UNK N   1      33.576  14.477   6.902  0.00  0.00    -0.325 N 
HETATM   63  C   UNK N   1      34.644  15.322   7.138  0.00  0.00     0.245 C 
HETATM   64  O   UNK N   1      35.309  15.794   6.222  0.00  0.00    -0.271 OA
HETATM   65  H   UNK N   1      33.281  13.859   7.611  0.00  0.00     0.169 HD
BRANCH  63  66
HETATM   66  C   UNK N   1      34.814  15.912   8.477  0.00  0.00     0.177 C 
BRANCH  66  67
HETATM   67  N   UNK N   1      35.428  14.918   9.355  0.00  0.00    -0.344 N 
HETATM   68  C   UNK N   1      36.154  15.187  10.477  0.00  0.00     0.255 C 
HETATM   69  O   UNK N   1      36.547  16.320  10.707  0.00  0.00    -0.268 OA
HETATM   70  H   UNK N   1      35.308  13.971   9.115  0.00  0.00     0.163 HD
BRANCH  68  71
HETATM   71  C   UNK N   1      36.464  14.100  11.434  0.00  0.00     0.067 A 
HETATM   72  C   UNK N   1      35.842  14.094  12.690  0.00  0.00     0.049 A 
HETATM   73  C   UNK N   1      36.179  13.129  13.648  0.00  0.00     0.035 A 
HETATM   74  C   UNK N   1      37.063  12.108  13.305  0.00  0.00     0.032 A 
HETATM   75  C   UNK N   1      37.673  12.086  12.058  0.00  0.00     0.040 A 
HETATM   76  C   UNK N   1      37.425  13.110  11.131  0.00  0.00     0.084 A 
BRANCH  73  77
HETATM   77  N   UNK N   1      35.911  13.285  15.035  0.00  0.00    -0.325 N 
HETATM   78  C   UNK N   1      35.135  12.566  15.896  0.00  0.00     0.244 C 
HETATM   79  O   UNK N   1      34.894  13.064  16.981  0.00  0.00    -0.271 OA
HETATM   80  H   UNK N   1      36.370  14.050  15.449  0.00  0.00     0.169 HD
BRANCH  78  81
HETATM   81  C   UNK N   1      34.528  11.209  15.625  0.00  0.00     0.167 C 
BRANCH  81  82
HETATM   82  C   UNK N   1      35.461  10.021  15.814  0.00  0.00     0.034 C 
BRANCH  82  83
HETATM   83  C   UNK N   1      35.361   9.088  14.603  0.00  0.00     0.004 C 
BRANCH  83  84
HETATM   84  C   UNK N   1      36.600   8.216  14.446  0.00  0.00     0.019 C 
BRANCH  84  85
HETATM   85  C   UNK N   1      36.422   7.273  13.269  0.00  0.00     0.111 C 
BRANCH  85  86
HETATM   86  N   UNK N   1      36.157   8.037  12.062  0.00  0.00    -0.430 N 
HETATM   87  H   UNK N   1      36.691   8.872  11.820  0.00  0.00     0.149 HD
HETATM   88  H   UNK N   1      35.412   7.729  11.437  0.00  0.00     0.149 HD
ENDBRANCH  85  86
ENDBRANCH  84  85
ENDBRANCH  83  84
ENDBRANCH  82  83
ENDBRANCH  81  82
BRANCH  81  89
HETATM   89  N   UNK N   1      33.598  11.099  14.514  0.00  0.00    -0.418 N 
HETATM   90  H   UNK N   1      32.726  10.570  14.506  0.00  0.00     0.150 HD
HETATM   91  H   UNK N   1      33.840  11.601  13.660  0.00  0.00     0.150 HD
ENDBRANCH  81  89
ENDBRANCH  78  81
ENDBRANCH  73  77
BRANCH  76  92
HETATM   92  O   UNK N   1      38.083  13.140   9.949  0.00  0.00    -0.355 OA
HETATM   93  C   UNK N   1      37.743  12.334   8.889  0.00  0.00     0.210 C 
ENDBRANCH  76  92
ENDBRANCH  68  71
ENDBRANCH  66  67
BRANCH  66  94
HETATM   94  C   UNK N   1      33.507  16.487   8.944  0.00  0.00     0.035 C 
BRANCH  94  95
HETATM   95  C   UNK N   1      33.256  17.792   8.238  0.00  0.00     0.004 C 
BRANCH  95  96
HETATM   96  C   UNK N   1      31.770  18.071   8.256  0.00  0.00     0.019 C 
BRANCH  96  97
HETATM   97  C   UNK N   1      31.016  16.852   8.763  0.00  0.00     0.111 C 
BRANCH  97  98
HETATM   98  N   UNK N   1      30.034  17.250   9.757  0.00  0.00    -0.430 N 
HETATM   99  H   UNK N   1      29.197  17.268  10.339  0.00  0.00     0.149 HD
HETATM  100  H   UNK N   1      30.501  18.081  10.121  0.00  0.00     0.149 HD
ENDBRANCH  97  98
ENDBRANCH  96  97
ENDBRANCH  95  96
ENDBRANCH  94  95
ENDBRANCH  66  94
ENDBRANCH  63  66
ENDBRANCH  58  62
ENDBRANCH   1  54
TORSDOF 40
ENDMDL
