MODEL 1
REMARK VINA RESULT:      -8.3      0.000      0.000
REMARK  8 active torsions:
REMARK  status: ('A' for Active; 'I' for Inactive)
REMARK    1  A    between atoms: O_2  and  C_3 
REMARK    2  A    between atoms: C_10  and  N_20 
REMARK    3  A    between atoms: N_20  and  C_21 
REMARK    4  A    between atoms: C_23  and  C_34 
REMARK    5  A    between atoms: C_24  and  O_33 
REMARK    6  A    between atoms: C_25  and  C_27 
REMARK    7  A    between atoms: C_27  and  N_28 
REMARK    8  A    between atoms: C_34  and  N_35 
ROOT
HETATM    1  N   UNK N   1      23.381  17.459   5.842  0.00  0.00    -0.354 N 
HETATM    2  H   UNK N   1      22.995  17.882   6.643  0.00  0.00     0.166 HD
ENDROOT
BRANCH   1   3
HETATM    3  C   UNK N   1      23.996  18.395   4.941  0.00  0.00     0.074 A 
HETATM    4  C   UNK N   1      25.383  18.716   4.908  0.00  0.00     0.089 A 
HETATM    5  C   UNK N   1      25.841  19.720   4.024  0.00  0.00     0.062 A 
HETATM    6  N   UNK N   1      26.285  18.075   5.687  0.00  0.00    -0.333 N 
HETATM    7  C   UNK N   1      27.197  20.048   3.999  0.00  0.00     0.036 A 
HETATM    8  N   UNK N   1      24.980  20.366   3.202  0.00  0.00    -0.354 N 
HETATM    9  C   UNK N   1      28.089  19.376   4.829  0.00  0.00     0.058 A 
HETATM   10  C   UNK N   1      27.613  18.366   5.679  0.00  0.00     0.142 A 
HETATM   11  C   UNK N   1      23.658  20.070   3.185  0.00  0.00     0.046 A 
ATOM     12  HN  UNK N   1      25.335  21.094   2.581  1.00  0.00     0.166 HD
HETATM   13  C   UNK N   1      22.806  20.759   2.318  0.00  0.00     0.054 A 
HETATM   14  C   UNK N   1      23.141  19.077   4.048  0.00  0.00     0.020 A 
HETATM   15  C   UNK N   1      21.440  20.469   2.295  0.00  0.00     0.036 A 
HETATM   16  C   UNK N   1      20.919  19.489   3.144  0.00  0.00     0.025 A 
HETATM   17 Cl   UNK N   1      20.380  21.340   1.208  0.00  0.00    -0.084 Cl
HETATM   18  C   UNK N   1      21.763  18.799   4.017  0.00  0.00     0.018 A 
ATOM     19  HN  UNK N   1      25.954  17.338   6.310  1.00  0.00     0.168 HD
BRANCH  10  20
HETATM   20  O   UNK N   1      28.441  17.673   6.494  0.00  0.00    -0.341 OA
HETATM   21  C   UNK N   1      28.187  17.463   7.830  0.00  0.00     0.211 C 
ENDBRANCH  10  20
ENDBRANCH   1   3
BRANCH   1  22
HETATM   22  C   UNK N   1      23.217  16.041   5.813  0.00  0.00     0.033 A 
HETATM   23  C   UNK N   1      22.707  15.282   6.872  0.00  0.00     0.041 A 
HETATM   24  C   UNK N   1      22.477  13.908   6.735  0.00  0.00     0.006 A 
HETATM   25  C   UNK N   1      22.740  13.279   5.510  0.00  0.00     0.082 A 
HETATM   26  C   UNK N   1      23.263  14.027   4.444  0.00  0.00     0.006 A 
HETATM   27  C   UNK N   1      23.495  15.396   4.610  0.00  0.00     0.041 A 
BRANCH  24  28
HETATM   28  C   UNK N   1      21.896  13.134   7.879  0.00  0.00     0.313 C 
BRANCH  28  29
HETATM   29  N   UNK N   1      22.064  13.848   9.141  0.00  0.00     0.092 N 
HETATM   30  C   UNK N   1      20.809  13.744   9.877  0.00  0.00     0.273 C 
HETATM   31  C   UNK N   1      20.899  12.573  10.839  0.00  0.00     0.032 C 
HETATM   32  C   UNK N   1      22.306  12.048  10.712  0.00  0.00     0.032 C 
HETATM   33  C   UNK N   1      23.043  13.123   9.943  0.00  0.00     0.273 C 
ENDBRANCH  28  29
ENDBRANCH  24  28
BRANCH  25  34
HETATM   34  O   UNK N   1      22.485  11.966   5.355  0.00  0.00    -0.359 OA
HETATM   35  H   UNK N   1      23.025  11.280   5.695  0.00  0.00     0.217 HD
ENDBRANCH  25  34
BRANCH  26  36
HETATM   36  C   UNK N   1      23.501  13.395   3.104  0.00  0.00     0.313 C 
BRANCH  36  37
HETATM   37  N   UNK N   1      23.317  14.325   1.987  0.00  0.00     0.092 N 
HETATM   38  C   UNK N   1      24.246  13.911   0.943  0.00  0.00     0.273 C 
HETATM   39  C   UNK N   1      23.506  13.018  -0.041  0.00  0.00     0.032 C 
HETATM   40  C   UNK N   1      22.062  13.046   0.390  0.00  0.00     0.032 C 
HETATM   41  C   UNK N   1      21.992  14.172   1.393  0.00  0.00     0.273 C 
ENDBRANCH  36  37
ENDBRANCH  26  36
ENDBRANCH   1  22
TORSDOF 8
ENDMDL
MODEL 2
REMARK VINA RESULT:      -8.0      0.288      5.138
REMARK  8 active torsions:
REMARK  status: ('A' for Active; 'I' for Inactive)
REMARK    1  A    between atoms: O_2  and  C_3 
REMARK    2  A    between atoms: C_10  and  N_20 
REMARK    3  A    between atoms: N_20  and  C_21 
REMARK    4  A    between atoms: C_23  and  C_34 
REMARK    5  A    between atoms: C_24  and  O_33 
REMARK    6  A    between atoms: C_25  and  C_27 
REMARK    7  A    between atoms: C_27  and  N_28 
REMARK    8  A    between atoms: C_34  and  N_35 
ROOT
HETATM    1  N   UNK N   1      23.422  17.308   5.726  0.00  0.00    -0.354 N 
HETATM    2  H   UNK N   1      23.149  17.635   6.614  0.00  0.00     0.166 HD
ENDROOT
BRANCH   1   3
HETATM    3  C   UNK N   1      24.024  18.322   4.903  0.00  0.00     0.074 A 
HETATM    4  C   UNK N   1      25.395  18.702   4.936  0.00  0.00     0.089 A 
HETATM    5  C   UNK N   1      25.837  19.777   4.130  0.00  0.00     0.062 A 
HETATM    6  N   UNK N   1      26.300  18.053   5.707  0.00  0.00    -0.333 N 
HETATM    7  C   UNK N   1      27.177  20.162   4.172  0.00  0.00     0.036 A 
HETATM    8  N   UNK N   1      24.975  20.435   3.319  0.00  0.00    -0.354 N 
HETATM    9  C   UNK N   1      28.071  19.478   4.990  0.00  0.00     0.058 A 
HETATM   10  C   UNK N   1      27.613  18.400   5.762  0.00  0.00     0.142 A 
HETATM   11  C   UNK N   1      23.668  20.085   3.239  0.00  0.00     0.046 A 
ATOM     12  HN  UNK N   1      25.317  21.214   2.755  1.00  0.00     0.166 HD
HETATM   13  C   UNK N   1      22.815  20.790   2.385  0.00  0.00     0.054 A 
HETATM   14  C   UNK N   1      23.168  19.021   4.023  0.00  0.00     0.020 A 
HETATM   15  C   UNK N   1      21.464  20.445   2.299  0.00  0.00     0.036 A 
HETATM   16  C   UNK N   1      20.960  19.394   3.070  0.00  0.00     0.025 A 
HETATM   17 Cl   UNK N   1      20.402  21.335   1.230  0.00  0.00    -0.084 Cl
HETATM   18  C   UNK N   1      21.805  18.688   3.929  0.00  0.00     0.018 A 
ATOM     19  HN  UNK N   1      25.981  17.267   6.273  1.00  0.00     0.168 HD
BRANCH  10  20
HETATM   20  O   UNK N   1      28.445  17.694   6.562  0.00  0.00    -0.341 OA
HETATM   21  C   UNK N   1      28.581  17.932   7.911  0.00  0.00     0.211 C 
ENDBRANCH  10  20
ENDBRANCH   1   3
BRANCH   1  22
HETATM   22  C   UNK N   1      23.140  15.924   5.517  0.00  0.00     0.033 A 
HETATM   23  C   UNK N   1      23.396  15.236   4.326  0.00  0.00     0.041 A 
HETATM   24  C   UNK N   1      23.190  13.855   4.227  0.00  0.00     0.006 A 
HETATM   25  C   UNK N   1      22.740  13.139   5.345  0.00  0.00     0.082 A 
HETATM   26  C   UNK N   1      22.468  13.820   6.541  0.00  0.00     0.006 A 
HETATM   27  C   UNK N   1      22.670  15.201   6.611  0.00  0.00     0.041 A 
BRANCH  24  28
HETATM   28  C   UNK N   1      23.510  13.145   2.946  0.00  0.00     0.313 C 
BRANCH  28  29
HETATM   29  N   UNK N   1      23.141  13.953   1.788  0.00  0.00     0.092 N 
HETATM   30  C   UNK N   1      24.033  13.586   0.693  0.00  0.00     0.273 C 
HETATM   31  C   UNK N   1      23.354  12.532  -0.164  0.00  0.00     0.032 C 
HETATM   32  C   UNK N   1      21.973  12.364   0.416  0.00  0.00     0.032 C 
HETATM   33  C   UNK N   1      21.810  13.540   1.356  0.00  0.00     0.273 C 
ENDBRANCH  28  29
ENDBRANCH  24  28
BRANCH  25  34
HETATM   34  O   UNK N   1      22.576  11.805   5.272  0.00  0.00    -0.359 OA
HETATM   35  H   UNK N   1      22.302  11.347   4.502  0.00  0.00     0.217 HD
ENDBRANCH  25  34
BRANCH  26  36
HETATM   36  C   UNK N   1      22.038  13.074   7.771  0.00  0.00     0.313 C 
BRANCH  36  37
HETATM   37  N   UNK N   1      22.239  13.836   9.006  0.00  0.00     0.092 N 
HETATM   38  C   UNK N   1      20.943  13.900   9.671  0.00  0.00     0.273 C 
HETATM   39  C   UNK N   1      20.867  12.783  10.699  0.00  0.00     0.032 C 
HETATM   40  C   UNK N   1      22.235  12.150  10.715  0.00  0.00     0.032 C 
HETATM   41  C   UNK N   1      23.100  13.109   9.934  0.00  0.00     0.273 C 
ENDBRANCH  36  37
ENDBRANCH  26  36
ENDBRANCH   1  22
TORSDOF 8
ENDMDL
MODEL 3
REMARK VINA RESULT:      -8.0      2.844      6.874
REMARK  8 active torsions:
REMARK  status: ('A' for Active; 'I' for Inactive)
REMARK    1  A    between atoms: O_2  and  C_3 
REMARK    2  A    between atoms: C_10  and  N_20 
REMARK    3  A    between atoms: N_20  and  C_21 
REMARK    4  A    between atoms: C_23  and  C_34 
REMARK    5  A    between atoms: C_24  and  O_33 
REMARK    6  A    between atoms: C_25  and  C_27 
REMARK    7  A    between atoms: C_27  and  N_28 
REMARK    8  A    between atoms: C_34  and  N_35 
ROOT
HETATM    1  N   UNK N   1      25.666  16.548   6.323  0.00  0.00    -0.354 N 
HETATM    2  H   UNK N   1      25.694  16.759   7.285  0.00  0.00     0.166 HD
ENDROOT
BRANCH   1   3
HETATM    3  C   UNK N   1      26.406  17.477   5.513  0.00  0.00     0.074 A 
HETATM    4  C   UNK N   1      25.833  18.459   4.656  0.00  0.00     0.089 A 
HETATM    5  C   UNK N   1      26.680  19.253   3.848  0.00  0.00     0.062 A 
HETATM    6  N   UNK N   1      24.497  18.671   4.601  0.00  0.00    -0.333 N 
HETATM    7  C   UNK N   1      26.122  20.206   2.996  0.00  0.00     0.036 A 
HETATM    8  N   UNK N   1      28.025  19.099   3.894  0.00  0.00    -0.354 N 
HETATM    9  C   UNK N   1      24.741  20.380   2.958  0.00  0.00     0.058 A 
HETATM   10  C   UNK N   1      23.925  19.597   3.787  0.00  0.00     0.142 A 
HETATM   11  C   UNK N   1      28.609  18.195   4.717  0.00  0.00     0.046 A 
ATOM     12  HN  UNK N   1      28.613  19.678   3.293  1.00  0.00     0.166 HD
HETATM   13  C   UNK N   1      30.001  18.073   4.733  0.00  0.00     0.054 A 
HETATM   14  C   UNK N   1      27.813  17.371   5.545  0.00  0.00     0.020 A 
HETATM   15  C   UNK N   1      30.615  17.139   5.571  0.00  0.00     0.036 A 
HETATM   16  C   UNK N   1      29.838  16.320   6.394  0.00  0.00     0.025 A 
HETATM   17 Cl   UNK N   1      32.359  16.991   5.583  0.00  0.00    -0.084 Cl
HETATM   18  C   UNK N   1      28.446  16.432   6.379  0.00  0.00     0.018 A 
ATOM     19  HN  UNK N   1      23.891  18.108   5.198  1.00  0.00     0.168 HD
BRANCH  10  20
HETATM   20  O   UNK N   1      22.580  19.738   3.798  0.00  0.00    -0.341 OA
HETATM   21  C   UNK N   1      21.865  20.262   2.745  0.00  0.00     0.211 C 
ENDBRANCH  10  20
ENDBRANCH   1   3
BRANCH   1  22
HETATM   22  C   UNK N   1      24.899  15.383   6.017  0.00  0.00     0.033 A 
HETATM   23  C   UNK N   1      24.660  14.912   4.722  0.00  0.00     0.041 A 
HETATM   24  C   UNK N   1      23.986  13.705   4.501  0.00  0.00     0.006 A 
HETATM   25  C   UNK N   1      23.562  12.938   5.595  0.00  0.00     0.082 A 
HETATM   26  C   UNK N   1      23.785  13.405   6.899  0.00  0.00     0.006 A 
HETATM   27  C   UNK N   1      24.449  14.620   7.093  0.00  0.00     0.041 A 
BRANCH  24  28
HETATM   28  C   UNK N   1      23.780  13.214   3.101  0.00  0.00     0.313 C 
BRANCH  28  29
HETATM   29  N   UNK N   1      23.518  14.320   2.185  0.00  0.00     0.092 N 
HETATM   30  C   UNK N   1      24.350  14.121   1.004  0.00  0.00     0.273 C 
HETATM   31  C   UNK N   1      23.534  13.405  -0.058  0.00  0.00     0.032 C 
HETATM   32  C   UNK N   1      22.145  13.279   0.513  0.00  0.00     0.032 C 
HETATM   33  C   UNK N   1      22.143  14.200   1.714  0.00  0.00     0.273 C 
ENDBRANCH  28  29
ENDBRANCH  24  28
BRANCH  25  34
HETATM   34  O   UNK N   1      22.948  11.756   5.395  0.00  0.00    -0.359 OA
HETATM   35  H   UNK N   1      22.905  11.317   4.568  0.00  0.00     0.217 HD
ENDBRANCH  25  34
BRANCH  26  36
HETATM   36  C   UNK N   1      23.393  12.581   8.090  0.00  0.00     0.313 C 
BRANCH  36  37
HETATM   37  N   UNK N   1      23.520  13.304   9.358  0.00  0.00     0.092 N 
HETATM   38  C   UNK N   1      22.167  13.498   9.864  0.00  0.00     0.273 C 
HETATM   39  C   UNK N   1      21.851  12.384  10.849  0.00  0.00     0.032 C 
HETATM   40  C   UNK N   1      23.133  11.609  11.014  0.00  0.00     0.032 C 
HETATM   41  C   UNK N   1      24.181  12.479  10.365  0.00  0.00     0.273 C 
ENDBRANCH  36  37
ENDBRANCH  26  36
ENDBRANCH   1  22
TORSDOF 8
ENDMDL
MODEL 4
REMARK VINA RESULT:      -7.8      3.033      4.758
REMARK  8 active torsions:
REMARK  status: ('A' for Active; 'I' for Inactive)
REMARK    1  A    between atoms: O_2  and  C_3 
REMARK    2  A    between atoms: C_10  and  N_20 
REMARK    3  A    between atoms: N_20  and  C_21 
REMARK    4  A    between atoms: C_23  and  C_34 
REMARK    5  A    between atoms: C_24  and  O_33 
REMARK    6  A    between atoms: C_25  and  C_27 
REMARK    7  A    between atoms: C_27  and  N_28 
REMARK    8  A    between atoms: C_34  and  N_35 
ROOT
HETATM    1  N   UNK N   1      26.199  16.471   6.673  0.00  0.00    -0.354 N 
HETATM    2  H   UNK N   1      26.197  16.797   7.603  0.00  0.00     0.166 HD
ENDROOT
BRANCH   1   3
HETATM    3  C   UNK N   1      26.847  17.367   5.754  0.00  0.00     0.074 A 
HETATM    4  C   UNK N   1      26.181  18.287   4.895  0.00  0.00     0.089 A 
HETATM    5  C   UNK N   1      26.939  19.051   3.977  0.00  0.00     0.062 A 
HETATM    6  N   UNK N   1      24.840  18.468   4.939  0.00  0.00    -0.333 N 
HETATM    7  C   UNK N   1      26.289  19.942   3.123  0.00  0.00     0.036 A 
HETATM    8  N   UNK N   1      28.286  18.928   3.919  0.00  0.00    -0.354 N 
HETATM    9  C   UNK N   1      24.906  20.086   3.190  0.00  0.00     0.058 A 
HETATM   10  C   UNK N   1      24.180  19.334   4.127  0.00  0.00     0.142 A 
HETATM   11  C   UNK N   1      28.958  18.084   4.739  0.00  0.00     0.046 A 
ATOM     12  HN  UNK N   1      28.809  19.484   3.241  1.00  0.00     0.166 HD
HETATM   13  C   UNK N   1      30.349  17.992   4.646  0.00  0.00     0.054 A 
HETATM   14  C   UNK N   1      28.254  17.292   5.674  0.00  0.00     0.020 A 
HETATM   15  C   UNK N   1      31.054  17.120   5.480  0.00  0.00     0.036 A 
HETATM   16  C   UNK N   1      30.368  16.333   6.408  0.00  0.00     0.025 A 
HETATM   17 Cl   UNK N   1      32.796  17.009   5.355  0.00  0.00    -0.084 Cl
HETATM   18  C   UNK N   1      28.977  16.416   6.503  0.00  0.00     0.018 A 
ATOM     19  HN  UNK N   1      24.299  17.928   5.615  1.00  0.00     0.168 HD
BRANCH  10  20
HETATM   20  O   UNK N   1      22.837  19.448   4.242  0.00  0.00    -0.341 OA
HETATM   21  C   UNK N   1      22.033  18.449   4.741  0.00  0.00     0.211 C 
ENDBRANCH  10  20
ENDBRANCH   1   3
BRANCH   1  22
HETATM   22  C   UNK N   1      25.560  15.204   6.512  0.00  0.00     0.033 A 
HETATM   23  C   UNK N   1      25.225  14.349   7.567  0.00  0.00     0.041 A 
HETATM   24  C   UNK N   1      24.507  13.168   7.344  0.00  0.00     0.006 A 
HETATM   25  C   UNK N   1      24.092  12.844   6.045  0.00  0.00     0.082 A 
HETATM   26  C   UNK N   1      24.432  13.688   4.977  0.00  0.00     0.006 A 
HETATM   27  C   UNK N   1      25.161  14.855   5.224  0.00  0.00     0.041 A 
BRANCH  24  28
HETATM   28  C   UNK N   1      24.135  12.294   8.503  0.00  0.00     0.313 C 
BRANCH  28  29
HETATM   29  N   UNK N   1      23.983  13.074   9.727  0.00  0.00     0.092 N 
HETATM   30  C   UNK N   1      22.565  13.373   9.887  0.00  0.00     0.273 C 
HETATM   31  C   UNK N   1      21.941  12.329  10.796  0.00  0.00     0.032 C 
HETATM   32  C   UNK N   1      23.079  11.453  11.251  0.00  0.00     0.032 C 
HETATM   33  C   UNK N   1      24.326  12.215  10.855  0.00  0.00     0.273 C 
ENDBRANCH  28  29
ENDBRANCH  24  28
BRANCH  25  34
HETATM   34  O   UNK N   1      23.366  11.731   5.825  0.00  0.00    -0.359 OA
HETATM   35  H   UNK N   1      23.435  11.199   5.057  0.00  0.00     0.217 HD
ENDBRANCH  25  34
BRANCH  26  36
HETATM   36  C   UNK N   1      23.955  13.398   3.584  0.00  0.00     0.313 C 
BRANCH  36  37
HETATM   37  N   UNK N   1      24.991  13.593   2.567  0.00  0.00     0.092 N 
HETATM   38  C   UNK N   1      25.099  12.336   1.836  0.00  0.00     0.273 C 
HETATM   39  C   UNK N   1      24.243  12.427   0.583  0.00  0.00     0.032 C 
HETATM   40  C   UNK N   1      23.744  13.848   0.532  0.00  0.00     0.032 C 
HETATM   41  C   UNK N   1      24.567  14.571   1.570  0.00  0.00     0.273 C 
ENDBRANCH  36  37
ENDBRANCH  26  36
ENDBRANCH   1  22
TORSDOF 8
ENDMDL
MODEL 5
REMARK VINA RESULT:      -7.6      3.110      4.850
REMARK  8 active torsions:
REMARK  status: ('A' for Active; 'I' for Inactive)
REMARK    1  A    between atoms: O_2  and  C_3 
REMARK    2  A    between atoms: C_10  and  N_20 
REMARK    3  A    between atoms: N_20  and  C_21 
REMARK    4  A    between atoms: C_23  and  C_34 
REMARK    5  A    between atoms: C_24  and  O_33 
REMARK    6  A    between atoms: C_25  and  C_27 
REMARK    7  A    between atoms: C_27  and  N_28 
REMARK    8  A    between atoms: C_34  and  N_35 
ROOT
HETATM    1  N   UNK N   1      25.227  16.591   5.960  0.00  0.00    -0.354 N 
HETATM    2  H   UNK N   1      25.652  16.278   6.792  0.00  0.00     0.166 HD
ENDROOT
BRANCH   1   3
HETATM    3  C   UNK N   1      26.012  17.563   5.248  0.00  0.00     0.074 A 
HETATM    4  C   UNK N   1      25.489  18.600   4.425  0.00  0.00     0.089 A 
HETATM    5  C   UNK N   1      26.380  19.437   3.713  0.00  0.00     0.062 A 
HETATM    6  N   UNK N   1      24.158  18.825   4.314  0.00  0.00    -0.333 N 
HETATM    7  C   UNK N   1      25.871  20.444   2.894  0.00  0.00     0.036 A 
HETATM    8  N   UNK N   1      27.719  19.271   3.818  0.00  0.00    -0.354 N 
HETATM    9  C   UNK N   1      24.494  20.631   2.796  0.00  0.00     0.058 A 
HETATM   10  C   UNK N   1      23.633  19.804   3.531  0.00  0.00     0.142 A 
HETATM   11  C   UNK N   1      28.256  18.313   4.612  0.00  0.00     0.046 A 
ATOM     12  HN  UNK N   1      28.340  19.881   3.285  1.00  0.00     0.166 HD
HETATM   13  C   UNK N   1      29.645  18.180   4.692  0.00  0.00     0.054 A 
HETATM   14  C   UNK N   1      27.415  17.445   5.345  0.00  0.00     0.020 A 
HETATM   15  C   UNK N   1      30.212  17.191   5.501  0.00  0.00     0.036 A 
HETATM   16  C   UNK N   1      29.389  16.329   6.230  0.00  0.00     0.025 A 
HETATM   17 Cl   UNK N   1      31.952  17.030   5.594  0.00  0.00    -0.084 Cl
HETATM   18  C   UNK N   1      28.000  16.452   6.151  0.00  0.00     0.018 A 
ATOM     19  HN  UNK N   1      23.519  18.231   4.844  1.00  0.00     0.168 HD
BRANCH  10  20
HETATM   20  O   UNK N   1      22.289  19.953   3.482  0.00  0.00    -0.341 OA
HETATM   21  C   UNK N   1      21.615  20.373   2.358  0.00  0.00     0.211 C 
ENDBRANCH  10  20
ENDBRANCH   1   3
BRANCH   1  22
HETATM   22  C   UNK N   1      23.958  15.988   5.706  0.00  0.00     0.033 A 
HETATM   23  C   UNK N   1      22.783  16.300   6.396  0.00  0.00     0.041 A 
HETATM   24  C   UNK N   1      21.553  15.744   6.025  0.00  0.00     0.006 A 
HETATM   25  C   UNK N   1      21.489  14.874   4.927  0.00  0.00     0.082 A 
HETATM   26  C   UNK N   1      22.664  14.543   4.234  0.00  0.00     0.006 A 
HETATM   27  C   UNK N   1      23.881  15.103   4.633  0.00  0.00     0.041 A 
BRANCH  24  28
HETATM   28  C   UNK N   1      20.308  16.129   6.764  0.00  0.00     0.313 C 
BRANCH  28  29
HETATM   29  N   UNK N   1      20.607  16.512   8.140  0.00  0.00     0.092 N 
HETATM   30  C   UNK N   1      19.929  17.776   8.403  0.00  0.00     0.273 C 
HETATM   31  C   UNK N   1      18.590  17.490   9.059  0.00  0.00     0.032 C 
HETATM   32  C   UNK N   1      18.550  15.997   9.266  0.00  0.00     0.032 C 
HETATM   33  C   UNK N   1      19.973  15.542   9.026  0.00  0.00     0.273 C 
ENDBRANCH  28  29
ENDBRANCH  24  28
BRANCH  25  34
HETATM   34  O   UNK N   1      20.306  14.364   4.536  0.00  0.00    -0.359 OA
HETATM   35  H   UNK N   1      19.580  14.215   5.109  0.00  0.00     0.217 HD
ENDBRANCH  25  34
BRANCH  26  36
HETATM   36  C   UNK N   1      22.620  13.660   3.021  0.00  0.00     0.313 C 
BRANCH  36  37
HETATM   37  N   UNK N   1      22.486  14.407   1.769  0.00  0.00     0.092 N 
HETATM   38  C   UNK N   1      23.741  14.237   1.046  0.00  0.00     0.273 C 
HETATM   39  C   UNK N   1      23.582  13.092   0.058  0.00  0.00     0.032 C 
HETATM   40  C   UNK N   1      22.130  12.693   0.126  0.00  0.00     0.032 C 
HETATM   41  C   UNK N   1      21.473  13.805   0.907  0.00  0.00     0.273 C 
ENDBRANCH  36  37
ENDBRANCH  26  36
ENDBRANCH   1  22
TORSDOF 8
ENDMDL
MODEL 6
REMARK VINA RESULT:      -7.6      1.621      1.967
REMARK  8 active torsions:
REMARK  status: ('A' for Active; 'I' for Inactive)
REMARK    1  A    between atoms: O_2  and  C_3 
REMARK    2  A    between atoms: C_10  and  N_20 
REMARK    3  A    between atoms: N_20  and  C_21 
REMARK    4  A    between atoms: C_23  and  C_34 
REMARK    5  A    between atoms: C_24  and  O_33 
REMARK    6  A    between atoms: C_25  and  C_27 
REMARK    7  A    between atoms: C_27  and  N_28 
REMARK    8  A    between atoms: C_34  and  N_35 
ROOT
HETATM    1  N   UNK N   1      23.476  17.305   5.748  0.00  0.00    -0.354 N 
HETATM    2  H   UNK N   1      22.804  17.662   6.373  0.00  0.00     0.166 HD
ENDROOT
BRANCH   1   3
HETATM    3  C   UNK N   1      24.066  18.310   4.907  0.00  0.00     0.074 A 
HETATM    4  C   UNK N   1      25.433  18.708   4.935  0.00  0.00     0.089 A 
HETATM    5  C   UNK N   1      25.863  19.772   4.109  0.00  0.00     0.062 A 
HETATM    6  N   UNK N   1      26.344  18.086   5.720  0.00  0.00    -0.333 N 
HETATM    7  C   UNK N   1      27.197  20.175   4.145  0.00  0.00     0.036 A 
HETATM    8  N   UNK N   1      24.994  20.402   3.283  0.00  0.00    -0.354 N 
HETATM    9  C   UNK N   1      28.099  19.519   4.979  0.00  0.00     0.058 A 
HETATM   10  C   UNK N   1      27.653  18.450   5.771  0.00  0.00     0.142 A 
HETATM   11  C   UNK N   1      23.692  20.034   3.208  0.00  0.00     0.046 A 
ATOM     12  HN  UNK N   1      25.327  21.174   2.705  1.00  0.00     0.166 HD
HETATM   13  C   UNK N   1      22.832  20.711   2.339  0.00  0.00     0.054 A 
HETATM   14  C   UNK N   1      23.204  18.980   4.012  0.00  0.00     0.020 A 
HETATM   15  C   UNK N   1      21.485  20.348   2.257  0.00  0.00     0.036 A 
HETATM   16  C   UNK N   1      20.993  19.306   3.047  0.00  0.00     0.025 A 
HETATM   17 Cl   UNK N   1      20.414  21.202   1.168  0.00  0.00    -0.084 Cl
HETATM   18  C   UNK N   1      21.846  18.628   3.922  0.00  0.00     0.018 A 
ATOM     19  HN  UNK N   1      26.034  17.307   6.302  1.00  0.00     0.168 HD
BRANCH  10  20
HETATM   20  O   UNK N   1      28.491  17.771   6.586  0.00  0.00    -0.341 OA
HETATM   21  C   UNK N   1      29.581  17.064   6.132  0.00  0.00     0.211 C 
ENDBRANCH  10  20
ENDBRANCH   1   3
BRANCH   1  22
HETATM   22  C   UNK N   1      23.666  15.894   5.862  0.00  0.00     0.033 A 
HETATM   23  C   UNK N   1      23.130  15.105   6.886  0.00  0.00     0.041 A 
HETATM   24  C   UNK N   1      23.272  13.712   6.878  0.00  0.00     0.006 A 
HETATM   25  C   UNK N   1      23.942  13.089   5.816  0.00  0.00     0.082 A 
HETATM   26  C   UNK N   1      24.494  13.871   4.790  0.00  0.00     0.006 A 
HETATM   27  C   UNK N   1      24.350  15.261   4.827  0.00  0.00     0.041 A 
BRANCH  24  28
HETATM   28  C   UNK N   1      22.653  12.895   7.972  0.00  0.00     0.313 C 
BRANCH  28  29
HETATM   29  N   UNK N   1      22.898  13.493   9.280  0.00  0.00     0.092 N 
HETATM   30  C   UNK N   1      21.632  13.502  10.004  0.00  0.00     0.273 C 
HETATM   31  C   UNK N   1      21.557  12.265  10.882  0.00  0.00     0.032 C 
HETATM   32  C   UNK N   1      22.886  11.572  10.722  0.00  0.00     0.032 C 
HETATM   33  C   UNK N   1      23.765  12.592  10.032  0.00  0.00     0.273 C 
ENDBRANCH  28  29
ENDBRANCH  24  28
BRANCH  25  34
HETATM   34  O   UNK N   1      24.049  11.747   5.778  0.00  0.00    -0.359 OA
HETATM   35  H   UNK N   1      23.386  11.174   5.448  0.00  0.00     0.217 HD
ENDBRANCH  25  34
BRANCH  26  36
HETATM   36  C   UNK N   1      25.168  13.231   3.611  0.00  0.00     0.313 C 
BRANCH  36  37
HETATM   37  N   UNK N   1      26.546  12.819   3.889  0.00  0.00     0.092 N 
HETATM   38  C   UNK N   1      26.836  11.705   2.994  0.00  0.00     0.273 C 
HETATM   39  C   UNK N   1      27.539  12.244   1.758  0.00  0.00     0.032 C 
HETATM   40  C   UNK N   1      27.784  13.706   2.033  0.00  0.00     0.032 C 
HETATM   41  C   UNK N   1      27.491  13.864   3.504  0.00  0.00     0.273 C 
ENDBRANCH  36  37
ENDBRANCH  26  36
ENDBRANCH   1  22
TORSDOF 8
ENDMDL
MODEL 7
REMARK VINA RESULT:      -7.3      2.732      3.484
REMARK  8 active torsions:
REMARK  status: ('A' for Active; 'I' for Inactive)
REMARK    1  A    between atoms: O_2  and  C_3 
REMARK    2  A    between atoms: C_10  and  N_20 
REMARK    3  A    between atoms: N_20  and  C_21 
REMARK    4  A    between atoms: C_23  and  C_34 
REMARK    5  A    between atoms: C_24  and  O_33 
REMARK    6  A    between atoms: C_25  and  C_27 
REMARK    7  A    between atoms: C_27  and  N_28 
REMARK    8  A    between atoms: C_34  and  N_35 
ROOT
HETATM    1  N   UNK N   1      26.549  16.019   6.798  0.00  0.00    -0.354 N 
HETATM    2  H   UNK N   1      26.395  16.458   7.667  0.00  0.00     0.166 HD
ENDROOT
BRANCH   1   3
HETATM    3  C   UNK N   1      27.295  16.829   5.873  0.00  0.00     0.074 A 
HETATM    4  C   UNK N   1      28.709  16.802   5.712  0.00  0.00     0.089 A 
HETATM    5  C   UNK N   1      29.323  17.715   4.823  0.00  0.00     0.062 A 
HETATM    6  N   UNK N   1      29.489  15.915   6.373  0.00  0.00    -0.333 N 
HETATM    7  C   UNK N   1      30.710  17.702   4.675  0.00  0.00     0.036 A 
HETATM    8  N   UNK N   1      28.581  18.599   4.116  0.00  0.00    -0.354 N 
HETATM    9  C   UNK N   1      31.477  16.783   5.386  0.00  0.00     0.058 A 
HETATM   10  C   UNK N   1      30.842  15.872   6.243  0.00  0.00     0.142 A 
HETATM   11  C   UNK N   1      27.230  18.637   4.221  0.00  0.00     0.046 A 
ATOM     12  HN  UNK N   1      29.050  19.254   3.489  1.00  0.00     0.166 HD
HETATM   13  C   UNK N   1      26.504  19.564   3.469  0.00  0.00     0.054 A 
HETATM   14  C   UNK N   1      26.561  17.751   5.096  0.00  0.00     0.020 A 
HETATM   15  C   UNK N   1      25.112  19.619   3.574  0.00  0.00     0.036 A 
HETATM   16  C   UNK N   1      24.441  18.747   4.435  0.00  0.00     0.025 A 
HETATM   17 Cl   UNK N   1      24.211  20.785   2.630  0.00  0.00    -0.084 Cl
HETATM   18  C   UNK N   1      25.160  17.821   5.194  0.00  0.00     0.018 A 
ATOM     19  HN  UNK N   1      29.041  15.246   7.000  1.00  0.00     0.168 HD
BRANCH  10  20
HETATM   20  O   UNK N   1      31.540  14.951   6.945  0.00  0.00    -0.341 OA
HETATM   21  C   UNK N   1      32.914  14.877   6.940  0.00  0.00     0.211 C 
ENDBRANCH  10  20
ENDBRANCH   1   3
BRANCH   1  22
HETATM   22  C   UNK N   1      25.985  14.710   6.713  0.00  0.00     0.033 A 
HETATM   23  C   UNK N   1      25.015  14.210   7.588  0.00  0.00     0.041 A 
HETATM   24  C   UNK N   1      24.432  12.953   7.383  0.00  0.00     0.006 A 
HETATM   25  C   UNK N   1      24.807  12.188   6.270  0.00  0.00     0.082 A 
HETATM   26  C   UNK N   1      25.788  12.674   5.392  0.00  0.00     0.006 A 
HETATM   27  C   UNK N   1      26.364  13.926   5.626  0.00  0.00     0.041 A 
BRANCH  24  28
HETATM   28  C   UNK N   1      23.369  12.465   8.320  0.00  0.00     0.313 C 
BRANCH  28  29
HETATM   29  N   UNK N   1      23.197  13.376   9.446  0.00  0.00     0.092 N 
HETATM   30  C   UNK N   1      21.841  13.908   9.379  0.00  0.00     0.273 C 
HETATM   31  C   UNK N   1      20.939  13.071  10.268  0.00  0.00     0.032 C 
HETATM   32  C   UNK N   1      21.846  12.076  10.946  0.00  0.00     0.032 C 
HETATM   33  C   UNK N   1      23.243  12.590  10.674  0.00  0.00     0.273 C 
ENDBRANCH  28  29
ENDBRANCH  24  28
BRANCH  25  34
HETATM   34  O   UNK N   1      24.225  10.996   6.041  0.00  0.00    -0.359 OA
HETATM   35  H   UNK N   1      23.949  10.696   5.197  0.00  0.00     0.217 HD
ENDBRANCH  25  34
BRANCH  26  36
HETATM   36  C   UNK N   1      26.171  11.905   4.162  0.00  0.00     0.313 C 
BRANCH  36  37
HETATM   37  N   UNK N   1      26.166  12.722   2.946  0.00  0.00     0.092 N 
HETATM   38  C   UNK N   1      27.456  12.513   2.299  0.00  0.00     0.273 C 
HETATM   39  C   UNK N   1      27.300  11.432   1.241  0.00  0.00     0.032 C 
HETATM   40  C   UNK N   1      25.827  11.119   1.191  0.00  0.00     0.032 C 
HETATM   41  C   UNK N   1      25.182  12.227   1.988  0.00  0.00     0.273 C 
ENDBRANCH  36  37
ENDBRANCH  26  36
ENDBRANCH   1  22
TORSDOF 8
ENDMDL
MODEL 8
REMARK VINA RESULT:      -7.2      2.570      6.148
REMARK  8 active torsions:
REMARK  status: ('A' for Active; 'I' for Inactive)
REMARK    1  A    between atoms: O_2  and  C_3 
REMARK    2  A    between atoms: C_10  and  N_20 
REMARK    3  A    between atoms: N_20  and  C_21 
REMARK    4  A    between atoms: C_23  and  C_34 
REMARK    5  A    between atoms: C_24  and  O_33 
REMARK    6  A    between atoms: C_25  and  C_27 
REMARK    7  A    between atoms: C_27  and  N_28 
REMARK    8  A    between atoms: C_34  and  N_35 
ROOT
HETATM    1  N   UNK N   1      24.747  17.316   5.350  0.00  0.00    -0.354 N 
HETATM    2  H   UNK N   1      25.101  17.764   6.153  0.00  0.00     0.166 HD
ENDROOT
BRANCH   1   3
HETATM    3  C   UNK N   1      23.310  17.278   5.304  0.00  0.00     0.074 A 
HETATM    4  C   UNK N   1      22.490  16.343   5.995  0.00  0.00     0.089 A 
HETATM    5  C   UNK N   1      21.090  16.366   5.793  0.00  0.00     0.062 A 
HETATM    6  N   UNK N   1      23.006  15.438   6.860  0.00  0.00    -0.333 N 
HETATM    7  C   UNK N   1      20.284  15.441   6.457  0.00  0.00     0.036 A 
HETATM    8  N   UNK N   1      20.525  17.274   4.963  0.00  0.00    -0.354 N 
HETATM    9  C   UNK N   1      20.858  14.517   7.326  0.00  0.00     0.058 A 
HETATM   10  C   UNK N   1      22.246  14.531   7.528  0.00  0.00     0.142 A 
HETATM   11  C   UNK N   1      21.270  18.197   4.308  0.00  0.00     0.046 A 
ATOM     12  HN  UNK N   1      19.514  17.262   4.826  1.00  0.00     0.166 HD
HETATM   13  C   UNK N   1      20.643  19.118   3.463  0.00  0.00     0.054 A 
HETATM   14  C   UNK N   1      22.674  18.221   4.469  0.00  0.00     0.020 A 
HETATM   15  C   UNK N   1      21.400  20.070   2.776  0.00  0.00     0.036 A 
HETATM   16  C   UNK N   1      22.788  20.103   2.928  0.00  0.00     0.025 A 
HETATM   17 Cl   UNK N   1      20.607  21.217   1.718  0.00  0.00    -0.084 Cl
HETATM   18  C   UNK N   1      23.422  19.182   3.766  0.00  0.00     0.018 A 
ATOM     19  HN  UNK N   1      24.015  15.436   7.018  1.00  0.00     0.168 HD
BRANCH  10  20
HETATM   20  O   UNK N   1      22.850  13.663   8.372  0.00  0.00    -0.341 OA
HETATM   21  C   UNK N   1      22.418  13.434   9.659  0.00  0.00     0.211 C 
ENDBRANCH  10  20
ENDBRANCH   1   3
BRANCH   1  22
HETATM   22  C   UNK N   1      25.764  16.838   4.469  0.00  0.00     0.033 A 
HETATM   23  C   UNK N   1      27.127  17.117   4.611  0.00  0.00     0.041 A 
HETATM   24  C   UNK N   1      28.080  16.530   3.769  0.00  0.00     0.006 A 
HETATM   25  C   UNK N   1      27.667  15.628   2.778  0.00  0.00     0.082 A 
HETATM   26  C   UNK N   1      26.302  15.350   2.618  0.00  0.00     0.006 A 
HETATM   27  C   UNK N   1      25.369  15.959   3.463  0.00  0.00     0.041 A 
BRANCH  24  28
HETATM   28  C   UNK N   1      29.535  16.823   3.974  0.00  0.00     0.313 C 
BRANCH  28  29
HETATM   29  N   UNK N   1      30.043  16.165   5.173  0.00  0.00     0.092 N 
HETATM   30  C   UNK N   1      31.059  15.207   4.753  0.00  0.00     0.273 C 
HETATM   31  C   UNK N   1      32.426  15.859   4.858  0.00  0.00     0.032 C 
HETATM   32  C   UNK N   1      32.182  17.220   5.460  0.00  0.00     0.032 C 
HETATM   33  C   UNK N   1      30.757  17.161   5.966  0.00  0.00     0.273 C 
ENDBRANCH  28  29
ENDBRANCH  24  28
BRANCH  25  34
HETATM   34  O   UNK N   1      28.578  15.027   1.989  0.00  0.00    -0.359 OA
HETATM   35  H   UNK N   1      29.419  15.386   1.785  0.00  0.00     0.217 HD
ENDBRANCH  25  34
BRANCH  26  36
HETATM   36  C   UNK N   1      25.833  14.347   1.605  0.00  0.00     0.313 C 
BRANCH  36  37
HETATM   37  N   UNK N   1      24.511  13.794   1.909  0.00  0.00     0.092 N 
HETATM   38  C   UNK N   1      23.667  14.076   0.754  0.00  0.00     0.273 C 
HETATM   39  C   UNK N   1      23.662  12.857  -0.155  0.00  0.00     0.032 C 
HETATM   40  C   UNK N   1      24.422  11.790   0.591  0.00  0.00     0.032 C 
HETATM   41  C   UNK N   1      24.560  12.337   1.990  0.00  0.00     0.273 C 
ENDBRANCH  36  37
ENDBRANCH  26  36
ENDBRANCH   1  22
TORSDOF 8
ENDMDL
MODEL 9
REMARK VINA RESULT:      -7.2     14.132     15.951
REMARK  8 active torsions:
REMARK  status: ('A' for Active; 'I' for Inactive)
REMARK    1  A    between atoms: O_2  and  C_3 
REMARK    2  A    between atoms: C_10  and  N_20 
REMARK    3  A    between atoms: N_20  and  C_21 
REMARK    4  A    between atoms: C_23  and  C_34 
REMARK    5  A    between atoms: C_24  and  O_33 
REMARK    6  A    between atoms: C_25  and  C_27 
REMARK    7  A    between atoms: C_27  and  N_28 
REMARK    8  A    between atoms: C_34  and  N_35 
ROOT
HETATM    1  N   UNK N   1      28.589  23.905  -4.460  0.00  0.00    -0.354 N 
HETATM    2  H   UNK N   1      28.307  23.286  -3.747  0.00  0.00     0.166 HD
ENDROOT
BRANCH   1   3
HETATM    3  C   UNK N   1      27.497  24.396  -5.256  0.00  0.00     0.074 A 
HETATM    4  C   UNK N   1      26.733  25.564  -4.974  0.00  0.00     0.089 A 
HETATM    5  C   UNK N   1      25.629  25.886  -5.797  0.00  0.00     0.062 A 
HETATM    6  N   UNK N   1      27.042  26.391  -3.948  0.00  0.00    -0.333 N 
HETATM    7  C   UNK N   1      24.869  27.021  -5.515  0.00  0.00     0.036 A 
HETATM    8  N   UNK N   1      25.303  25.107  -6.855  0.00  0.00    -0.354 N 
HETATM    9  C   UNK N   1      25.211  27.837  -4.439  0.00  0.00     0.058 A 
HETATM   10  C   UNK N   1      26.326  27.509  -3.653  0.00  0.00     0.142 A 
HETATM   11  C   UNK N   1      26.021  24.002  -7.172  0.00  0.00     0.046 A 
ATOM     12  HN  UNK N   1      24.495  25.355  -7.427  1.00  0.00     0.166 HD
HETATM   13  C   UNK N   1      25.649  23.229  -8.275  0.00  0.00     0.054 A 
HETATM   14  C   UNK N   1      27.134  23.629  -6.384  0.00  0.00     0.020 A 
HETATM   15  C   UNK N   1      26.377  22.084  -8.608  0.00  0.00     0.036 A 
HETATM   16  C   UNK N   1      27.479  21.706  -7.836  0.00  0.00     0.025 A 
HETATM   17 Cl   UNK N   1      25.903  21.119  -9.989  0.00  0.00    -0.084 Cl
HETATM   18  C   UNK N   1      27.853  22.471  -6.729  0.00  0.00     0.018 A 
ATOM     19  HN  UNK N   1      27.850  26.166  -3.367  1.00  0.00     0.168 HD
BRANCH  10  20
HETATM   20  O   UNK N   1      26.708  28.275  -2.606  0.00  0.00    -0.341 OA
HETATM   21  C   UNK N   1      27.785  29.132  -2.649  0.00  0.00     0.211 C 
ENDBRANCH  10  20
ENDBRANCH   1   3
BRANCH   1  22
HETATM   22  C   UNK N   1      29.998  24.132  -4.492  0.00  0.00     0.033 A 
HETATM   23  C   UNK N   1      30.955  23.133  -4.702  0.00  0.00     0.041 A 
HETATM   24  C   UNK N   1      32.314  23.444  -4.824  0.00  0.00     0.006 A 
HETATM   25  C   UNK N   1      32.728  24.782  -4.757  0.00  0.00     0.082 A 
HETATM   26  C   UNK N   1      31.779  25.791  -4.534  0.00  0.00     0.006 A 
HETATM   27  C   UNK N   1      30.429  25.453  -4.404  0.00  0.00     0.041 A 
BRANCH  24  28
HETATM   28  C   UNK N   1      33.307  22.352  -5.085  0.00  0.00     0.313 C 
BRANCH  28  29
HETATM   29  N   UNK N   1      32.822  21.067  -4.590  0.00  0.00     0.092 N 
HETATM   30  C   UNK N   1      32.862  20.123  -5.701  0.00  0.00     0.273 C 
HETATM   31  C   UNK N   1      34.166  19.348  -5.643  0.00  0.00     0.032 C 
HETATM   32  C   UNK N   1      34.855  19.806  -4.383  0.00  0.00     0.032 C 
HETATM   33  C   UNK N   1      33.790  20.564  -3.621  0.00  0.00     0.273 C 
ENDBRANCH  28  29
ENDBRANCH  24  28
BRANCH  25  34
HETATM   34  O   UNK N   1      34.028  25.096  -4.913  0.00  0.00    -0.359 OA
HETATM   35  H   UNK N   1      34.689  24.942  -4.267  0.00  0.00     0.217 HD
ENDBRANCH  25  34
BRANCH  26  36
HETATM   36  C   UNK N   1      32.183  27.237  -4.514  0.00  0.00     0.313 C 
BRANCH  36  37
HETATM   37  N   UNK N   1      31.134  28.121  -4.002  0.00  0.00     0.092 N 
HETATM   38  C   UNK N   1      31.478  28.415  -2.615  0.00  0.00     0.273 C 
HETATM   39  C   UNK N   1      32.229  29.736  -2.570  0.00  0.00     0.032 C 
HETATM   40  C   UNK N   1      32.181  30.281  -3.974  0.00  0.00     0.032 C 
HETATM   41  C   UNK N   1      31.165  29.415  -4.677  0.00  0.00     0.273 C 
ENDBRANCH  36  37
ENDBRANCH  26  36
ENDBRANCH   1  22
TORSDOF 8
ENDMDL
