REMARK  7 active torsions:
REMARK  status: ('A' for Active; 'I' for Inactive)
REMARK       I    between atoms: N_2  and  C_3 
REMARK    1  A    between atoms: C_5  and  C_3 
REMARK    2  A    between atoms: C_6  and  O_33 
REMARK    3  A    between atoms: C_7  and  O_32 
REMARK    4  A    between atoms: C_8  and  N_10 
REMARK    5  A    between atoms: C_21  and  N_22 
REMARK    6  A    between atoms: N_22  and  C_23 
REMARK    7  A    between atoms: C_23  and  C_24 
ROOT
HETATM    1  N   UNK N   1      -0.154   0.424   0.256  0.00  0.00    -0.297 N 
HETATM    2  C   UNK N   1      -0.913  -0.533  -0.340  0.00  0.00     0.188 A 
HETATM    3  N   UNK N   1      -0.147  -1.581  -0.755  0.00  0.00    -0.346 N 
ATOM      4  HN  UNK N   1      -0.453  -2.432  -1.227  1.00  0.00     0.167 HD
HETATM    5  C   UNK N   1       1.106  -1.237  -0.400  0.00  0.00     0.122 A 
HETATM    6  C   UNK N   1       1.095  -0.048   0.222  0.00  0.00     0.144 A 
HETATM    7  N   UNK N   1       2.222   0.552   0.676  0.00  0.00    -0.316 N 
ATOM      8  HN  UNK N   1       2.184   1.462   1.135  1.00  0.00     0.170 HD
HETATM    9  C   UNK N   1       3.411  -0.100   0.499  0.00  0.00     0.182 A 
HETATM   10  N   UNK N   1       3.447  -1.319  -0.135  0.00  0.00    -0.317 N 
ATOM     11  HN  UNK N   1       4.340  -1.795  -0.259  1.00  0.00     0.170 HD
HETATM   12  C   UNK N   1       2.299  -1.902  -0.602  0.00  0.00     0.134 A 
HETATM   13 Cl   UNK N   1       4.896   0.638   1.057  0.00  0.00    -0.045 Cl
ENDROOT
BRANCH   1  14
HETATM   14  C   UNK N   1      -0.579   1.734   0.748  0.00  0.00     0.263 C 
HETATM   15  C   UNK N   1       0.185   2.849   0.013  0.00  0.00     0.199 C 
HETATM   16  C   UNK N   1      -0.851   3.915  -0.057  0.00  0.00     0.189 C 
HETATM   17  C   UNK N   1      -2.068   3.038  -0.298  0.00  0.00     0.247 C 
HETATM   18  O   UNK N   1      -1.969   1.931   0.564  0.00  0.00    -0.346 OA
BRANCH  15  19
HETATM   19  O   UNK N   1       0.501   2.463  -1.297  0.00  0.00    -0.388 OA
HETATM   20  H   UNK N   1       0.379   2.140  -2.203  0.00  0.00     0.210 HD
ENDBRANCH  15  19
BRANCH  16  21
HETATM   21  O   UNK N   1      -0.936   4.541   1.192  0.00  0.00    -0.390 OA
HETATM   22  H   UNK N   1      -0.589   4.809   2.058  0.00  0.00     0.210 HD
ENDBRANCH  16  21
BRANCH  17  23
HETATM   23  C   UNK N   1      -3.393   3.746  -0.199  0.00  0.00     0.249 C 
HETATM   24  N   UNK N   1      -3.442   5.084   0.021  0.00  0.00    -0.363 N 
HETATM   25  C   UNK N   1      -4.686   5.807   0.076  0.00  0.00     0.149 C 
HETATM   26  H   UNK N   1      -2.599   5.576   0.146  0.00  0.00     0.162 HD
HETATM   27  O   UNK N   1      -4.424   3.109  -0.360  0.00  0.00    -0.271 OA
ENDBRANCH  17  23
ENDBRANCH   1  14
BRANCH  12  28
HETATM   28  N   UNK N   1       2.324  -3.137  -1.278  0.00  0.00    -0.370 N 
HETATM   29  H   UNK N   1       1.558  -3.393  -1.841  0.00  0.00     0.161 HD
BRANCH  28  30
HETATM   30  C   UNK N   1       3.443  -4.034  -1.164  0.00  0.00     0.160 C 
BRANCH  30  31
HETATM   31  C   UNK N   1       3.001  -5.294  -0.486  0.00  0.00    -0.039 A 
HETATM   32  C   UNK N   1       3.954  -6.219  -0.051  0.00  0.00     0.009 A 
HETATM   33  C   UNK N   1       3.548  -7.384   0.610  0.00  0.00     0.002 A 
HETATM   34  C   UNK N   1       2.188  -7.628   0.833  0.00  0.00     0.018 A 
HETATM   35  C   UNK N   1       1.233  -6.708   0.395  0.00  0.00     0.007 A 
HETATM   36  C   UNK N   1       1.638  -5.547  -0.258  0.00  0.00     0.027 A 
HETATM   37  I   UNK N   1      -0.818  -7.051   0.710  0.00  0.00    -0.045 I 
ENDBRANCH  30  31
ENDBRANCH  28  30
ENDBRANCH  12  28
TORSDOF 7
