MODEL 1
REMARK VINA RESULT:      -7.1      0.000      0.000
REMARK  7 active torsions:
REMARK  status: ('A' for Active; 'I' for Inactive)
REMARK    1  A    between atoms: C_12  and  C_5 
REMARK    2  A    between atoms: C_13  and  C_5 
REMARK    3  A    between atoms: N_24  and  C_12 
REMARK    4  A    between atoms: N_26  and  C_13 
REMARK    5  A    between atoms: C_19  and  C_18 
REMARK    6  A    between atoms: N_25  and  C_18 
REMARK    7  A    between atoms: O_27  and  C_19 
ROOT
HETATM    1  C   UNK N   1      32.199  16.666   2.686  0.00  0.00     0.001 A 
HETATM    2  C   UNK N   1      28.252  17.986   9.468  0.00  0.00     0.001 A 
HETATM    3  C   UNK N   1      33.218  17.164   3.475  0.00  0.00     0.002 A 
HETATM    4  C   UNK N   1      29.519  18.399   9.836  0.00  0.00     0.002 A 
HETATM    5  C   UNK N   1      30.960  16.411   3.254  0.00  0.00     0.014 A 
HETATM    6  C   UNK N   1      28.064  17.382   8.233  0.00  0.00     0.014 A 
HETATM    7  C   UNK N   1      32.984  17.406   4.825  0.00  0.00     0.030 A 
HETATM    8  C   UNK N   1      30.584  18.209   8.961  0.00  0.00     0.030 A 
HETATM    9  C   UNK N   1      29.351  16.305   4.997  0.00  0.00     0.014 C 
HETATM   10  C   UNK N   1      28.703  16.525   6.115  0.00  0.00     0.014 C 
HETATM   11  C   UNK N   1      30.698  16.662   4.611  0.00  0.00    -0.009 A 
HETATM   12  C   UNK N   1      29.121  17.194   7.329  0.00  0.00    -0.009 A 
HETATM   13  C   UNK N   1      31.729  17.183   5.445  0.00  0.00     0.045 A 
HETATM   14  C   UNK N   1      30.436  17.621   7.681  0.00  0.00     0.045 A 
HETATM   15  N   UNK N   1      31.636  17.508   6.862  0.00  0.00    -0.345 N 
ENDROOT
BRANCH  15  16
HETATM   16  C   UNK N   1      32.922  17.765   7.529  0.00  0.00     0.131 C 
BRANCH  16  17
HETATM   17  C   UNK N   1      33.591  16.524   8.141  0.00  0.00     0.050 C 
BRANCH  17  18
HETATM   18  C   UNK N   1      34.622  16.891   9.208  0.00  0.00     0.274 C 
BRANCH  18  19
HETATM   19  N   UNK N   1      34.986  15.802  10.121  0.00  0.00     0.091 N 
HETATM   20  C   UNK N   1      35.722  14.748   9.435  0.00  0.00     0.302 C 
HETATM   21  C   UNK N   1      35.830  13.549  10.383  0.00  0.00     0.302 C 
HETATM   22  N   UNK N   1      36.510  13.926  11.629  0.00  0.00     0.093 N 
HETATM   23  C   UNK N   1      35.847  15.071  12.257  0.00  0.00     0.302 C 
HETATM   24  C   UNK N   1      35.760  16.233  11.282  0.00  0.00     0.302 C 
BRANCH  22  25
HETATM   25  C   UNK N   1      36.342  12.818  12.555  0.00  0.00     0.298 C 
BRANCH  25  26
HETATM   26  C   UNK N   1      34.954  12.222  12.417  0.00  0.00     0.194 C 
BRANCH  26  27
HETATM   27  O   UNK N   1      34.294  12.285  13.643  0.00  0.00    -0.399 OA
HETATM   28  H   UNK N   1      34.782  12.224  14.480  0.00  0.00     0.209 HD
ENDBRANCH  26  27
ENDBRANCH  25  26
ENDBRANCH  22  25
ENDBRANCH  18  19
ENDBRANCH  17  18
ENDBRANCH  16  17
ENDBRANCH  15  16
TORSDOF 7
ENDMDL
MODEL 2
REMARK VINA RESULT:      -7.1     14.285     18.085
REMARK  7 active torsions:
REMARK  status: ('A' for Active; 'I' for Inactive)
REMARK    1  A    between atoms: C_12  and  C_5 
REMARK    2  A    between atoms: C_13  and  C_5 
REMARK    3  A    between atoms: N_24  and  C_12 
REMARK    4  A    between atoms: N_26  and  C_13 
REMARK    5  A    between atoms: C_19  and  C_18 
REMARK    6  A    between atoms: N_25  and  C_18 
REMARK    7  A    between atoms: O_27  and  C_19 
ROOT
HETATM    1  C   UNK N   1      27.296  30.325  -4.192  0.00  0.00     0.001 A 
HETATM    2  C   UNK N   1      26.789  25.219 -10.274  0.00  0.00     0.001 A 
HETATM    3  C   UNK N   1      26.322  29.468  -3.718  0.00  0.00     0.002 A 
HETATM    4  C   UNK N   1      25.848  24.678  -9.418  0.00  0.00     0.002 A 
HETATM    5  C   UNK N   1      27.956  30.020  -5.374  0.00  0.00     0.014 A 
HETATM    6  C   UNK N   1      27.580  26.272  -9.838  0.00  0.00     0.014 A 
HETATM    7  C   UNK N   1      26.015  28.316  -4.436  0.00  0.00     0.030 A 
HETATM    8  C   UNK N   1      25.703  25.200  -8.137  0.00  0.00     0.030 A 
HETATM    9  C   UNK N   1      28.470  28.738  -7.305  0.00  0.00     0.014 C 
HETATM   10  C   UNK N   1      28.383  27.896  -8.305  0.00  0.00     0.014 C 
HETATM   11  C   UNK N   1      27.650  28.871  -6.120  0.00  0.00    -0.009 A 
HETATM   12  C   UNK N   1      27.442  26.824  -8.555  0.00  0.00    -0.009 A 
HETATM   13  C   UNK N   1      26.643  27.974  -5.659  0.00  0.00     0.045 A 
HETATM   14  C   UNK N   1      26.471  26.290  -7.657  0.00  0.00     0.045 A 
HETATM   15  N   UNK N   1      26.194  26.747  -6.301  0.00  0.00    -0.345 N 
ENDROOT
BRANCH  15  16
HETATM   16  C   UNK N   1      25.344  25.881  -5.469  0.00  0.00     0.131 C 
BRANCH  16  17
HETATM   17  C   UNK N   1      26.040  24.622  -4.928  0.00  0.00     0.050 C 
BRANCH  17  18
HETATM   18  C   UNK N   1      26.968  24.934  -3.754  0.00  0.00     0.274 C 
BRANCH  18  19
HETATM   19  N   UNK N   1      28.256  24.233  -3.777  0.00  0.00     0.091 N 
HETATM   20  C   UNK N   1      28.468  23.540  -5.042  0.00  0.00     0.302 C 
HETATM   21  C   UNK N   1      29.693  22.632  -4.886  0.00  0.00     0.302 C 
HETATM   22  N   UNK N   1      30.882  23.413  -4.520  0.00  0.00     0.093 N 
HETATM   23  C   UNK N   1      30.629  24.212  -3.319  0.00  0.00     0.302 C 
HETATM   24  C   UNK N   1      29.406  25.094  -3.517  0.00  0.00     0.302 C 
BRANCH  22  25
HETATM   25  C   UNK N   1      31.915  22.461  -4.148  0.00  0.00     0.298 C 
BRANCH  25  26
HETATM   26  C   UNK N   1      31.480  21.656  -2.939  0.00  0.00     0.194 C 
BRANCH  26  27
HETATM   27  O   UNK N   1      32.598  21.311  -2.181  0.00  0.00    -0.399 OA
HETATM   28  H   UNK N   1      33.377  21.887  -2.143  0.00  0.00     0.209 HD
ENDBRANCH  26  27
ENDBRANCH  25  26
ENDBRANCH  22  25
ENDBRANCH  18  19
ENDBRANCH  17  18
ENDBRANCH  16  17
ENDBRANCH  15  16
TORSDOF 7
ENDMDL
MODEL 3
REMARK VINA RESULT:      -6.9      4.306     10.287
REMARK  7 active torsions:
REMARK  status: ('A' for Active; 'I' for Inactive)
REMARK    1  A    between atoms: C_12  and  C_5 
REMARK    2  A    between atoms: C_13  and  C_5 
REMARK    3  A    between atoms: N_24  and  C_12 
REMARK    4  A    between atoms: N_26  and  C_13 
REMARK    5  A    between atoms: C_19  and  C_18 
REMARK    6  A    between atoms: N_25  and  C_18 
REMARK    7  A    between atoms: O_27  and  C_19 
ROOT
HETATM    1  C   UNK N   1      35.327   8.135  12.867  0.00  0.00     0.001 A 
HETATM    2  C   UNK N   1      35.401  12.330  19.628  0.00  0.00     0.001 A 
HETATM    3  C   UNK N   1      34.996   9.387  12.388  0.00  0.00     0.002 A 
HETATM    4  C   UNK N   1      35.068  13.323  18.726  0.00  0.00     0.002 A 
HETATM    5  C   UNK N   1      35.694   7.990  14.197  0.00  0.00     0.014 A 
HETATM    6  C   UNK N   1      35.746  11.071  19.159  0.00  0.00     0.014 A 
HETATM    7  C   UNK N   1      35.030  10.481  13.247  0.00  0.00     0.030 A 
HETATM    8  C   UNK N   1      35.076  13.043  17.363  0.00  0.00     0.030 A 
HETATM    9  C   UNK N   1      36.150   8.706  16.415  0.00  0.00     0.014 C 
HETATM   10  C   UNK N   1      36.160   9.399  17.527  0.00  0.00     0.014 C 
HETATM   11  C   UNK N   1      35.721   9.078  15.084  0.00  0.00    -0.009 A 
HETATM   12  C   UNK N   1      35.747  10.762  17.791  0.00  0.00    -0.009 A 
HETATM   13  C   UNK N   1      35.375  10.379  14.618  0.00  0.00     0.045 A 
HETATM   14  C   UNK N   1      35.397  11.766  16.840  0.00  0.00     0.045 A 
HETATM   15  N   UNK N   1      35.341  11.613  15.392  0.00  0.00    -0.345 N 
ENDROOT
BRANCH  15  16
HETATM   16  C   UNK N   1      35.220  12.845  14.597  0.00  0.00     0.131 C 
BRANCH  16  17
HETATM   17  C   UNK N   1      36.552  13.543  14.282  0.00  0.00     0.050 C 
BRANCH  17  18
HETATM   18  C   UNK N   1      36.358  14.805  13.442  0.00  0.00     0.274 C 
BRANCH  18  19
HETATM   19  N   UNK N   1      35.725  14.591  12.136  0.00  0.00     0.091 N 
HETATM   20  C   UNK N   1      35.456  15.853  11.457  0.00  0.00     0.302 C 
HETATM   21  C   UNK N   1      34.570  15.559  10.242  0.00  0.00     0.302 C 
HETATM   22  N   UNK N   1      35.227  14.611   9.331  0.00  0.00     0.093 N 
HETATM   23  C   UNK N   1      35.615  13.391  10.042  0.00  0.00     0.302 C 
HETATM   24  C   UNK N   1      36.489  13.730  11.239  0.00  0.00     0.302 C 
BRANCH  22  25
HETATM   25  C   UNK N   1      34.228  14.199   8.359  0.00  0.00     0.298 C 
BRANCH  25  26
HETATM   26  C   UNK N   1      32.837  14.310   8.951  0.00  0.00     0.194 C 
BRANCH  26  27
HETATM   27  O   UNK N   1      32.334  13.035   9.205  0.00  0.00    -0.399 OA
HETATM   28  H   UNK N   1      32.900  12.334   9.564  0.00  0.00     0.209 HD
ENDBRANCH  26  27
ENDBRANCH  25  26
ENDBRANCH  22  25
ENDBRANCH  18  19
ENDBRANCH  17  18
ENDBRANCH  16  17
ENDBRANCH  15  16
TORSDOF 7
ENDMDL
MODEL 4
REMARK VINA RESULT:      -6.9      3.956     10.239
REMARK  7 active torsions:
REMARK  status: ('A' for Active; 'I' for Inactive)
REMARK    1  A    between atoms: C_12  and  C_5 
REMARK    2  A    between atoms: C_13  and  C_5 
REMARK    3  A    between atoms: N_24  and  C_12 
REMARK    4  A    between atoms: N_26  and  C_13 
REMARK    5  A    between atoms: C_19  and  C_18 
REMARK    6  A    between atoms: N_25  and  C_18 
REMARK    7  A    between atoms: O_27  and  C_19 
ROOT
HETATM    1  C   UNK N   1      35.353   7.802  12.849  0.00  0.00     0.001 A 
HETATM    2  C   UNK N   1      35.285  12.844  19.006  0.00  0.00     0.001 A 
HETATM    3  C   UNK N   1      34.971   8.968  12.214  0.00  0.00     0.002 A 
HETATM    4  C   UNK N   1      34.910  13.696  17.984  0.00  0.00     0.002 A 
HETATM    5  C   UNK N   1      35.730   7.846  14.184  0.00  0.00     0.014 A 
HETATM    6  C   UNK N   1      35.677  11.548  18.702  0.00  0.00     0.014 A 
HETATM    7  C   UNK N   1      34.966  10.165  12.923  0.00  0.00     0.030 A 
HETATM    8  C   UNK N   1      34.925  13.242  16.670  0.00  0.00     0.030 A 
HETATM    9  C   UNK N   1      36.164   8.863  16.285  0.00  0.00     0.014 C 
HETATM   10  C   UNK N   1      36.150   9.695  17.298  0.00  0.00     0.014 C 
HETATM   11  C   UNK N   1      35.716   9.041  14.921  0.00  0.00    -0.009 A 
HETATM   12  C   UNK N   1      35.686  11.064  17.385  0.00  0.00    -0.009 A 
HETATM   13  C   UNK N   1      35.318  10.256  14.292  0.00  0.00     0.045 A 
HETATM   14  C   UNK N   1      35.293  11.921  16.314  0.00  0.00     0.045 A 
HETATM   15  N   UNK N   1      35.239  11.578  14.899  0.00  0.00    -0.345 N 
ENDROOT
BRANCH  15  16
HETATM   16  C   UNK N   1      35.067  12.690  13.952  0.00  0.00     0.131 C 
BRANCH  16  17
HETATM   17  C   UNK N   1      36.370  13.391  13.537  0.00  0.00     0.050 C 
BRANCH  17  18
HETATM   18  C   UNK N   1      36.578  13.375  12.023  0.00  0.00     0.274 C 
BRANCH  18  19
HETATM   19  N   UNK N   1      35.727  14.302  11.269  0.00  0.00     0.091 N 
HETATM   20  C   UNK N   1      36.319  15.632  11.190  0.00  0.00     0.302 C 
HETATM   21  C   UNK N   1      35.265  16.589  10.625  0.00  0.00     0.302 C 
HETATM   22  N   UNK N   1      34.811  16.147   9.300  0.00  0.00     0.093 N 
HETATM   23  C   UNK N   1      34.334  14.764   9.349  0.00  0.00     0.302 C 
HETATM   24  C   UNK N   1      35.410  13.852   9.916  0.00  0.00     0.302 C 
BRANCH  22  25
HETATM   25  C   UNK N   1      33.650  16.952   8.960  0.00  0.00     0.298 C 
BRANCH  25  26
HETATM   26  C   UNK N   1      33.551  17.127   7.457  0.00  0.00     0.194 C 
BRANCH  26  27
HETATM   27  O   UNK N   1      34.642  17.865   7.000  0.00  0.00    -0.399 OA
HETATM   28  H   UNK N   1      34.858  17.909   6.055  0.00  0.00     0.209 HD
ENDBRANCH  26  27
ENDBRANCH  25  26
ENDBRANCH  22  25
ENDBRANCH  18  19
ENDBRANCH  17  18
ENDBRANCH  16  17
ENDBRANCH  15  16
TORSDOF 7
ENDMDL
MODEL 5
REMARK VINA RESULT:      -6.9      7.542     10.118
REMARK  7 active torsions:
REMARK  status: ('A' for Active; 'I' for Inactive)
REMARK    1  A    between atoms: C_12  and  C_5 
REMARK    2  A    between atoms: C_13  and  C_5 
REMARK    3  A    between atoms: N_24  and  C_12 
REMARK    4  A    between atoms: N_26  and  C_13 
REMARK    5  A    between atoms: C_19  and  C_18 
REMARK    6  A    between atoms: N_25  and  C_18 
REMARK    7  A    between atoms: O_27  and  C_19 
ROOT
HETATM    1  C   UNK N   1      28.141  18.362   5.049  0.00  0.00     0.001 A 
HETATM    2  C   UNK N   1      20.710  20.240   2.909  0.00  0.00     0.001 A 
HETATM    3  C   UNK N   1      27.457  17.261   5.527  0.00  0.00     0.002 A 
HETATM    4  C   UNK N   1      20.490  19.019   3.519  0.00  0.00     0.002 A 
HETATM    5  C   UNK N   1      27.467  19.302   4.283  0.00  0.00     0.014 A 
HETATM    6  C   UNK N   1      22.011  20.679   2.715  0.00  0.00     0.014 A 
HETATM    7  C   UNK N   1      26.103  17.115   5.238  0.00  0.00     0.030 A 
HETATM    8  C   UNK N   1      21.574  18.253   3.934  0.00  0.00     0.030 A 
HETATM    9  C   UNK N   1      25.605  20.260   3.164  0.00  0.00     0.014 C 
HETATM   10  C   UNK N   1      24.379  20.567   2.814  0.00  0.00     0.014 C 
HETATM   11  C   UNK N   1      26.098  19.182   3.992  0.00  0.00    -0.009 A 
HETATM   12  C   UNK N   1      23.120  19.930   3.138  0.00  0.00    -0.009 A 
HETATM   13  C   UNK N   1      25.367  18.060   4.481  0.00  0.00     0.045 A 
HETATM   14  C   UNK N   1      22.919  18.672   3.780  0.00  0.00     0.045 A 
HETATM   15  N   UNK N   1      23.952  17.777   4.284  0.00  0.00    -0.345 N 
ENDROOT
BRANCH  15  16
HETATM   16  C   UNK N   1      23.529  16.420   4.661  0.00  0.00     0.131 C 
BRANCH  16  17
HETATM   17  C   UNK N   1      23.027  16.278   6.106  0.00  0.00     0.050 C 
BRANCH  17  18
HETATM   18  C   UNK N   1      21.956  15.196   6.242  0.00  0.00     0.274 C 
BRANCH  18  19
HETATM   19  N   UNK N   1      22.183  14.228   7.321  0.00  0.00     0.091 N 
HETATM   20  C   UNK N   1      23.604  13.999   7.546  0.00  0.00     0.302 C 
HETATM   21  C   UNK N   1      23.749  12.801   8.490  0.00  0.00     0.302 C 
HETATM   22  N   UNK N   1      23.057  13.049   9.762  0.00  0.00     0.093 N 
HETATM   23  C   UNK N   1      21.656  13.406   9.531  0.00  0.00     0.302 C 
HETATM   24  C   UNK N   1      21.561  14.596   8.589  0.00  0.00     0.302 C 
BRANCH  22  25
HETATM   25  C   UNK N   1      23.027  11.785  10.481  0.00  0.00     0.298 C 
BRANCH  25  26
HETATM   26  C   UNK N   1      23.599  11.958  11.874  0.00  0.00     0.194 C 
BRANCH  26  27
HETATM   27  O   UNK N   1      24.937  12.339  11.787  0.00  0.00    -0.399 OA
HETATM   28  H   UNK N   1      25.629  11.855  12.263  0.00  0.00     0.209 HD
ENDBRANCH  26  27
ENDBRANCH  25  26
ENDBRANCH  22  25
ENDBRANCH  18  19
ENDBRANCH  17  18
ENDBRANCH  16  17
ENDBRANCH  15  16
TORSDOF 7
ENDMDL
MODEL 6
REMARK VINA RESULT:      -6.8      5.143      9.293
REMARK  7 active torsions:
REMARK  status: ('A' for Active; 'I' for Inactive)
REMARK    1  A    between atoms: C_12  and  C_5 
REMARK    2  A    between atoms: C_13  and  C_5 
REMARK    3  A    between atoms: N_24  and  C_12 
REMARK    4  A    between atoms: N_26  and  C_13 
REMARK    5  A    between atoms: C_19  and  C_18 
REMARK    6  A    between atoms: N_25  and  C_18 
REMARK    7  A    between atoms: O_27  and  C_19 
ROOT
HETATM    1  C   UNK N   1      26.384  20.937   5.191  0.00  0.00     0.001 A 
HETATM    2  C   UNK N   1      31.760  15.922   8.238  0.00  0.00     0.001 A 
HETATM    3  C   UNK N   1      26.673  20.172   4.077  0.00  0.00     0.002 A 
HETATM    4  C   UNK N   1      31.711  15.469   6.933  0.00  0.00     0.002 A 
HETATM    5  C   UNK N   1      26.915  20.575   6.421  0.00  0.00     0.014 A 
HETATM    6  C   UNK N   1      30.862  16.895   8.655  0.00  0.00     0.014 A 
HETATM    7  C   UNK N   1      27.494  19.057   4.205  0.00  0.00     0.030 A 
HETATM    8  C   UNK N   1      30.769  15.997   6.057  0.00  0.00     0.030 A 
HETATM    9  C   UNK N   1      28.181  19.258   7.937  0.00  0.00     0.014 C 
HETATM   10  C   UNK N   1      29.068  18.431   8.436  0.00  0.00     0.014 C 
HETATM   11  C   UNK N   1      27.758  19.463   6.569  0.00  0.00    -0.009 A 
HETATM   12  C   UNK N   1      29.913  17.453   7.784  0.00  0.00    -0.009 A 
HETATM   13  C   UNK N   1      28.079  18.662   5.434  0.00  0.00     0.045 A 
HETATM   14  C   UNK N   1      29.850  17.009   6.430  0.00  0.00     0.045 A 
HETATM   15  N   UNK N   1      28.935  17.485   5.400  0.00  0.00    -0.345 N 
ENDROOT
BRANCH  15  16
HETATM   16  C   UNK N   1      28.867  16.699   4.158  0.00  0.00     0.131 C 
BRANCH  16  17
HETATM   17  C   UNK N   1      27.971  15.453   4.231  0.00  0.00     0.050 C 
BRANCH  17  18
HETATM   18  C   UNK N   1      26.652  15.646   3.484  0.00  0.00     0.274 C 
BRANCH  18  19
HETATM   19  N   UNK N   1      25.502  15.982   4.330  0.00  0.00     0.091 N 
HETATM   20  C   UNK N   1      24.488  16.722   3.589  0.00  0.00     0.302 C 
HETATM   21  C   UNK N   1      23.460  17.254   4.593  0.00  0.00     0.302 C 
HETATM   22  N   UNK N   1      22.846  16.154   5.349  0.00  0.00     0.093 N 
HETATM   23  C   UNK N   1      23.872  15.329   5.991  0.00  0.00     0.302 C 
HETATM   24  C   UNK N   1      24.870  14.826   4.960  0.00  0.00     0.302 C 
BRANCH  22  25
HETATM   25  C   UNK N   1      22.090  16.756   6.434  0.00  0.00     0.298 C 
BRANCH  25  26
HETATM   26  C   UNK N   1      21.711  18.182   6.085  0.00  0.00     0.194 C 
BRANCH  26  27
HETATM   27  O   UNK N   1      20.958  18.732   7.121  0.00  0.00    -0.399 OA
HETATM   28  H   UNK N   1      21.377  19.027   7.944  0.00  0.00     0.209 HD
ENDBRANCH  26  27
ENDBRANCH  25  26
ENDBRANCH  22  25
ENDBRANCH  18  19
ENDBRANCH  17  18
ENDBRANCH  16  17
ENDBRANCH  15  16
TORSDOF 7
ENDMDL
MODEL 7
REMARK VINA RESULT:      -6.6      3.057      9.301
REMARK  7 active torsions:
REMARK  status: ('A' for Active; 'I' for Inactive)
REMARK    1  A    between atoms: C_12  and  C_5 
REMARK    2  A    between atoms: C_13  and  C_5 
REMARK    3  A    between atoms: N_24  and  C_12 
REMARK    4  A    between atoms: N_26  and  C_13 
REMARK    5  A    between atoms: C_19  and  C_18 
REMARK    6  A    between atoms: N_25  and  C_18 
REMARK    7  A    between atoms: O_27  and  C_19 
ROOT
HETATM    1  C   UNK N   1      35.735  13.718  17.259  0.00  0.00     0.001 A 
HETATM    2  C   UNK N   1      34.351   9.689  10.538  0.00  0.00     0.001 A 
HETATM    3  C   UNK N   1      36.525  14.428  16.375  0.00  0.00     0.002 A 
HETATM    4  C   UNK N   1      35.226  10.653  10.073  0.00  0.00     0.002 A 
HETATM    5  C   UNK N   1      34.897  12.724  16.777  0.00  0.00     0.014 A 
HETATM    6  C   UNK N   1      33.884   9.767  11.842  0.00  0.00     0.014 A 
HETATM    7  C   UNK N   1      36.471  14.130  15.017  0.00  0.00     0.030 A 
HETATM    8  C   UNK N   1      35.629  11.681  10.918  0.00  0.00     0.030 A 
HETATM    9  C   UNK N   1      33.885  11.348  15.127  0.00  0.00     0.014 C 
HETATM   10  C   UNK N   1      33.660  10.686  14.019  0.00  0.00     0.014 C 
HETATM   11  C   UNK N   1      34.838  12.398  15.412  0.00  0.00    -0.009 A 
HETATM   12  C   UNK N   1      34.288  10.786  12.717  0.00  0.00    -0.009 A 
HETATM   13  C   UNK N   1      35.649  13.109  14.480  0.00  0.00     0.045 A 
HETATM   14  C   UNK N   1      35.199  11.787  12.264  0.00  0.00     0.045 A 
HETATM   15  N   UNK N   1      35.723  12.904  13.040  0.00  0.00    -0.345 N 
ENDROOT
BRANCH  15  16
HETATM   16  C   UNK N   1      36.429  13.956  12.294  0.00  0.00     0.131 C 
BRANCH  16  17
HETATM   17  C   UNK N   1      35.602  15.222  12.023  0.00  0.00     0.050 C 
BRANCH  17  18
HETATM   18  C   UNK N   1      35.797  15.747  10.602  0.00  0.00     0.274 C 
BRANCH  18  19
HETATM   19  N   UNK N   1      34.580  15.796   9.784  0.00  0.00     0.091 N 
HETATM   20  C   UNK N   1      34.502  17.028   9.010  0.00  0.00     0.302 C 
HETATM   21  C   UNK N   1      33.100  17.117   8.398  0.00  0.00     0.302 C 
HETATM   22  N   UNK N   1      32.825  15.954   7.545  0.00  0.00     0.093 N 
HETATM   23  C   UNK N   1      33.029  14.706   8.285  0.00  0.00     0.302 C 
HETATM   24  C   UNK N   1      34.429  14.663   8.875  0.00  0.00     0.302 C 
BRANCH  22  25
HETATM   25  C   UNK N   1      31.409  15.992   7.221  0.00  0.00     0.298 C 
BRANCH  25  26
HETATM   26  C   UNK N   1      31.170  16.863   6.003  0.00  0.00     0.194 C 
BRANCH  26  27
HETATM   27  O   UNK N   1      29.972  17.560   6.154  0.00  0.00    -0.399 OA
HETATM   28  H   UNK N   1      29.829  18.155   6.907  0.00  0.00     0.209 HD
ENDBRANCH  26  27
ENDBRANCH  25  26
ENDBRANCH  22  25
ENDBRANCH  18  19
ENDBRANCH  17  18
ENDBRANCH  16  17
ENDBRANCH  15  16
TORSDOF 7
ENDMDL
MODEL 8
REMARK VINA RESULT:      -6.4     14.624     18.095
REMARK  7 active torsions:
REMARK  status: ('A' for Active; 'I' for Inactive)
REMARK    1  A    between atoms: C_12  and  C_5 
REMARK    2  A    between atoms: C_13  and  C_5 
REMARK    3  A    between atoms: N_24  and  C_12 
REMARK    4  A    between atoms: N_26  and  C_13 
REMARK    5  A    between atoms: C_19  and  C_18 
REMARK    6  A    between atoms: N_25  and  C_18 
REMARK    7  A    between atoms: O_27  and  C_19 
ROOT
HETATM    1  C   UNK N   1      26.030  24.625  -9.656  0.00  0.00     0.001 A 
HETATM    2  C   UNK N   1      26.482  29.944  -3.754  0.00  0.00     0.001 A 
HETATM    3  C   UNK N   1      27.094  25.392 -10.091  0.00  0.00     0.002 A 
HETATM    4  C   UNK N   1      27.521  30.377  -4.557  0.00  0.00     0.002 A 
HETATM    5  C   UNK N   1      25.496  24.854  -8.396  0.00  0.00     0.014 A 
HETATM    6  C   UNK N   1      25.829  28.760  -4.066  0.00  0.00     0.014 A 
HETATM    7  C   UNK N   1      27.608  26.384  -9.262  0.00  0.00     0.030 A 
HETATM    8  C   UNK N   1      27.890  29.626  -5.668  0.00  0.00     0.030 A 
HETATM    9  C   UNK N   1      25.302  25.912  -6.279  0.00  0.00     0.014 C 
HETATM   10  C   UNK N   1      25.378  26.790  -5.309  0.00  0.00     0.014 C 
HETATM   11  C   UNK N   1      25.991  25.860  -7.550  0.00  0.00    -0.009 A 
HETATM   12  C   UNK N   1      26.175  27.994  -5.189  0.00  0.00    -0.009 A 
HETATM   13  C   UNK N   1      27.081  26.671  -7.978  0.00  0.00     0.045 A 
HETATM   14  C   UNK N   1      27.235  28.425  -6.039  0.00  0.00     0.045 A 
HETATM   15  N   UNK N   1      27.715  27.756  -7.242  0.00  0.00    -0.345 N 
ENDROOT
BRANCH  15  16
HETATM   16  C   UNK N   1      28.988  28.233  -7.805  0.00  0.00     0.131 C 
BRANCH  16  17
HETATM   17  C   UNK N   1      30.240  27.793  -7.032  0.00  0.00     0.050 C 
BRANCH  17  18
HETATM   18  C   UNK N   1      30.574  26.319  -7.263  0.00  0.00     0.274 C 
BRANCH  18  19
HETATM   19  N   UNK N   1      30.531  25.476  -6.063  0.00  0.00     0.091 N 
HETATM   20  C   UNK N   1      30.568  26.275  -4.844  0.00  0.00     0.302 C 
HETATM   21  C   UNK N   1      30.784  25.326  -3.661  0.00  0.00     0.302 C 
HETATM   22  N   UNK N   1      29.712  24.324  -3.590  0.00  0.00     0.093 N 
HETATM   23  C   UNK N   1      29.586  23.606  -4.860  0.00  0.00     0.302 C 
HETATM   24  C   UNK N   1      29.376  24.586  -6.003  0.00  0.00     0.302 C 
BRANCH  22  25
HETATM   25  C   UNK N   1      30.126  23.329  -2.615  0.00  0.00     0.298 C 
BRANCH  25  26
HETATM   26  C   UNK N   1      31.245  22.474  -3.177  0.00  0.00     0.194 C 
BRANCH  26  27
HETATM   27  O   UNK N   1      31.991  21.933  -2.132  0.00  0.00    -0.399 OA
HETATM   28  H   UNK N   1      32.563  21.161  -2.269  0.00  0.00     0.209 HD
ENDBRANCH  26  27
ENDBRANCH  25  26
ENDBRANCH  22  25
ENDBRANCH  18  19
ENDBRANCH  17  18
ENDBRANCH  16  17
ENDBRANCH  15  16
TORSDOF 7
ENDMDL
MODEL 9
REMARK VINA RESULT:      -6.4      5.074     11.351
REMARK  7 active torsions:
REMARK  status: ('A' for Active; 'I' for Inactive)
REMARK    1  A    between atoms: C_12  and  C_5 
REMARK    2  A    between atoms: C_13  and  C_5 
REMARK    3  A    between atoms: N_24  and  C_12 
REMARK    4  A    between atoms: N_26  and  C_13 
REMARK    5  A    between atoms: C_19  and  C_18 
REMARK    6  A    between atoms: N_25  and  C_18 
REMARK    7  A    between atoms: O_27  and  C_19 
ROOT
HETATM    1  C   UNK N   1      35.862   6.183  15.264  0.00  0.00     0.001 A 
HETATM    2  C   UNK N   1      35.156  12.984  19.336  0.00  0.00     0.001 A 
HETATM    3  C   UNK N   1      35.780   7.090  14.225  0.00  0.00     0.002 A 
HETATM    4  C   UNK N   1      35.120  13.467  18.041  0.00  0.00     0.002 A 
HETATM    5  C   UNK N   1      35.951   6.649  16.568  0.00  0.00     0.014 A 
HETATM    6  C   UNK N   1      35.430  11.642  19.555  0.00  0.00     0.014 A 
HETATM    7  C   UNK N   1      35.782   8.453  14.502  0.00  0.00     0.030 A 
HETATM    8  C   UNK N   1      35.353  12.600  16.978  0.00  0.00     0.030 A 
HETATM    9  C   UNK N   1      36.060   8.282  18.288  0.00  0.00     0.014 C 
HETATM   10  C   UNK N   1      35.942   9.403  18.956  0.00  0.00     0.014 C 
HETATM   11  C   UNK N   1      35.938   8.020  16.871  0.00  0.00    -0.009 A 
HETATM   12  C   UNK N   1      35.654  10.746  18.497  0.00  0.00    -0.009 A 
HETATM   13  C   UNK N   1      35.845   8.976  15.818  0.00  0.00     0.045 A 
HETATM   14  C   UNK N   1      35.612  11.218  17.152  0.00  0.00     0.045 A 
HETATM   15  N   UNK N   1      35.813  10.426  15.945  0.00  0.00    -0.345 N 
ENDROOT
BRANCH  15  16
HETATM   16  C   UNK N   1      35.994  11.167  14.687  0.00  0.00     0.131 C 
BRANCH  16  17
HETATM   17  C   UNK N   1      37.457  11.420  14.291  0.00  0.00     0.050 C 
BRANCH  17  18
HETATM   18  C   UNK N   1      37.682  11.271  12.787  0.00  0.00     0.274 C 
BRANCH  18  19
HETATM   19  N   UNK N   1      36.809  12.094  11.942  0.00  0.00     0.091 N 
HETATM   20  C   UNK N   1      37.566  13.101  11.209  0.00  0.00     0.302 C 
HETATM   21  C   UNK N   1      36.568  14.071  10.567  0.00  0.00     0.302 C 
HETATM   22  N   UNK N   1      35.648  13.360   9.669  0.00  0.00     0.093 N 
HETATM   23  C   UNK N   1      34.980  12.262  10.372  0.00  0.00     0.302 C 
HETATM   24  C   UNK N   1      36.006  11.328  10.993  0.00  0.00     0.302 C 
BRANCH  22  25
HETATM   25  C   UNK N   1      34.596  14.297   9.313  0.00  0.00     0.298 C 
BRANCH  25  26
HETATM   26  C   UNK N   1      34.380  15.298  10.431  0.00  0.00     0.194 C 
BRANCH  26  27
HETATM   27  O   UNK N   1      33.231  14.961  11.145  0.00  0.00    -0.399 OA
HETATM   28  H   UNK N   1      32.374  15.364  10.936  0.00  0.00     0.209 HD
ENDBRANCH  26  27
ENDBRANCH  25  26
ENDBRANCH  22  25
ENDBRANCH  18  19
ENDBRANCH  17  18
ENDBRANCH  16  17
ENDBRANCH  15  16
TORSDOF 7
ENDMDL
