MODEL 1
REMARK VINA RESULT:      -8.7      0.000      0.000
REMARK  9 active torsions:
REMARK  status: ('A' for Active; 'I' for Inactive)
REMARK    1  A    between atoms: C_2  and  N_3 
REMARK    2  A    between atoms: N_3  and  C_4 
REMARK    3  A    between atoms: N_3  and  C_37 
REMARK    4  A    between atoms: C_6  and  C_24 
REMARK    5  A    between atoms: C_8  and  C_11 
REMARK       I    between atoms: C_11  and  N_13 
REMARK    6  A    between atoms: N_13  and  C_14 
REMARK    7  A    between atoms: C_14  and  C_15 
REMARK    8  A    between atoms: C_27  and  C_30 
REMARK    9  A    between atoms: C_30  and  N_31 
ROOT
HETATM    1  C   UNK N   1      21.322  16.887   3.338  0.00  0.00     0.038 A 
HETATM    2  C   UNK N   1      22.699  17.145   3.301  0.00  0.00     0.042 A 
HETATM    3  C   UNK N   1      23.434  17.407   4.443  0.00  0.00    -0.023 A 
HETATM    4  C   UNK N   1      22.787  17.488   5.670  0.00  0.00     0.030 A 
HETATM    5  C   UNK N   1      21.413  17.310   5.790  0.00  0.00     0.041 A 
HETATM    6  C   UNK N   1      20.677  16.951   4.618  0.00  0.00    -0.020 A 
HETATM    7  C   UNK N   1      19.306  16.480   4.778  0.00  0.00     0.052 C 
ENDROOT
BRANCH   5   8
HETATM    8  C   UNK N   1      20.851  17.435   7.192  0.00  0.00     0.252 C 
HETATM    9  O   UNK N   1      20.501  18.545   7.565  0.00  0.00    -0.268 OA
HETATM   10  N   UNK N   1      20.613  16.385   8.033  0.00  0.00    -0.352 N 
HETATM   11  H   UNK N   1      20.422  16.590   8.977  0.00  0.00     0.163 HD
BRANCH  10  12
HETATM   12  C   UNK N   1      20.623  14.997   7.638  0.00  0.00     0.167 C 
BRANCH  12  13
HETATM   13  C   UNK N   1      21.283  14.099   8.655  0.00  0.00     0.033 A 
HETATM   14  C   UNK N   1      22.634  13.717   8.499  0.00  0.00    -0.047 A 
HETATM   15  C   UNK N   1      23.267  12.973   9.496  0.00  0.00     0.032 A 
HETATM   16  C   UNK N   1      23.416  14.107   7.290  0.00  0.00     0.049 C 
HETATM   17  C   UNK N   1      22.562  12.604  10.640  0.00  0.00     0.009 A 
HETATM   18  N   UNK N   1      21.252  12.941  10.770  0.00  0.00    -0.327 N 
HETATM   19  C   UNK N   1      23.240  11.857  11.729  0.00  0.00     0.068 C 
HETATM   20  C   UNK N   1      20.602  13.665   9.811  0.00  0.00     0.254 A 
HETATM   21  H   UNK N   1      20.760  12.657  11.573  0.00  0.00     0.169 HD
HETATM   22  O   UNK N   1      19.424  13.940   9.978  0.00  0.00    -0.268 OA
ENDBRANCH  12  13
ENDBRANCH  10  12
ENDBRANCH   5   8
BRANCH   3  23
HETATM   23  C   UNK N   1      24.870  17.677   4.370  0.00  0.00    -0.026 A 
HETATM   24  C   UNK N   1      25.388  18.924   4.753  0.00  0.00     0.013 A 
HETATM   25  C   UNK N   1      26.765  19.077   4.924  0.00  0.00     0.010 A 
HETATM   26  C   UNK N   1      27.619  17.999   4.663  0.00  0.00    -0.030 A 
HETATM   27  C   UNK N   1      27.110  16.804   4.160  0.00  0.00     0.010 A 
HETATM   28  C   UNK N   1      25.743  16.636   4.038  0.00  0.00     0.013 A 
BRANCH  26  29
HETATM   29  C   UNK N   1      29.027  18.037   5.146  0.00  0.00     0.311 C 
BRANCH  29  30
HETATM   30  N   UNK N   1      29.309  16.994   6.160  0.00  0.00     0.096 N 
HETATM   31  C   UNK N   1      28.785  17.354   7.483  0.00  0.00     0.299 C 
HETATM   32  C   UNK N   1      29.853  18.038   8.339  0.00  0.00     0.198 C 
HETATM   33  O   UNK N   1      30.955  17.180   8.477  0.00  0.00    -0.388 OA
HETATM   34  C   UNK N   1      31.581  17.148   7.222  0.00  0.00     0.198 C 
HETATM   35  C   UNK N   1      30.681  16.430   6.195  0.00  0.00     0.299 C 
ENDBRANCH  29  30
ENDBRANCH  26  29
ENDBRANCH   3  23
BRANCH   1  36
HETATM   36  N   UNK N   1      20.695  16.505   2.078  0.00  0.00    -0.376 N 
BRANCH  36  37
HETATM   37  C   UNK N   1      20.079  17.556   1.285  0.00  0.00     0.119 C 
HETATM   38  C   UNK N   1      20.402  18.933   1.832  0.00  0.00     0.026 C 
ENDBRANCH  36  37
BRANCH  36  39
HETATM   39  C   UNK N   1      20.623  15.173   1.472  0.00  0.00     0.088 C 
HETATM   40  C   UNK N   1      19.383  14.267   1.528  0.00  0.00     0.051 C 
HETATM   41  C   UNK N   1      19.763  12.909   2.164  0.00  0.00     0.169 C 
HETATM   42  O   UNK N   1      20.942  12.383   1.605  0.00  0.00    -0.391 OA
HETATM   43  C   UNK N   1      21.994  13.204   2.038  0.00  0.00     0.169 C 
HETATM   44  C   UNK N   1      21.965  14.487   1.233  0.00  0.00     0.051 C 
ENDBRANCH  36  39
ENDBRANCH   1  36
TORSDOF 9
ENDMDL
MODEL 2
REMARK VINA RESULT:      -8.6      2.147      6.602
REMARK  9 active torsions:
REMARK  status: ('A' for Active; 'I' for Inactive)
REMARK    1  A    between atoms: C_2  and  N_3 
REMARK    2  A    between atoms: N_3  and  C_4 
REMARK    3  A    between atoms: N_3  and  C_37 
REMARK    4  A    between atoms: C_6  and  C_24 
REMARK    5  A    between atoms: C_8  and  C_11 
REMARK       I    between atoms: C_11  and  N_13 
REMARK    6  A    between atoms: N_13  and  C_14 
REMARK    7  A    between atoms: C_14  and  C_15 
REMARK    8  A    between atoms: C_27  and  C_30 
REMARK    9  A    between atoms: C_30  and  N_31 
ROOT
HETATM    1  C   UNK N   1      23.590  14.306   6.937  0.00  0.00     0.038 A 
HETATM    2  C   UNK N   1      24.961  14.581   6.839  0.00  0.00     0.042 A 
HETATM    3  C   UNK N   1      25.452  15.651   6.113  0.00  0.00    -0.023 A 
HETATM    4  C   UNK N   1      24.573  16.452   5.394  0.00  0.00     0.030 A 
HETATM    5  C   UNK N   1      23.203  16.213   5.382  0.00  0.00     0.041 A 
HETATM    6  C   UNK N   1      22.698  15.160   6.206  0.00  0.00    -0.020 A 
HETATM    7  C   UNK N   1      21.258  15.087   6.430  0.00  0.00     0.052 C 
ENDROOT
BRANCH   5   8
HETATM    8  C   UNK N   1      22.373  17.167   4.547  0.00  0.00     0.252 C 
HETATM    9  O   UNK N   1      22.270  18.320   4.938  0.00  0.00    -0.268 OA
HETATM   10  N   UNK N   1      21.815  16.861   3.338  0.00  0.00    -0.352 N 
HETATM   11  H   UNK N   1      21.150  17.488   2.971  0.00  0.00     0.163 HD
BRANCH  10  12
HETATM   12  C   UNK N   1      22.129  15.687   2.561  0.00  0.00     0.167 C 
BRANCH  12  13
HETATM   13  C   UNK N   1      20.945  15.155   1.790  0.00  0.00     0.033 A 
HETATM   14  C   UNK N   1      20.594  13.790   1.875  0.00  0.00    -0.047 A 
HETATM   15  C   UNK N   1      19.438  13.328   1.243  0.00  0.00     0.032 A 
HETATM   16  C   UNK N   1      21.427  12.821   2.644  0.00  0.00     0.049 C 
HETATM   17  C   UNK N   1      18.638  14.215   0.526  0.00  0.00     0.009 A 
HETATM   18  N   UNK N   1      18.999  15.520   0.415  0.00  0.00    -0.327 N 
HETATM   19  C   UNK N   1      17.379  13.744  -0.106  0.00  0.00     0.068 C 
HETATM   20  C   UNK N   1      20.125  16.003   1.017  0.00  0.00     0.254 A 
HETATM   21  H   UNK N   1      18.435  16.132  -0.111  0.00  0.00     0.169 HD
HETATM   22  O   UNK N   1      20.403  17.185   0.885  0.00  0.00    -0.268 OA
ENDBRANCH  12  13
ENDBRANCH  10  12
ENDBRANCH   5   8
BRANCH   3  23
HETATM   23  C   UNK N   1      26.890  15.908   6.027  0.00  0.00    -0.026 A 
HETATM   24  C   UNK N   1      27.471  16.984   6.718  0.00  0.00     0.013 A 
HETATM   25  C   UNK N   1      28.860  17.059   6.835  0.00  0.00     0.010 A 
HETATM   26  C   UNK N   1      29.660  16.089   6.221  0.00  0.00    -0.030 A 
HETATM   27  C   UNK N   1      29.084  15.098   5.430  0.00  0.00     0.010 A 
HETATM   28  C   UNK N   1      27.706  14.994   5.355  0.00  0.00     0.013 A 
BRANCH  26  29
HETATM   29  C   UNK N   1      31.094  15.964   6.602  0.00  0.00     0.311 C 
BRANCH  29  30
HETATM   30  N   UNK N   1      31.797  17.269   6.605  0.00  0.00     0.096 N 
HETATM   31  C   UNK N   1      32.682  17.422   5.443  0.00  0.00     0.299 C 
HETATM   32  C   UNK N   1      34.115  16.999   5.775  0.00  0.00     0.198 C 
HETATM   33  O   UNK N   1      34.590  17.772   6.845  0.00  0.00    -0.388 OA
HETATM   34  C   UNK N   1      33.898  17.329   7.982  0.00  0.00     0.198 C 
HETATM   35  C   UNK N   1      32.407  17.713   7.883  0.00  0.00     0.299 C 
ENDBRANCH  29  30
ENDBRANCH  26  29
ENDBRANCH   3  23
BRANCH   1  36
HETATM   36  N   UNK N   1      23.203  13.224   7.832  0.00  0.00    -0.376 N 
BRANCH  36  37
HETATM   37  C   UNK N   1      22.977  11.912   7.248  0.00  0.00     0.119 C 
HETATM   38  C   UNK N   1      21.522  11.707   6.879  0.00  0.00     0.026 C 
ENDBRANCH  36  37
BRANCH  36  39
HETATM   39  C   UNK N   1      23.033  13.271   9.287  0.00  0.00     0.088 C 
HETATM   40  C   UNK N   1      23.900  12.484  10.282  0.00  0.00     0.051 C 
HETATM   41  C   UNK N   1      22.995  11.592  11.164  0.00  0.00     0.169 C 
HETATM   42  O   UNK N   1      21.892  12.306  11.669  0.00  0.00    -0.391 OA
HETATM   43  C   UNK N   1      21.053  12.572  10.577  0.00  0.00     0.169 C 
HETATM   44  C   UNK N   1      21.654  13.706   9.773  0.00  0.00     0.051 C 
ENDBRANCH  36  39
ENDBRANCH   1  36
TORSDOF 9
ENDMDL
MODEL 3
REMARK VINA RESULT:      -8.5      2.224      5.883
REMARK  9 active torsions:
REMARK  status: ('A' for Active; 'I' for Inactive)
REMARK    1  A    between atoms: C_2  and  N_3 
REMARK    2  A    between atoms: N_3  and  C_4 
REMARK    3  A    between atoms: N_3  and  C_37 
REMARK    4  A    between atoms: C_6  and  C_24 
REMARK    5  A    between atoms: C_8  and  C_11 
REMARK       I    between atoms: C_11  and  N_13 
REMARK    6  A    between atoms: N_13  and  C_14 
REMARK    7  A    between atoms: C_14  and  C_15 
REMARK    8  A    between atoms: C_27  and  C_30 
REMARK    9  A    between atoms: C_30  and  N_31 
ROOT
HETATM    1  C   UNK N   1      23.440  14.220   7.098  0.00  0.00     0.038 A 
HETATM    2  C   UNK N   1      24.807  14.488   6.947  0.00  0.00     0.042 A 
HETATM    3  C   UNK N   1      25.276  15.528   6.165  0.00  0.00    -0.023 A 
HETATM    4  C   UNK N   1      24.375  16.300   5.441  0.00  0.00     0.030 A 
HETATM    5  C   UNK N   1      23.006  16.063   5.481  0.00  0.00     0.041 A 
HETATM    6  C   UNK N   1      22.525  15.045   6.362  0.00  0.00    -0.020 A 
HETATM    7  C   UNK N   1      21.093  14.983   6.633  0.00  0.00     0.052 C 
ENDROOT
BRANCH   5   8
HETATM    8  C   UNK N   1      22.151  16.984   4.634  0.00  0.00     0.252 C 
HETATM    9  O   UNK N   1      21.913  18.100   5.073  0.00  0.00    -0.268 OA
HETATM   10  N   UNK N   1      21.710  16.698   3.373  0.00  0.00    -0.352 N 
HETATM   11  H   UNK N   1      21.017  17.282   2.988  0.00  0.00     0.163 HD
BRANCH  10  12
HETATM   12  C   UNK N   1      22.186  15.603   2.564  0.00  0.00     0.167 C 
BRANCH  12  13
HETATM   13  C   UNK N   1      21.665  14.262   3.020  0.00  0.00     0.033 A 
HETATM   14  C   UNK N   1      22.562  13.216   3.330  0.00  0.00    -0.047 A 
HETATM   15  C   UNK N   1      22.077  12.014   3.849  0.00  0.00     0.032 A 
HETATM   16  C   UNK N   1      24.032  13.369   3.129  0.00  0.00     0.049 C 
HETATM   17  C   UNK N   1      20.709  11.850   4.056  0.00  0.00     0.009 A 
HETATM   18  N   UNK N   1      19.846  12.844   3.721  0.00  0.00    -0.327 N 
HETATM   19  C   UNK N   1      20.189  10.595   4.656  0.00  0.00     0.068 C 
HETATM   20  C   UNK N   1      20.287  14.029   3.207  0.00  0.00     0.254 A 
HETATM   21  H   UNK N   1      18.880  12.707   3.853  0.00  0.00     0.169 HD
HETATM   22  O   UNK N   1      19.468  14.889   2.923  0.00  0.00    -0.268 OA
ENDBRANCH  12  13
ENDBRANCH  10  12
ENDBRANCH   5   8
BRANCH   3  23
HETATM   23  C   UNK N   1      26.711  15.778   6.024  0.00  0.00    -0.026 A 
HETATM   24  C   UNK N   1      27.311  16.884   6.646  0.00  0.00     0.013 A 
HETATM   25  C   UNK N   1      28.704  16.963   6.719  0.00  0.00     0.010 A 
HETATM   26  C   UNK N   1      29.485  15.964   6.128  0.00  0.00    -0.030 A 
HETATM   27  C   UNK N   1      28.886  14.939   5.401  0.00  0.00     0.010 A 
HETATM   28  C   UNK N   1      27.506  14.833   5.371  0.00  0.00     0.013 A 
BRANCH  26  29
HETATM   29  C   UNK N   1      30.930  15.856   6.471  0.00  0.00     0.311 C 
BRANCH  29  30
HETATM   30  N   UNK N   1      31.618  17.168   6.455  0.00  0.00     0.096 N 
HETATM   31  C   UNK N   1      32.350  17.393   5.202  0.00  0.00     0.299 C 
HETATM   32  C   UNK N   1      33.816  16.973   5.329  0.00  0.00     0.198 C 
HETATM   33  O   UNK N   1      34.416  17.696   6.371  0.00  0.00    -0.388 OA
HETATM   34  C   UNK N   1      33.874  17.186   7.560  0.00  0.00     0.198 C 
HETATM   35  C   UNK N   1      32.381  17.554   7.668  0.00  0.00     0.299 C 
ENDBRANCH  29  30
ENDBRANCH  26  29
ENDBRANCH   3  23
BRANCH   1  36
HETATM   36  N   UNK N   1      23.080  13.175   8.048  0.00  0.00    -0.376 N 
BRANCH  36  37
HETATM   37  C   UNK N   1      22.692  11.880   7.512  0.00  0.00     0.119 C 
HETATM   38  C   UNK N   1      23.889  11.109   6.992  0.00  0.00     0.026 C 
ENDBRANCH  36  37
BRANCH  36  39
HETATM   39  C   UNK N   1      23.083  13.243   9.512  0.00  0.00     0.088 C 
HETATM   40  C   UNK N   1      24.207  12.685  10.398  0.00  0.00     0.051 C 
HETATM   41  C   UNK N   1      23.618  11.666  11.401  0.00  0.00     0.169 C 
HETATM   42  O   UNK N   1      22.463  12.163  12.033  0.00  0.00    -0.391 OA
HETATM   43  C   UNK N   1      21.459  12.211  11.053  0.00  0.00     0.169 C 
HETATM   44  C   UNK N   1      21.714  13.411  10.164  0.00  0.00     0.051 C 
ENDBRANCH  36  39
ENDBRANCH   1  36
TORSDOF 9
ENDMDL
MODEL 4
REMARK VINA RESULT:      -8.5      4.217      9.887
REMARK  9 active torsions:
REMARK  status: ('A' for Active; 'I' for Inactive)
REMARK    1  A    between atoms: C_2  and  N_3 
REMARK    2  A    between atoms: N_3  and  C_4 
REMARK    3  A    between atoms: N_3  and  C_37 
REMARK    4  A    between atoms: C_6  and  C_24 
REMARK    5  A    between atoms: C_8  and  C_11 
REMARK       I    between atoms: C_11  and  N_13 
REMARK    6  A    between atoms: N_13  and  C_14 
REMARK    7  A    between atoms: C_14  and  C_15 
REMARK    8  A    between atoms: C_27  and  C_30 
REMARK    9  A    between atoms: C_30  and  N_31 
ROOT
HETATM    1  C   UNK N   1      30.580  15.636   6.418  0.00  0.00     0.038 A 
HETATM    2  C   UNK N   1      29.670  15.068   5.517  0.00  0.00     0.042 A 
HETATM    3  C   UNK N   1      28.323  15.381   5.529  0.00  0.00    -0.023 A 
HETATM    4  C   UNK N   1      27.827  16.235   6.505  0.00  0.00     0.030 A 
HETATM    5  C   UNK N   1      28.647  16.794   7.479  0.00  0.00     0.041 A 
HETATM    6  C   UNK N   1      30.051  16.536   7.404  0.00  0.00    -0.020 A 
HETATM    7  C   UNK N   1      30.949  17.339   8.227  0.00  0.00     0.052 C 
ENDROOT
BRANCH   5   8
HETATM    8  C   UNK N   1      27.961  17.701   8.481  0.00  0.00     0.252 C 
HETATM    9  O   UNK N   1      27.622  17.213   9.548  0.00  0.00    -0.268 OA
HETATM   10  N   UNK N   1      27.782  19.046   8.319  0.00  0.00    -0.352 N 
HETATM   11  H   UNK N   1      27.168  19.502   8.940  0.00  0.00     0.163 HD
BRANCH  10  12
HETATM   12  C   UNK N   1      28.427  19.846   7.307  0.00  0.00     0.167 C 
BRANCH  12  13
HETATM   13  C   UNK N   1      27.563  20.069   6.091  0.00  0.00     0.033 A 
HETATM   14  C   UNK N   1      27.938  19.529   4.841  0.00  0.00    -0.047 A 
HETATM   15  C   UNK N   1      27.081  19.651   3.744  0.00  0.00     0.032 A 
HETATM   16  C   UNK N   1      29.233  18.811   4.662  0.00  0.00     0.049 C 
HETATM   17  C   UNK N   1      25.862  20.309   3.887  0.00  0.00     0.009 A 
HETATM   18  N   UNK N   1      25.521  20.859   5.082  0.00  0.00    -0.327 N 
HETATM   19  C   UNK N   1      24.921  20.399   2.741  0.00  0.00     0.068 C 
HETATM   20  C   UNK N   1      26.337  20.762   6.172  0.00  0.00     0.254 A 
HETATM   21  H   UNK N   1      24.665  21.339   5.163  0.00  0.00     0.169 HD
HETATM   22  O   UNK N   1      25.982  21.275   7.221  0.00  0.00    -0.268 OA
ENDBRANCH  12  13
ENDBRANCH  10  12
ENDBRANCH   5   8
BRANCH   3  23
HETATM   23  C   UNK N   1      27.397  14.766   4.576  0.00  0.00    -0.026 A 
HETATM   24  C   UNK N   1      27.255  13.371   4.510  0.00  0.00     0.013 A 
HETATM   25  C   UNK N   1      26.194  12.819   3.790  0.00  0.00     0.010 A 
HETATM   26  C   UNK N   1      25.312  13.660   3.102  0.00  0.00    -0.030 A 
HETATM   27  C   UNK N   1      25.535  15.034   3.065  0.00  0.00     0.010 A 
HETATM   28  C   UNK N   1      26.556  15.586   3.818  0.00  0.00     0.013 A 
BRANCH  26  29
HETATM   29  C   UNK N   1      24.011  13.126   2.613  0.00  0.00     0.311 C 
BRANCH  29  30
HETATM   30  N   UNK N   1      23.031  14.199   2.319  0.00  0.00     0.096 N 
HETATM   31  C   UNK N   1      22.006  14.312   3.363  0.00  0.00     0.299 C 
HETATM   32  C   UNK N   1      20.758  13.500   3.011  0.00  0.00     0.198 C 
HETATM   33  O   UNK N   1      20.245  13.949   1.784  0.00  0.00    -0.388 OA
HETATM   34  C   UNK N   1      21.148  13.514   0.803  0.00  0.00     0.198 C 
HETATM   35  C   UNK N   1      22.488  14.266   0.939  0.00  0.00     0.299 C 
ENDBRANCH  29  30
ENDBRANCH  26  29
ENDBRANCH   3  23
BRANCH   1  36
HETATM   36  N   UNK N   1      31.987  15.314   6.217  0.00  0.00    -0.376 N 
BRANCH  36  37
HETATM   37  C   UNK N   1      32.611  14.398   7.158  0.00  0.00     0.119 C 
HETATM   38  C   UNK N   1      33.721  15.072   7.941  0.00  0.00     0.026 C 
ENDBRANCH  36  37
BRANCH  36  39
HETATM   39  C   UNK N   1      32.876  15.778   5.148  0.00  0.00     0.088 C 
HETATM   40  C   UNK N   1      32.755  17.146   4.459  0.00  0.00     0.051 C 
HETATM   41  C   UNK N   1      32.596  16.945   2.934  0.00  0.00     0.169 C 
HETATM   42  O   UNK N   1      33.539  16.031   2.427  0.00  0.00    -0.391 OA
HETATM   43  C   UNK N   1      33.178  14.768   2.920  0.00  0.00     0.169 C 
HETATM   44  C   UNK N   1      33.598  14.680   4.372  0.00  0.00     0.051 C 
ENDBRANCH  36  39
ENDBRANCH   1  36
TORSDOF 9
ENDMDL
MODEL 5
REMARK VINA RESULT:      -8.4      9.467     15.477
REMARK  9 active torsions:
REMARK  status: ('A' for Active; 'I' for Inactive)
REMARK    1  A    between atoms: C_2  and  N_3 
REMARK    2  A    between atoms: N_3  and  C_4 
REMARK    3  A    between atoms: N_3  and  C_37 
REMARK    4  A    between atoms: C_6  and  C_24 
REMARK    5  A    between atoms: C_8  and  C_11 
REMARK       I    between atoms: C_11  and  N_13 
REMARK    6  A    between atoms: N_13  and  C_14 
REMARK    7  A    between atoms: C_14  and  C_15 
REMARK    8  A    between atoms: C_27  and  C_30 
REMARK    9  A    between atoms: C_30  and  N_31 
ROOT
HETATM    1  C   UNK N   1      36.798  11.983  12.311  0.00  0.00     0.038 A 
HETATM    2  C   UNK N   1      36.114  12.896  11.497  0.00  0.00     0.042 A 
HETATM    3  C   UNK N   1      35.728  14.145  11.948  0.00  0.00    -0.023 A 
HETATM    4  C   UNK N   1      35.958  14.497  13.273  0.00  0.00     0.030 A 
HETATM    5  C   UNK N   1      36.571  13.628  14.168  0.00  0.00     0.041 A 
HETATM    6  C   UNK N   1      37.047  12.375  13.669  0.00  0.00    -0.020 A 
HETATM    7  C   UNK N   1      37.941  11.588  14.512  0.00  0.00     0.052 C 
ENDROOT
BRANCH   5   8
HETATM    8  C   UNK N   1      36.747  14.149  15.580  0.00  0.00     0.252 C 
HETATM    9  O   UNK N   1      37.573  15.032  15.759  0.00  0.00    -0.268 OA
HETATM   10  N   UNK N   1      35.983  13.777  16.649  0.00  0.00    -0.352 N 
HETATM   11  H   UNK N   1      36.297  14.034  17.546  0.00  0.00     0.163 HD
BRANCH  10  12
HETATM   12  C   UNK N   1      34.750  13.034  16.560  0.00  0.00     0.167 C 
BRANCH  12  13
HETATM   13  C   UNK N   1      34.936  11.552  16.777  0.00  0.00     0.033 A 
HETATM   14  C   UNK N   1      34.567  10.632  15.771  0.00  0.00    -0.047 A 
HETATM   15  C   UNK N   1      34.838   9.273  15.937  0.00  0.00     0.032 A 
HETATM   16  C   UNK N   1      33.901  11.082  14.514  0.00  0.00     0.049 C 
HETATM   17  C   UNK N   1      35.468   8.828  17.097  0.00  0.00     0.009 A 
HETATM   18  N   UNK N   1      35.788   9.711  18.079  0.00  0.00    -0.327 N 
HETATM   19  C   UNK N   1      35.807   7.392  17.261  0.00  0.00     0.068 C 
HETATM   20  C   UNK N   1      35.532  11.046  17.950  0.00  0.00     0.254 A 
HETATM   21  H   UNK N   1      36.214   9.381  18.903  0.00  0.00     0.169 HD
HETATM   22  O   UNK N   1      35.840  11.796  18.863  0.00  0.00    -0.268 OA
ENDBRANCH  12  13
ENDBRANCH  10  12
ENDBRANCH   5   8
BRANCH   3  23
HETATM   23  C   UNK N   1      35.011  15.075  11.073  0.00  0.00    -0.026 A 
HETATM   24  C   UNK N   1      35.496  16.374  10.853  0.00  0.00     0.013 A 
HETATM   25  C   UNK N   1      34.952  17.148   9.826  0.00  0.00     0.010 A 
HETATM   26  C   UNK N   1      33.896  16.640   9.061  0.00  0.00    -0.030 A 
HETATM   27  C   UNK N   1      33.335  15.403   9.369  0.00  0.00     0.010 A 
HETATM   28  C   UNK N   1      33.905  14.615  10.353  0.00  0.00     0.013 A 
BRANCH  26  29
HETATM   29  C   UNK N   1      33.530  17.299   7.777  0.00  0.00     0.311 C 
BRANCH  29  30
HETATM   30  N   UNK N   1      32.988  16.344   6.782  0.00  0.00     0.096 N 
HETATM   31  C   UNK N   1      33.727  16.387   5.515  0.00  0.00     0.299 C 
HETATM   32  C   UNK N   1      33.061  17.332   4.512  0.00  0.00     0.198 C 
HETATM   33  O   UNK N   1      31.743  16.910   4.284  0.00  0.00    -0.388 OA
HETATM   34  C   UNK N   1      31.033  17.203   5.458  0.00  0.00     0.198 C 
HETATM   35  C   UNK N   1      31.514  16.300   6.612  0.00  0.00     0.299 C 
ENDBRANCH  29  30
ENDBRANCH  26  29
ENDBRANCH   3  23
BRANCH   1  36
HETATM   36  N   UNK N   1      37.254  10.754  11.675  0.00  0.00    -0.376 N 
BRANCH  36  37
HETATM   37  C   UNK N   1      38.075  10.876  10.481  0.00  0.00     0.119 C 
HETATM   38  C   UNK N   1      37.323  10.447   9.238  0.00  0.00     0.026 C 
ENDBRANCH  36  37
BRANCH  36  39
HETATM   39  C   UNK N   1      37.013   9.372  12.100  0.00  0.00     0.088 C 
HETATM   40  C   UNK N   1      38.085   8.271  12.099  0.00  0.00     0.051 C 
HETATM   41  C   UNK N   1      37.603   7.080  11.238  0.00  0.00     0.169 C 
HETATM   42  O   UNK N   1      36.280   6.714  11.549  0.00  0.00    -0.391 OA
HETATM   43  C   UNK N   1      35.457   7.752  11.085  0.00  0.00     0.169 C 
HETATM   44  C   UNK N   1      35.558   8.914  12.051  0.00  0.00     0.051 C 
ENDBRANCH  36  39
ENDBRANCH   1  36
TORSDOF 9
ENDMDL
MODEL 6
REMARK VINA RESULT:      -8.3      2.644      6.211
REMARK  9 active torsions:
REMARK  status: ('A' for Active; 'I' for Inactive)
REMARK    1  A    between atoms: C_2  and  N_3 
REMARK    2  A    between atoms: N_3  and  C_4 
REMARK    3  A    between atoms: N_3  and  C_37 
REMARK    4  A    between atoms: C_6  and  C_24 
REMARK    5  A    between atoms: C_8  and  C_11 
REMARK       I    between atoms: C_11  and  N_13 
REMARK    6  A    between atoms: N_13  and  C_14 
REMARK    7  A    between atoms: C_14  and  C_15 
REMARK    8  A    between atoms: C_27  and  C_30 
REMARK    9  A    between atoms: C_30  and  N_31 
ROOT
HETATM    1  C   UNK N   1      21.812  14.254   4.872  0.00  0.00     0.038 A 
HETATM    2  C   UNK N   1      23.146  14.226   4.441  0.00  0.00     0.042 A 
HETATM    3  C   UNK N   1      23.606  15.020   3.407  0.00  0.00    -0.023 A 
HETATM    4  C   UNK N   1      22.713  15.830   2.715  0.00  0.00     0.030 A 
HETATM    5  C   UNK N   1      21.360  15.871   3.033  0.00  0.00     0.041 A 
HETATM    6  C   UNK N   1      20.912  15.115   4.161  0.00  0.00    -0.020 A 
HETATM    7  C   UNK N   1      19.573  15.374   4.680  0.00  0.00     0.052 C 
ENDROOT
BRANCH   5   8
HETATM    8  C   UNK N   1      20.510  16.797   2.186  0.00  0.00     0.252 C 
HETATM    9  O   UNK N   1      19.877  16.301   1.266  0.00  0.00    -0.268 OA
HETATM   10  N   UNK N   1      20.321  18.126   2.435  0.00  0.00    -0.352 N 
HETATM   11  H   UNK N   1      19.904  18.669   1.726  0.00  0.00     0.163 HD
BRANCH  10  12
HETATM   12  C   UNK N   1      20.687  18.794   3.660  0.00  0.00     0.167 C 
BRANCH  12  13
HETATM   13  C   UNK N   1      22.114  19.284   3.661  0.00  0.00     0.033 A 
HETATM   14  C   UNK N   1      23.037  18.792   4.611  0.00  0.00    -0.047 A 
HETATM   15  C   UNK N   1      24.379  19.171   4.540  0.00  0.00     0.032 A 
HETATM   16  C   UNK N   1      22.613  17.853   5.690  0.00  0.00     0.049 C 
HETATM   17  C   UNK N   1      24.802  20.039   3.535  0.00  0.00     0.009 A 
HETATM   18  N   UNK N   1      23.905  20.540   2.646  0.00  0.00    -0.327 N 
HETATM   19  C   UNK N   1      26.236  20.407   3.420  0.00  0.00     0.068 C 
HETATM   20  C   UNK N   1      22.585  20.193   2.690  0.00  0.00     0.254 A 
HETATM   21  H   UNK N   1      24.214  21.168   1.954  0.00  0.00     0.169 HD
HETATM   22  O   UNK N   1      21.822  20.673   1.868  0.00  0.00    -0.268 OA
ENDBRANCH  12  13
ENDBRANCH  10  12
ENDBRANCH   5   8
BRANCH   3  23
HETATM   23  C   UNK N   1      25.004  14.964   2.977  0.00  0.00    -0.026 A 
HETATM   24  C   UNK N   1      25.768  16.136   2.860  0.00  0.00     0.013 A 
HETATM   25  C   UNK N   1      27.153  16.044   2.705  0.00  0.00     0.010 A 
HETATM   26  C   UNK N   1      27.758  14.786   2.619  0.00  0.00    -0.030 A 
HETATM   27  C   UNK N   1      26.981  13.630   2.606  0.00  0.00     0.010 A 
HETATM   28  C   UNK N   1      25.615  13.718   2.809  0.00  0.00     0.013 A 
BRANCH  26  29
HETATM   29  C   UNK N   1      29.232  14.662   2.783  0.00  0.00     0.311 C 
BRANCH  29  30
HETATM   30  N   UNK N   1      29.609  14.016   4.063  0.00  0.00     0.096 N 
HETATM   31  C   UNK N   1      29.277  14.852   5.223  0.00  0.00     0.299 C 
HETATM   32  C   UNK N   1      30.473  15.703   5.657  0.00  0.00     0.198 C 
HETATM   33  O   UNK N   1      31.552  14.862   5.965  0.00  0.00    -0.388 OA
HETATM   34  C   UNK N   1      32.006  14.347   4.742  0.00  0.00     0.198 C 
HETATM   35  C   UNK N   1      30.954  13.392   4.142  0.00  0.00     0.299 C 
ENDBRANCH  29  30
ENDBRANCH  26  29
ENDBRANCH   3  23
BRANCH   1  36
HETATM   36  N   UNK N   1      21.490  13.459   6.050  0.00  0.00    -0.376 N 
BRANCH  36  37
HETATM   37  C   UNK N   1      20.692  12.259   5.858  0.00  0.00     0.119 C 
HETATM   38  C   UNK N   1      21.450  11.201   5.081  0.00  0.00     0.026 C 
ENDBRANCH  36  37
BRANCH  36  39
HETATM   39  C   UNK N   1      21.896  13.695   7.439  0.00  0.00     0.088 C 
HETATM   40  C   UNK N   1      22.351  12.588   8.403  0.00  0.00     0.051 C 
HETATM   41  C   UNK N   1      21.459  12.604   9.667  0.00  0.00     0.169 C 
HETATM   42  O   UNK N   1      21.304  13.905  10.180  0.00  0.00    -0.391 OA
HETATM   43  C   UNK N   1      20.508  14.606   9.260  0.00  0.00     0.169 C 
HETATM   44  C   UNK N   1      21.366  14.979   8.069  0.00  0.00     0.051 C 
ENDBRANCH  36  39
ENDBRANCH   1  36
TORSDOF 9
ENDMDL
MODEL 7
REMARK VINA RESULT:      -8.3      2.082      6.507
REMARK  9 active torsions:
REMARK  status: ('A' for Active; 'I' for Inactive)
REMARK    1  A    between atoms: C_2  and  N_3 
REMARK    2  A    between atoms: N_3  and  C_4 
REMARK    3  A    between atoms: N_3  and  C_37 
REMARK    4  A    between atoms: C_6  and  C_24 
REMARK    5  A    between atoms: C_8  and  C_11 
REMARK       I    between atoms: C_11  and  N_13 
REMARK    6  A    between atoms: N_13  and  C_14 
REMARK    7  A    between atoms: C_14  and  C_15 
REMARK    8  A    between atoms: C_27  and  C_30 
REMARK    9  A    between atoms: C_30  and  N_31 
ROOT
HETATM    1  C   UNK N   1      23.145  13.378   5.247  0.00  0.00     0.038 A 
HETATM    2  C   UNK N   1      24.202  14.298   5.263  0.00  0.00     0.042 A 
HETATM    3  C   UNK N   1      24.541  15.054   4.156  0.00  0.00    -0.023 A 
HETATM    4  C   UNK N   1      23.865  14.858   2.958  0.00  0.00     0.030 A 
HETATM    5  C   UNK N   1      22.846  13.920   2.835  0.00  0.00     0.041 A 
HETATM    6  C   UNK N   1      22.443  13.208   4.007  0.00  0.00    -0.020 A 
HETATM    7  C   UNK N   1      21.199  12.446   3.962  0.00  0.00     0.052 C 
ENDROOT
BRANCH   5   8
HETATM    8  C   UNK N   1      22.207  13.815   1.465  0.00  0.00     0.252 C 
HETATM    9  O   UNK N   1      22.712  13.046   0.661  0.00  0.00    -0.268 OA
HETATM   10  N   UNK N   1      21.051  14.441   1.095  0.00  0.00    -0.352 N 
HETATM   11  H   UNK N   1      20.824  14.453   0.136  0.00  0.00     0.163 HD
BRANCH  10  12
HETATM   12  C   UNK N   1      20.137  15.087   2.005  0.00  0.00     0.167 C 
BRANCH  12  13
HETATM   13  C   UNK N   1      20.253  16.591   1.992  0.00  0.00     0.033 A 
HETATM   14  C   UNK N   1      20.602  17.290   3.168  0.00  0.00    -0.047 A 
HETATM   15  C   UNK N   1      20.809  18.670   3.123  0.00  0.00     0.032 A 
HETATM   16  C   UNK N   1      20.772  16.582   4.470  0.00  0.00     0.049 C 
HETATM   17  C   UNK N   1      20.666  19.353   1.917  0.00  0.00     0.009 A 
HETATM   18  N   UNK N   1      20.294  18.684   0.795  0.00  0.00    -0.327 N 
HETATM   19  C   UNK N   1      20.935  20.812   1.847  0.00  0.00     0.068 C 
HETATM   20  C   UNK N   1      20.079  17.335   0.806  0.00  0.00     0.254 A 
HETATM   21  H   UNK N   1      20.176  19.182  -0.046  0.00  0.00     0.169 HD
HETATM   22  O   UNK N   1      19.745  16.783  -0.230  0.00  0.00    -0.268 OA
ENDBRANCH  12  13
ENDBRANCH  10  12
ENDBRANCH   5   8
BRANCH   3  23
HETATM   23  C   UNK N   1      25.654  16.004   4.204  0.00  0.00    -0.026 A 
HETATM   24  C   UNK N   1      25.802  16.884   5.288  0.00  0.00     0.013 A 
HETATM   25  C   UNK N   1      26.995  17.592   5.444  0.00  0.00     0.010 A 
HETATM   26  C   UNK N   1      28.012  17.454   4.492  0.00  0.00    -0.030 A 
HETATM   27  C   UNK N   1      27.809  16.680   3.353  0.00  0.00     0.010 A 
HETATM   28  C   UNK N   1      26.647  15.939   3.222  0.00  0.00     0.013 A 
BRANCH  26  29
HETATM   29  C   UNK N   1      29.387  17.931   4.806  0.00  0.00     0.311 C 
BRANCH  29  30
HETATM   30  N   UNK N   1      30.393  16.845   4.742  0.00  0.00     0.096 N 
HETATM   31  C   UNK N   1      30.865  16.450   6.075  0.00  0.00     0.299 C 
HETATM   32  C   UNK N   1      32.146  17.194   6.457  0.00  0.00     0.198 C 
HETATM   33  O   UNK N   1      33.137  16.930   5.500  0.00  0.00    -0.388 OA
HETATM   34  C   UNK N   1      32.750  17.617   4.339  0.00  0.00     0.198 C 
HETATM   35  C   UNK N   1      31.480  16.980   3.740  0.00  0.00     0.299 C 
ENDBRANCH  29  30
ENDBRANCH  26  29
ENDBRANCH   3  23
BRANCH   1  36
HETATM   36  N   UNK N   1      22.817  12.738   6.515  0.00  0.00    -0.376 N 
BRANCH  36  37
HETATM   37  C   UNK N   1      23.666  11.645   6.960  0.00  0.00     0.119 C 
HETATM   38  C   UNK N   1      23.410  10.380   6.166  0.00  0.00     0.026 C 
ENDBRANCH  36  37
BRANCH  36  39
HETATM   39  C   UNK N   1      21.733  13.075   7.443  0.00  0.00     0.088 C 
HETATM   40  C   UNK N   1      20.818  14.300   7.291  0.00  0.00     0.051 C 
HETATM   41  C   UNK N   1      20.895  15.165   8.572  0.00  0.00     0.169 C 
HETATM   42  O   UNK N   1      20.768  14.385   9.736  0.00  0.00    -0.391 OA
HETATM   43  C   UNK N   1      21.941  13.621   9.837  0.00  0.00     0.169 C 
HETATM   44  C   UNK N   1      21.860  12.482   8.843  0.00  0.00     0.051 C 
ENDBRANCH  36  39
ENDBRANCH   1  36
TORSDOF 9
ENDMDL
MODEL 8
REMARK VINA RESULT:      -8.2      1.854      5.891
REMARK  9 active torsions:
REMARK  status: ('A' for Active; 'I' for Inactive)
REMARK    1  A    between atoms: C_2  and  N_3 
REMARK    2  A    between atoms: N_3  and  C_4 
REMARK    3  A    between atoms: N_3  and  C_37 
REMARK    4  A    between atoms: C_6  and  C_24 
REMARK    5  A    between atoms: C_8  and  C_11 
REMARK       I    between atoms: C_11  and  N_13 
REMARK    6  A    between atoms: N_13  and  C_14 
REMARK    7  A    between atoms: C_14  and  C_15 
REMARK    8  A    between atoms: C_27  and  C_30 
REMARK    9  A    between atoms: C_30  and  N_31 
ROOT
HETATM    1  C   UNK N   1      21.361  15.439   5.299  0.00  0.00     0.038 A 
HETATM    2  C   UNK N   1      22.651  15.966   5.142  0.00  0.00     0.042 A 
HETATM    3  C   UNK N   1      22.922  17.015   4.283  0.00  0.00    -0.023 A 
HETATM    4  C   UNK N   1      21.906  17.531   3.488  0.00  0.00     0.030 A 
HETATM    5  C   UNK N   1      20.611  17.025   3.531  0.00  0.00     0.041 A 
HETATM    6  C   UNK N   1      20.321  16.003   4.486  0.00  0.00    -0.020 A 
HETATM    7  C   UNK N   1      18.923  15.673   4.745  0.00  0.00     0.052 C 
ENDROOT
BRANCH   5   8
HETATM    8  C   UNK N   1      19.614  17.685   2.601  0.00  0.00     0.252 C 
HETATM    9  O   UNK N   1      18.978  18.635   3.034  0.00  0.00    -0.268 OA
HETATM   10  N   UNK N   1      19.443  17.362   1.284  0.00  0.00    -0.352 N 
HETATM   11  H   UNK N   1      18.649  17.722   0.825  0.00  0.00     0.163 HD
BRANCH  10  12
HETATM   12  C   UNK N   1      20.339  16.532   0.518  0.00  0.00     0.167 C 
BRANCH  12  13
HETATM   13  C   UNK N   1      20.001  15.064   0.601  0.00  0.00     0.033 A 
HETATM   14  C   UNK N   1      20.944  14.141   1.103  0.00  0.00    -0.047 A 
HETATM   15  C   UNK N   1      20.587  12.802   1.273  0.00  0.00     0.032 A 
HETATM   16  C   UNK N   1      22.324  14.567   1.477  0.00  0.00     0.049 C 
HETATM   17  C   UNK N   1      19.301  12.380   0.942  0.00  0.00     0.009 A 
HETATM   18  N   UNK N   1      18.408  13.263   0.423  0.00  0.00    -0.327 N 
HETATM   19  C   UNK N   1      18.894  10.970   1.168  0.00  0.00     0.068 C 
HETATM   20  C   UNK N   1      18.727  14.578   0.240  0.00  0.00     0.254 A 
HETATM   21  H   UNK N   1      17.509  12.947   0.174  0.00  0.00     0.169 HD
HETATM   22  O   UNK N   1      17.886  15.328  -0.230  0.00  0.00    -0.268 OA
ENDBRANCH  12  13
ENDBRANCH  10  12
ENDBRANCH   5   8
BRANCH   3  23
HETATM   23  C   UNK N   1      24.281  17.540   4.140  0.00  0.00    -0.026 A 
HETATM   24  C   UNK N   1      24.659  18.738   4.767  0.00  0.00     0.013 A 
HETATM   25  C   UNK N   1      26.010  19.084   4.835  0.00  0.00     0.010 A 
HETATM   26  C   UNK N   1      26.968  18.258   4.235  0.00  0.00    -0.030 A 
HETATM   27  C   UNK N   1      26.575  17.140   3.504  0.00  0.00     0.010 A 
HETATM   28  C   UNK N   1      25.242  16.769   3.478  0.00  0.00     0.013 A 
BRANCH  26  29
HETATM   29  C   UNK N   1      28.408  18.430   4.574  0.00  0.00     0.311 C 
BRANCH  29  30
HETATM   30  N   UNK N   1      29.077  17.143   4.878  0.00  0.00     0.096 N 
HETATM   31  C   UNK N   1      29.015  16.813   6.307  0.00  0.00     0.299 C 
HETATM   32  C   UNK N   1      30.271  17.286   7.044  0.00  0.00     0.198 C 
HETATM   33  O   UNK N   1      31.400  16.691   6.463  0.00  0.00    -0.388 OA
HETATM   34  C   UNK N   1      31.562  17.304   5.211  0.00  0.00     0.198 C 
HETATM   35  C   UNK N   1      30.409  16.906   4.268  0.00  0.00     0.299 C 
ENDBRANCH  29  30
ENDBRANCH  26  29
ENDBRANCH   3  23
BRANCH   1  36
HETATM   36  N   UNK N   1      21.192  14.420   6.326  0.00  0.00    -0.376 N 
BRANCH  36  37
HETATM   37  C   UNK N   1      20.464  13.214   5.968  0.00  0.00     0.119 C 
HETATM   38  C   UNK N   1      21.213  12.394   4.937  0.00  0.00     0.026 C 
ENDBRANCH  36  37
BRANCH  36  39
HETATM   39  C   UNK N   1      21.695  14.433   7.703  0.00  0.00     0.088 C 
HETATM   40  C   UNK N   1      22.793  13.495   8.228  0.00  0.00     0.051 C 
HETATM   41  C   UNK N   1      22.259  12.702   9.444  0.00  0.00     0.169 C 
HETATM   42  O   UNK N   1      21.608  13.540  10.368  0.00  0.00    -0.391 OA
HETATM   43  C   UNK N   1      20.417  13.961   9.758  0.00  0.00     0.169 C 
HETATM   44  C   UNK N   1      20.751  15.033   8.741  0.00  0.00     0.051 C 
ENDBRANCH  36  39
ENDBRANCH   1  36
TORSDOF 9
ENDMDL
MODEL 9
REMARK VINA RESULT:      -8.1      2.277      6.585
REMARK  9 active torsions:
REMARK  status: ('A' for Active; 'I' for Inactive)
REMARK    1  A    between atoms: C_2  and  N_3 
REMARK    2  A    between atoms: N_3  and  C_4 
REMARK    3  A    between atoms: N_3  and  C_37 
REMARK    4  A    between atoms: C_6  and  C_24 
REMARK    5  A    between atoms: C_8  and  C_11 
REMARK       I    between atoms: C_11  and  N_13 
REMARK    6  A    between atoms: N_13  and  C_14 
REMARK    7  A    between atoms: C_14  and  C_15 
REMARK    8  A    between atoms: C_27  and  C_30 
REMARK    9  A    between atoms: C_30  and  N_31 
ROOT
HETATM    1  C   UNK N   1      22.725  14.282   6.796  0.00  0.00     0.038 A 
HETATM    2  C   UNK N   1      23.851  15.103   6.639  0.00  0.00     0.042 A 
HETATM    3  C   UNK N   1      24.315  15.492   5.395  0.00  0.00    -0.023 A 
HETATM    4  C   UNK N   1      23.697  15.005   4.250  0.00  0.00     0.030 A 
HETATM    5  C   UNK N   1      22.614  14.135   4.312  0.00  0.00     0.041 A 
HETATM    6  C   UNK N   1      22.086  13.811   5.600  0.00  0.00    -0.020 A 
HETATM    7  C   UNK N   1      20.789  13.146   5.670  0.00  0.00     0.052 C 
ENDROOT
BRANCH   5   8
HETATM    8  C   UNK N   1      22.051  13.685   2.979  0.00  0.00     0.252 C 
HETATM    9  O   UNK N   1      22.562  12.712   2.447  0.00  0.00    -0.268 OA
HETATM   10  N   UNK N   1      20.950  14.226   2.377  0.00  0.00    -0.352 N 
HETATM   11  H   UNK N   1      20.780  13.986   1.437  0.00  0.00     0.163 HD
BRANCH  10  12
HETATM   12  C   UNK N   1      20.019  15.122   3.017  0.00  0.00     0.167 C 
BRANCH  12  13
HETATM   13  C   UNK N   1      20.170  16.553   2.564  0.00  0.00     0.033 A 
HETATM   14  C   UNK N   1      20.576  17.551   3.478  0.00  0.00    -0.047 A 
HETATM   15  C   UNK N   1      20.814  18.851   3.029  0.00  0.00     0.032 A 
HETATM   16  C   UNK N   1      20.773  17.245   4.925  0.00  0.00     0.049 C 
HETATM   17  C   UNK N   1      20.647  19.161   1.681  0.00  0.00     0.009 A 
HETATM   18  N   UNK N   1      20.221  18.208   0.812  0.00  0.00    -0.327 N 
HETATM   19  C   UNK N   1      20.948  20.528   1.184  0.00  0.00     0.068 C 
HETATM   20  C   UNK N   1      19.974  16.928   1.219  0.00  0.00     0.254 A 
HETATM   21  H   UNK N   1      20.087  18.445  -0.134  0.00  0.00     0.169 HD
HETATM   22  O   UNK N   1      19.592  16.111   0.396  0.00  0.00    -0.268 OA
ENDBRANCH  12  13
ENDBRANCH  10  12
ENDBRANCH   5   8
BRANCH   3  23
HETATM   23  C   UNK N   1      25.497  16.346   5.265  0.00  0.00    -0.026 A 
HETATM   24  C   UNK N   1      26.319  16.610   6.372  0.00  0.00     0.013 A 
HETATM   25  C   UNK N   1      27.568  17.203   6.179  0.00  0.00     0.010 A 
HETATM   26  C   UNK N   1      27.966  17.573   4.889  0.00  0.00    -0.030 A 
HETATM   27  C   UNK N   1      27.093  17.427   3.814  0.00  0.00     0.010 A 
HETATM   28  C   UNK N   1      25.876  16.794   3.997  0.00  0.00     0.013 A 
BRANCH  26  29
HETATM   29  C   UNK N   1      29.394  17.895   4.621  0.00  0.00     0.311 C 
BRANCH  29  30
HETATM   30  N   UNK N   1      30.232  16.682   4.471  0.00  0.00     0.096 N 
HETATM   31  C   UNK N   1      31.241  16.574   5.532  0.00  0.00     0.299 C 
HETATM   32  C   UNK N   1      32.578  17.175   5.095  0.00  0.00     0.198 C 
HETATM   33  O   UNK N   1      33.025  16.518   3.939  0.00  0.00    -0.388 OA
HETATM   34  C   UNK N   1      32.178  16.936   2.902  0.00  0.00     0.198 C 
HETATM   35  C   UNK N   1      30.756  16.378   3.116  0.00  0.00     0.299 C 
ENDBRANCH  29  30
ENDBRANCH  26  29
ENDBRANCH   3  23
BRANCH   1  36
HETATM   36  N   UNK N   1      22.272  14.051   8.161  0.00  0.00    -0.376 N 
BRANCH  36  37
HETATM   37  C   UNK N   1      21.589  15.140   8.840  0.00  0.00     0.119 C 
HETATM   38  C   UNK N   1      20.202  15.371   8.274  0.00  0.00     0.026 C 
ENDBRANCH  36  37
BRANCH  36  39
HETATM   39  C   UNK N   1      22.388  12.825   8.957  0.00  0.00     0.088 C 
HETATM   40  C   UNK N   1      21.446  12.456  10.113  0.00  0.00     0.051 C 
HETATM   41  C   UNK N   1      22.271  12.232  11.402  0.00  0.00     0.169 C 
HETATM   42  O   UNK N   1      23.388  11.408  11.170  0.00  0.00    -0.391 OA
HETATM   43  C   UNK N   1      24.281  12.154  10.386  0.00  0.00     0.169 C 
HETATM   44  C   UNK N   1      23.768  12.174   8.961  0.00  0.00     0.051 C 
ENDBRANCH  36  39
ENDBRANCH   1  36
TORSDOF 9
ENDMDL
