MODEL 1
REMARK VINA RESULT:      -7.1      0.000      0.000
REMARK  5 active torsions:
REMARK  status: ('A' for Active; 'I' for Inactive)
REMARK    1  A    between atoms: C_2  and  O_3 
REMARK    2  A    between atoms: O_3  and  C_4 
REMARK       I    between atoms: C_9  and  N_12 
REMARK    3  A    between atoms: C_17  and  N_13 
REMARK    4  A    between atoms: P_24  and  O_27 
REMARK    5  A    between atoms: O_27  and  C_28 
ROOT
HETATM    1  C   UNK N   1      33.032  16.266   8.596  0.00  0.00     0.188 A 
HETATM    2  C   UNK N   1      34.103  16.192   9.499  0.00  0.00     0.130 A 
HETATM    3  C   UNK N   1      34.649  15.000   9.803  0.00  0.00     0.157 A 
HETATM    4  N   UNK N   1      34.195  13.843   9.265  0.00  0.00    -0.174 N 
ATOM      5  HN  UNK N   1      34.619  12.952   9.520  1.00  0.00     0.186 HD
HETATM    6  C   UNK N   1      33.164  13.891   8.374  0.00  0.00     0.679 A 
HETATM    7  N   UNK N   1      32.589  15.093   8.050  0.00  0.00    -0.168 N 
ATOM      8  HN  UNK N   1      31.814  15.112   7.387  1.00  0.00     0.186 HD
HETATM    9  N   UNK N   1      32.688  12.700   7.792  0.00  0.00    -0.234 N 
HETATM   10  N   UNK N   1      35.633  15.170  10.709  0.00  0.00    -0.296 N 
HETATM   11  C   UNK N   1      35.661  16.507  10.940  0.00  0.00     0.188 A 
HETATM   12  N   UNK N   1      34.726  17.163  10.195  0.00  0.00    -0.346 N 
ATOM     13  HN  UNK N   1      34.539  18.166  10.172  1.00  0.00     0.167 HD
HETATM   14  H   UNK N   1      31.865  12.711   7.252  0.00  0.00     0.174 HD
HETATM   15  H   UNK N   1      33.179  11.857   7.926  0.00  0.00     0.174 HD
ENDROOT
BRANCH  10  16
HETATM   16  C   UNK N   1      36.472  14.179  11.409  0.00  0.00     0.273 C 
HETATM   17  C   UNK N   1      36.057  13.857  12.828  0.00  0.00     0.172 C 
HETATM   18  C   UNK N   1      36.843  12.602  13.071  0.00  0.00     0.208 C 
HETATM   19  C   UNK N   1      36.438  14.938  13.822  0.00  0.00     0.059 C 
HETATM   20  F   UNK N   1      34.698  13.569  12.876  0.00  0.00    -0.236 F 
HETATM   21  C   UNK N   1      37.362  12.249  11.691  0.00  0.00     0.181 C 
HETATM   22  O   UNK N   1      35.954  11.592  13.468  0.00  0.00    -0.281 OA
HETATM   23  O   UNK N   1      36.556  12.935  10.760  0.00  0.00    -0.353 OA
HETATM   24  C   UNK N   1      37.325  10.726  11.588  0.00  0.00     0.215 C 
HETATM   25  O   UNK N   1      37.918  10.213  12.768  0.00  0.00    -0.290 OA
HETATM   26  P   UNK N   1      36.821  10.238  14.187  0.00  0.00     0.478 P 
HETATM   27  O   UNK N   1      38.203  10.785  14.646  0.00  0.00    -0.227 OA
BRANCH  26  28
HETATM   28  O   UNK N   1      36.638  11.345  15.538  0.00  0.00    -0.288 OA
BRANCH  28  29
HETATM   29  C   UNK N   1      35.282  11.342  15.906  0.00  0.00     0.125 C 
HETATM   30  C   UNK N   1      35.028  10.231  16.899  0.00  0.00     0.040 C 
HETATM   31  C   UNK N   1      34.918  12.668  16.557  0.00  0.00     0.040 C 
ENDBRANCH  28  29
ENDBRANCH  26  28
ENDBRANCH  10  16
BRANCH   1  32
HETATM   32  O   UNK N   1      32.415  17.425   8.258  0.00  0.00    -0.334 OA
BRANCH  32  33
HETATM   33  C   UNK N   1      31.063  17.543   8.038  0.00  0.00     0.173 C 
HETATM   34  C   UNK N   1      30.461  18.481   9.063  0.00  0.00     0.034 C 
ENDBRANCH  32  33
ENDBRANCH   1  32
TORSDOF 5
ENDMDL
MODEL 2
REMARK VINA RESULT:      -6.9      8.934     12.287
REMARK  5 active torsions:
REMARK  status: ('A' for Active; 'I' for Inactive)
REMARK    1  A    between atoms: C_2  and  O_3 
REMARK    2  A    between atoms: O_3  and  C_4 
REMARK       I    between atoms: C_9  and  N_12 
REMARK    3  A    between atoms: C_17  and  N_13 
REMARK    4  A    between atoms: P_24  and  O_27 
REMARK    5  A    between atoms: O_27  and  C_28 
ROOT
HETATM    1  C   UNK N   1      22.065  19.125   4.053  0.00  0.00     0.188 A 
HETATM    2  C   UNK N   1      23.388  19.390   3.670  0.00  0.00     0.130 A 
HETATM    3  C   UNK N   1      24.352  18.476   3.892  0.00  0.00     0.157 A 
HETATM    4  N   UNK N   1      24.090  17.286   4.484  0.00  0.00    -0.174 N 
ATOM      5  HN  UNK N   1      24.839  16.615   4.651  1.00  0.00     0.186 HD
HETATM    6  C   UNK N   1      22.809  17.001   4.852  0.00  0.00     0.679 A 
HETATM    7  N   UNK N   1      21.811  17.916   4.640  0.00  0.00    -0.168 N 
ATOM      8  HN  UNK N   1      20.858  17.691   4.927  1.00  0.00     0.186 HD
HETATM    9  N   UNK N   1      22.515  15.763   5.457  0.00  0.00    -0.234 N 
HETATM   10  N   UNK N   1      25.540  18.958   3.475  0.00  0.00    -0.296 N 
HETATM   11  C   UNK N   1      25.259  20.196   2.994  0.00  0.00     0.188 A 
HETATM   12  N   UNK N   1      23.931  20.483   3.098  0.00  0.00    -0.346 N 
ATOM     13  HN  UNK N   1      23.453  21.337   2.808  1.00  0.00     0.167 HD
HETATM   14  H   UNK N   1      21.623  15.602   5.841  0.00  0.00     0.174 HD
HETATM   15  H   UNK N   1      23.202  15.059   5.495  0.00  0.00     0.174 HD
ENDROOT
BRANCH  10  16
HETATM   16  C   UNK N   1      26.894  18.379   3.568  0.00  0.00     0.273 C 
HETATM   17  C   UNK N   1      27.647  18.682   4.844  0.00  0.00     0.172 C 
HETATM   18  C   UNK N   1      28.752  17.669   4.763  0.00  0.00     0.208 C 
HETATM   19  C   UNK N   1      28.205  20.092   4.890  0.00  0.00     0.059 C 
HETATM   20  F   UNK N   1      26.849  18.408   5.949  0.00  0.00    -0.236 F 
HETATM   21  C   UNK N   1      28.315  16.776   3.620  0.00  0.00     0.181 C 
HETATM   22  O   UNK N   1      28.738  16.903   5.939  0.00  0.00    -0.281 OA
HETATM   23  O   UNK N   1      26.932  16.980   3.442  0.00  0.00    -0.353 OA
HETATM   24  C   UNK N   1      28.721  15.353   3.998  0.00  0.00     0.215 C 
HETATM   25  O   UNK N   1      30.065  15.406   4.440  0.00  0.00    -0.290 OA
HETATM   26  P   UNK N   1      30.241  16.004   6.122  0.00  0.00     0.478 P 
HETATM   27  O   UNK N   1      31.304  16.729   5.247  0.00  0.00    -0.227 OA
BRANCH  26  28
HETATM   28  O   UNK N   1      30.642  17.576   6.796  0.00  0.00    -0.288 OA
BRANCH  28  29
HETATM   29  C   UNK N   1      30.992  17.382   8.143  0.00  0.00     0.125 C 
HETATM   30  C   UNK N   1      32.417  17.834   8.368  0.00  0.00     0.040 C 
HETATM   31  C   UNK N   1      30.076  18.198   9.041  0.00  0.00     0.040 C 
ENDBRANCH  28  29
ENDBRANCH  26  28
ENDBRANCH  10  16
BRANCH   1  32
HETATM   32  O   UNK N   1      21.047  20.004   3.883  0.00  0.00    -0.334 OA
BRANCH  32  33
HETATM   33  C   UNK N   1      20.093  19.897   2.899  0.00  0.00     0.173 C 
HETATM   34  C   UNK N   1      20.607  20.523   1.621  0.00  0.00     0.034 C 
ENDBRANCH  32  33
ENDBRANCH   1  32
TORSDOF 5
ENDMDL
MODEL 3
REMARK VINA RESULT:      -6.7      3.489      8.374
REMARK  5 active torsions:
REMARK  status: ('A' for Active; 'I' for Inactive)
REMARK    1  A    between atoms: C_2  and  O_3 
REMARK    2  A    between atoms: O_3  and  C_4 
REMARK       I    between atoms: C_9  and  N_12 
REMARK    3  A    between atoms: C_17  and  N_13 
REMARK    4  A    between atoms: P_24  and  O_27 
REMARK    5  A    between atoms: O_27  and  C_28 
ROOT
HETATM    1  C   UNK N   1      36.037  11.984  13.749  0.00  0.00     0.188 A 
HETATM    2  C   UNK N   1      35.656  12.329  12.444  0.00  0.00     0.130 A 
HETATM    3  C   UNK N   1      35.781  13.599  12.017  0.00  0.00     0.157 A 
HETATM    4  N   UNK N   1      36.267  14.581  12.814  0.00  0.00    -0.174 N 
ATOM      5  HN  UNK N   1      36.342  15.538  12.470  1.00  0.00     0.186 HD
HETATM    6  C   UNK N   1      36.658  14.267  14.081  0.00  0.00     0.679 A 
HETATM    7  N   UNK N   1      36.538  12.981  14.541  0.00  0.00    -0.168 N 
ATOM      8  HN  UNK N   1      36.828  12.763  15.494  1.00  0.00     0.186 HD
HETATM    9  N   UNK N   1      37.180  15.271  14.920  0.00  0.00    -0.234 N 
HETATM   10  N   UNK N   1      35.324  13.700  10.752  0.00  0.00    -0.296 N 
HETATM   11  C   UNK N   1      34.920  12.445  10.432  0.00  0.00     0.188 A 
HETATM   12  N   UNK N   1      35.122  11.576  11.462  0.00  0.00    -0.346 N 
ATOM     13  HN  UNK N   1      34.915  10.577  11.485  1.00  0.00     0.167 HD
HETATM   14  H   UNK N   1      37.342  15.082  15.873  0.00  0.00     0.174 HD
HETATM   15  H   UNK N   1      37.383  16.162  14.553  0.00  0.00     0.174 HD
ENDROOT
BRANCH  10  16
HETATM   16  C   UNK N   1      35.176  14.880   9.879  0.00  0.00     0.273 C 
HETATM   17  C   UNK N   1      35.122  14.592   8.395  0.00  0.00     0.172 C 
HETATM   18  C   UNK N   1      34.601  15.900   7.876  0.00  0.00     0.208 C 
HETATM   19  C   UNK N   1      36.479  14.271   7.797  0.00  0.00     0.059 C 
HETATM   20  F   UNK N   1      34.195  13.588   8.135  0.00  0.00    -0.236 F 
HETATM   21  C   UNK N   1      34.182  16.628   9.137  0.00  0.00     0.181 C 
HETATM   22  O   UNK N   1      33.445  15.648   7.120  0.00  0.00    -0.281 OA
HETATM   23  O   UNK N   1      34.034  15.654  10.145  0.00  0.00    -0.353 OA
HETATM   24  C   UNK N   1      32.915  17.406   8.792  0.00  0.00     0.215 C 
HETATM   25  O   UNK N   1      33.162  18.089   7.576  0.00  0.00    -0.290 OA
HETATM   26  P   UNK N   1      33.027  17.041   6.127  0.00  0.00     0.478 P 
HETATM   27  O   UNK N   1      34.323  17.890   5.979  0.00  0.00    -0.227 OA
BRANCH  26  28
HETATM   28  O   UNK N   1      34.216  16.203   5.142  0.00  0.00    -0.288 OA
BRANCH  28  29
HETATM   29  C   UNK N   1      33.517  15.366   4.257  0.00  0.00     0.125 C 
HETATM   30  C   UNK N   1      33.187  16.126   2.992  0.00  0.00     0.040 C 
HETATM   31  C   UNK N   1      34.374  14.164   3.891  0.00  0.00     0.040 C 
ENDBRANCH  28  29
ENDBRANCH  26  28
ENDBRANCH  10  16
BRANCH   1  32
HETATM   32  O   UNK N   1      35.921  10.733  14.258  0.00  0.00    -0.334 OA
BRANCH  32  33
HETATM   33  C   UNK N   1      34.990  10.369  15.201  0.00  0.00     0.173 C 
HETATM   34  C   UNK N   1      33.602  10.722  14.711  0.00  0.00     0.034 C 
ENDBRANCH  32  33
ENDBRANCH   1  32
TORSDOF 5
ENDMDL
MODEL 4
REMARK VINA RESULT:      -6.7      2.476      3.499
REMARK  5 active torsions:
REMARK  status: ('A' for Active; 'I' for Inactive)
REMARK    1  A    between atoms: C_2  and  O_3 
REMARK    2  A    between atoms: O_3  and  C_4 
REMARK       I    between atoms: C_9  and  N_12 
REMARK    3  A    between atoms: C_17  and  N_13 
REMARK    4  A    between atoms: P_24  and  O_27 
REMARK    5  A    between atoms: O_27  and  C_28 
ROOT
HETATM    1  C   UNK N   1      30.368  16.806   6.879  0.00  0.00     0.188 A 
HETATM    2  C   UNK N   1      31.597  17.007   7.525  0.00  0.00     0.130 A 
HETATM    3  C   UNK N   1      32.554  16.062   7.466  0.00  0.00     0.157 A 
HETATM    4  N   UNK N   1      32.374  14.899   6.795  0.00  0.00    -0.174 N 
ATOM      5  HN  UNK N   1      33.110  14.194   6.774  1.00  0.00     0.186 HD
HETATM    6  C   UNK N   1      31.193  14.687   6.149  0.00  0.00     0.679 A 
HETATM    7  N   UNK N   1      30.201  15.633   6.197  0.00  0.00    -0.168 N 
ATOM      8  HN  UNK N   1      29.320  15.457   5.713  1.00  0.00     0.186 HD
HETATM    9  N   UNK N   1      30.992  13.489   5.435  0.00  0.00    -0.234 N 
HETATM   10  N   UNK N   1      33.626  16.456   8.181  0.00  0.00    -0.296 N 
HETATM   11  C   UNK N   1      33.282  17.673   8.675  0.00  0.00     0.188 A 
HETATM   12  N   UNK N   1      32.031  18.038   8.275  0.00  0.00    -0.346 N 
ATOM     13  HN  UNK N   1      31.533  18.902   8.497  1.00  0.00     0.167 HD
HETATM   14  H   UNK N   1      30.101  13.273   5.075  0.00  0.00     0.174 HD
HETATM   15  H   UNK N   1      31.744  12.869   5.294  0.00  0.00     0.174 HD
ENDROOT
BRANCH  10  16
HETATM   16  C   UNK N   1      34.885  15.751   8.486  0.00  0.00     0.273 C 
HETATM   17  C   UNK N   1      35.090  15.377   9.938  0.00  0.00     0.172 C 
HETATM   18  C   UNK N   1      36.212  14.389   9.816  0.00  0.00     0.208 C 
HETATM   19  C   UNK N   1      35.492  16.553  10.808  0.00  0.00     0.059 C 
HETATM   20  F   UNK N   1      33.959  14.735  10.431  0.00  0.00    -0.236 F 
HETATM   21  C   UNK N   1      36.293  14.142   8.323  0.00  0.00     0.181 C 
HETATM   22  O   UNK N   1      35.816  13.190  10.429  0.00  0.00    -0.281 OA
HETATM   23  O   UNK N   1      35.064  14.555   7.770  0.00  0.00    -0.353 OA
HETATM   24  C   UNK N   1      36.626  12.664   8.141  0.00  0.00     0.215 C 
HETATM   25  O   UNK N   1      37.704  12.368   9.011  0.00  0.00    -0.290 OA
HETATM   26  P   UNK N   1      37.203  12.143  10.719  0.00  0.00     0.478 P 
HETATM   27  O   UNK N   1      38.462  13.057  10.711  0.00  0.00    -0.227 OA
BRANCH  26  28
HETATM   28  O   UNK N   1      37.216  13.204  12.119  0.00  0.00    -0.288 OA
BRANCH  28  29
HETATM   29  C   UNK N   1      36.419  12.606  13.110  0.00  0.00     0.125 C 
HETATM   30  C   UNK N   1      37.295  11.824  14.062  0.00  0.00     0.040 C 
HETATM   31  C   UNK N   1      35.679  13.676  13.898  0.00  0.00     0.040 C 
ENDBRANCH  28  29
ENDBRANCH  26  28
ENDBRANCH  10  16
BRANCH   1  32
HETATM   32  O   UNK N   1      29.349  17.700   6.913  0.00  0.00    -0.334 OA
BRANCH  32  33
HETATM   33  C   UNK N   1      28.159  17.487   7.567  0.00  0.00     0.173 C 
HETATM   34  C   UNK N   1      28.261  17.994   8.990  0.00  0.00     0.034 C 
ENDBRANCH  32  33
ENDBRANCH   1  32
TORSDOF 5
ENDMDL
MODEL 5
REMARK VINA RESULT:      -6.7      3.251      5.034
REMARK  5 active torsions:
REMARK  status: ('A' for Active; 'I' for Inactive)
REMARK    1  A    between atoms: C_2  and  O_3 
REMARK    2  A    between atoms: O_3  and  C_4 
REMARK       I    between atoms: C_9  and  N_12 
REMARK    3  A    between atoms: C_17  and  N_13 
REMARK    4  A    between atoms: P_24  and  O_27 
REMARK    5  A    between atoms: O_27  and  C_28 
ROOT
HETATM    1  C   UNK N   1      35.215  14.197  11.884  0.00  0.00     0.188 A 
HETATM    2  C   UNK N   1      35.818  14.024  13.138  0.00  0.00     0.130 A 
HETATM    3  C   UNK N   1      35.746  12.834  13.764  0.00  0.00     0.157 A 
HETATM    4  N   UNK N   1      35.099  11.775  13.222  0.00  0.00    -0.174 N 
ATOM      5  HN  UNK N   1      35.048  10.887  13.720  1.00  0.00     0.186 HD
HETATM    6  C   UNK N   1      34.517  11.915  11.997  0.00  0.00     0.679 A 
HETATM    7  N   UNK N   1      34.574  13.118  11.340  0.00  0.00    -0.168 N 
ATOM      8  HN  UNK N   1      34.128  13.209  10.427  1.00  0.00     0.186 HD
HETATM    9  N   UNK N   1      33.852  10.821  11.410  0.00  0.00    -0.234 N 
HETATM   10  N   UNK N   1      36.363  12.912  14.961  0.00  0.00    -0.296 N 
HETATM   11  C   UNK N   1      36.810  14.191  15.034  0.00  0.00     0.188 A 
HETATM   12  N   UNK N   1      36.490  14.898  13.913  0.00  0.00    -0.346 N 
ATOM     13  HN  UNK N   1      36.710  15.873  13.707  1.00  0.00     0.167 HD
HETATM   14  H   UNK N   1      33.321  10.949  10.590  0.00  0.00     0.174 HD
HETATM   15  H   UNK N   1      33.918   9.928  11.819  0.00  0.00     0.174 HD
ENDROOT
BRANCH  10  16
HETATM   16  C   UNK N   1      36.488  11.914  16.040  0.00  0.00     0.273 C 
HETATM   17  C   UNK N   1      35.321  11.839  16.999  0.00  0.00     0.172 C 
HETATM   18  C   UNK N   1      35.602  10.530  17.678  0.00  0.00     0.208 C 
HETATM   19  C   UNK N   1      35.295  12.977  18.001  0.00  0.00     0.059 C 
HETATM   20  F   UNK N   1      34.126  11.747  16.293  0.00  0.00    -0.236 F 
HETATM   21  C   UNK N   1      36.708   9.934  16.831  0.00  0.00     0.181 C 
HETATM   22  O   UNK N   1      34.470   9.711  17.547  0.00  0.00    -0.281 OA
HETATM   23  O   UNK N   1      36.678  10.597  15.588  0.00  0.00    -0.353 OA
HETATM   24  C   UNK N   1      36.452   8.430  16.774  0.00  0.00     0.215 C 
HETATM   25  O   UNK N   1      36.204   7.998  18.100  0.00  0.00    -0.290 OA
HETATM   26  P   UNK N   1      34.541   8.355  18.669  0.00  0.00     0.478 P 
HETATM   27  O   UNK N   1      35.527   8.763  19.801  0.00  0.00    -0.227 OA
BRANCH  26  28
HETATM   28  O   UNK N   1      33.865   9.642  19.655  0.00  0.00    -0.288 OA
BRANCH  28  29
HETATM   29  C   UNK N   1      33.051   9.043  20.631  0.00  0.00     0.125 C 
HETATM   30  C   UNK N   1      32.710  10.057  21.700  0.00  0.00     0.040 C 
HETATM   31  C   UNK N   1      31.758   8.550  19.999  0.00  0.00     0.040 C 
ENDBRANCH  28  29
ENDBRANCH  26  28
ENDBRANCH  10  16
BRANCH   1  32
HETATM   32  O   UNK N   1      35.226  15.369  11.204  0.00  0.00    -0.334 OA
BRANCH  32  33
HETATM   33  C   UNK N   1      35.231  15.464   9.832  0.00  0.00     0.173 C 
HETATM   34  C   UNK N   1      34.729  16.830   9.414  0.00  0.00     0.034 C 
ENDBRANCH  32  33
ENDBRANCH   1  32
TORSDOF 5
ENDMDL
MODEL 6
REMARK VINA RESULT:      -6.6      9.070     12.547
REMARK  5 active torsions:
REMARK  status: ('A' for Active; 'I' for Inactive)
REMARK    1  A    between atoms: C_2  and  O_3 
REMARK    2  A    between atoms: O_3  and  C_4 
REMARK       I    between atoms: C_9  and  N_12 
REMARK    3  A    between atoms: C_17  and  N_13 
REMARK    4  A    between atoms: P_24  and  O_27 
REMARK    5  A    between atoms: O_27  and  C_28 
ROOT
HETATM    1  C   UNK N   1      29.207  15.895   5.834  0.00  0.00     0.188 A 
HETATM    2  C   UNK N   1      28.057  15.229   5.389  0.00  0.00     0.130 A 
HETATM    3  C   UNK N   1      26.856  15.522   5.924  0.00  0.00     0.157 A 
HETATM    4  N   UNK N   1      26.712  16.452   6.898  0.00  0.00    -0.174 N 
ATOM      5  HN  UNK N   1      25.793  16.648   7.295  1.00  0.00     0.186 HD
HETATM    6  C   UNK N   1      27.814  17.122   7.337  0.00  0.00     0.679 A 
HETATM    7  N   UNK N   1      29.048  16.840   6.810  0.00  0.00    -0.168 N 
ATOM      8  HN  UNK N   1      29.865  17.346   7.154  1.00  0.00     0.186 HD
HETATM    9  N   UNK N   1      27.682  18.103   8.339  0.00  0.00    -0.234 N 
HETATM   10  N   UNK N   1      25.909  14.740   5.369  0.00  0.00    -0.296 N 
HETATM   11  C   UNK N   1      26.580  13.964   4.480  0.00  0.00     0.188 A 
HETATM   12  N   UNK N   1      27.912  14.255   4.469  0.00  0.00    -0.346 N 
ATOM     13  HN  UNK N   1      28.638  13.828   3.894  1.00  0.00     0.167 HD
HETATM   14  H   UNK N   1      28.484  18.498   8.752  0.00  0.00     0.174 HD
HETATM   15  H   UNK N   1      26.786  18.395   8.627  0.00  0.00     0.174 HD
ENDROOT
BRANCH  10  16
HETATM   16  C   UNK N   1      24.469  14.623   5.666  0.00  0.00     0.273 C 
HETATM   17  C   UNK N   1      24.109  13.682   6.794  0.00  0.00     0.172 C 
HETATM   18  C   UNK N   1      22.690  14.093   7.060  0.00  0.00     0.208 C 
HETATM   19  C   UNK N   1      24.185  12.219   6.400  0.00  0.00     0.059 C 
HETATM   20  F   UNK N   1      24.887  13.955   7.913  0.00  0.00    -0.236 F 
HETATM   21  C   UNK N   1      22.545  15.367   6.252  0.00  0.00     0.181 C 
HETATM   22  O   UNK N   1      22.573  14.429   8.418  0.00  0.00    -0.281 OA
HETATM   23  O   UNK N   1      23.847  15.841   5.992  0.00  0.00    -0.353 OA
HETATM   24  C   UNK N   1      21.661  16.305   7.070  0.00  0.00     0.215 C 
HETATM   25  O   UNK N   1      20.539  15.555   7.498  0.00  0.00    -0.290 OA
HETATM   26  P   UNK N   1      20.882  14.496   8.905  0.00  0.00     0.478 P 
HETATM   27  O   UNK N   1      20.083  13.659   7.866  0.00  0.00    -0.227 OA
BRANCH  26  28
HETATM   28  O   UNK N   1      21.262  12.788   9.052  0.00  0.00    -0.288 OA
BRANCH  28  29
HETATM   29  C   UNK N   1      21.891  12.601  10.295  0.00  0.00     0.125 C 
HETATM   30  C   UNK N   1      20.858  12.245  11.339  0.00  0.00     0.040 C 
HETATM   31  C   UNK N   1      22.898  11.465  10.202  0.00  0.00     0.040 C 
ENDBRANCH  28  29
ENDBRANCH  26  28
ENDBRANCH  10  16
BRANCH   1  32
HETATM   32  O   UNK N   1      30.452  15.639   5.361  0.00  0.00    -0.334 OA
BRANCH  32  33
HETATM   33  C   UNK N   1      31.580  16.319   5.754  0.00  0.00     0.173 C 
HETATM   34  C   UNK N   1      31.961  17.329   4.693  0.00  0.00     0.034 C 
ENDBRANCH  32  33
ENDBRANCH   1  32
TORSDOF 5
ENDMDL
MODEL 7
REMARK VINA RESULT:      -6.5      3.533      7.886
REMARK  5 active torsions:
REMARK  status: ('A' for Active; 'I' for Inactive)
REMARK    1  A    between atoms: C_2  and  O_3 
REMARK    2  A    between atoms: O_3  and  C_4 
REMARK       I    between atoms: C_9  and  N_12 
REMARK    3  A    between atoms: C_17  and  N_13 
REMARK    4  A    between atoms: P_24  and  O_27 
REMARK    5  A    between atoms: O_27  and  C_28 
ROOT
HETATM    1  C   UNK N   1      35.654  13.390  14.398  0.00  0.00     0.188 A 
HETATM    2  C   UNK N   1      35.729  14.033  13.154  0.00  0.00     0.130 A 
HETATM    3  C   UNK N   1      35.196  13.456  12.061  0.00  0.00     0.157 A 
HETATM    4  N   UNK N   1      34.579  12.251  12.114  0.00  0.00    -0.174 N 
ATOM      5  HN  UNK N   1      34.193  11.829  11.270  1.00  0.00     0.186 HD
HETATM    6  C   UNK N   1      34.482  11.613  13.314  0.00  0.00     0.679 A 
HETATM    7  N   UNK N   1      35.020  12.179  14.442  0.00  0.00    -0.168 N 
ATOM      8  HN  UNK N   1      34.945  11.686  15.332  1.00  0.00     0.186 HD
HETATM    9  N   UNK N   1      33.832  10.365  13.392  0.00  0.00    -0.234 N 
HETATM   10  N   UNK N   1      35.415  14.235  10.983  0.00  0.00    -0.296 N 
HETATM   11  C   UNK N   1      36.100  15.304  11.465  0.00  0.00     0.188 A 
HETATM   12  N   UNK N   1      36.299  15.204  12.810  0.00  0.00    -0.346 N 
ATOM     13  HN  UNK N   1      36.777  15.869  13.420  1.00  0.00     0.167 HD
HETATM   14  H   UNK N   1      33.871   9.840  14.224  0.00  0.00     0.174 HD
HETATM   15  H   UNK N   1      33.339  10.019  12.613  0.00  0.00     0.174 HD
ENDROOT
BRANCH  10  16
HETATM   16  C   UNK N   1      35.101  14.011   9.560  0.00  0.00     0.273 C 
HETATM   17  C   UNK N   1      33.947  14.819   9.009  0.00  0.00     0.172 C 
HETATM   18  C   UNK N   1      34.158  14.639   7.535  0.00  0.00     0.208 C 
HETATM   19  C   UNK N   1      32.590  14.291   9.433  0.00  0.00     0.059 C 
HETATM   20  F   UNK N   1      34.103  16.161   9.339  0.00  0.00    -0.236 F 
HETATM   21  C   UNK N   1      35.530  14.000   7.459  0.00  0.00     0.181 C 
HETATM   22  O   UNK N   1      34.241  15.908   6.941  0.00  0.00    -0.281 OA
HETATM   23  O   UNK N   1      36.173  14.259   8.686  0.00  0.00    -0.353 OA
HETATM   24  C   UNK N   1      36.216  14.583   6.227  0.00  0.00     0.215 C 
HETATM   25  O   UNK N   1      35.291  14.506   5.157  0.00  0.00    -0.290 OA
HETATM   26  P   UNK N   1      34.048  15.799   5.193  0.00  0.00     0.478 P 
HETATM   27  O   UNK N   1      33.324  14.452   4.907  0.00  0.00    -0.227 OA
BRANCH  26  28
HETATM   28  O   UNK N   1      32.388  15.846   5.767  0.00  0.00    -0.288 OA
BRANCH  28  29
HETATM   29  C   UNK N   1      31.918  17.159   5.592  0.00  0.00     0.125 C 
HETATM   30  C   UNK N   1      32.311  17.660   4.221  0.00  0.00     0.040 C 
HETATM   31  C   UNK N   1      30.402  17.187   5.703  0.00  0.00     0.040 C 
ENDBRANCH  28  29
ENDBRANCH  26  28
ENDBRANCH  10  16
BRANCH   1  32
HETATM   32  O   UNK N   1      36.186  13.897  15.537  0.00  0.00    -0.334 OA
BRANCH  32  33
HETATM   33  C   UNK N   1      35.691  13.649  16.796  0.00  0.00     0.173 C 
HETATM   34  C   UNK N   1      35.992  14.823  17.702  0.00  0.00     0.034 C 
ENDBRANCH  32  33
ENDBRANCH   1  32
TORSDOF 5
ENDMDL
MODEL 8
REMARK VINA RESULT:      -6.5      3.454      8.493
REMARK  5 active torsions:
REMARK  status: ('A' for Active; 'I' for Inactive)
REMARK    1  A    between atoms: C_2  and  O_3 
REMARK    2  A    between atoms: O_3  and  C_4 
REMARK       I    between atoms: C_9  and  N_12 
REMARK    3  A    between atoms: C_17  and  N_13 
REMARK    4  A    between atoms: P_24  and  O_27 
REMARK    5  A    between atoms: O_27  and  C_28 
ROOT
HETATM    1  C   UNK N   1      35.216  12.035  13.955  0.00  0.00     0.188 A 
HETATM    2  C   UNK N   1      34.965  12.219  12.587  0.00  0.00     0.130 A 
HETATM    3  C   UNK N   1      35.393  13.334  11.966  0.00  0.00     0.157 A 
HETATM    4  N   UNK N   1      36.068  14.308  12.623  0.00  0.00    -0.174 N 
ATOM      5  HN  UNK N   1      36.372  15.149  12.133  1.00  0.00     0.186 HD
HETATM    6  C   UNK N   1      36.336  14.144  13.949  0.00  0.00     0.679 A 
HETATM    7  N   UNK N   1      35.908  13.019  14.605  0.00  0.00    -0.168 N 
ATOM      8  HN  UNK N   1      36.110  12.914  15.599  1.00  0.00     0.186 HD
HETATM    9  N   UNK N   1      37.049  15.139  14.646  0.00  0.00    -0.234 N 
HETATM   10  N   UNK N   1      35.012  13.309  10.673  0.00  0.00    -0.296 N 
HETATM   11  C   UNK N   1      34.338  12.139  10.536  0.00  0.00     0.188 A 
HETATM   12  N   UNK N   1      34.302  11.442  11.708  0.00  0.00    -0.346 N 
ATOM     13  HN  UNK N   1      33.869  10.535  11.880  1.00  0.00     0.167 HD
HETATM   14  H   UNK N   1      37.133  15.090  15.626  0.00  0.00     0.174 HD
HETATM   15  H   UNK N   1      37.464  15.883  14.153  0.00  0.00     0.174 HD
ENDROOT
BRANCH  10  16
HETATM   16  C   UNK N   1      35.167  14.319   9.609  0.00  0.00     0.273 C 
HETATM   17  C   UNK N   1      34.263  14.149   8.409  0.00  0.00     0.172 C 
HETATM   18  C   UNK N   1      34.409  15.492   7.757  0.00  0.00     0.208 C 
HETATM   19  C   UNK N   1      34.710  13.039   7.475  0.00  0.00     0.059 C 
HETATM   20  F   UNK N   1      32.946  13.975   8.822  0.00  0.00    -0.236 F 
HETATM   21  C   UNK N   1      35.139  16.306   8.806  0.00  0.00     0.181 C 
HETATM   22  O   UNK N   1      33.130  16.047   7.594  0.00  0.00    -0.281 OA
HETATM   23  O   UNK N   1      34.966  15.643  10.037  0.00  0.00    -0.353 OA
HETATM   24  C   UNK N   1      34.565  17.719   8.740  0.00  0.00     0.215 C 
HETATM   25  O   UNK N   1      34.542  18.098   7.376  0.00  0.00    -0.290 OA
HETATM   26  P   UNK N   1      33.168  17.395   6.461  0.00  0.00     0.478 P 
HETATM   27  O   UNK N   1      34.451  17.218   5.600  0.00  0.00    -0.227 OA
BRANCH  26  28
HETATM   28  O   UNK N   1      33.025  16.001   5.403  0.00  0.00    -0.288 OA
BRANCH  28  29
HETATM   29  C   UNK N   1      32.896  16.480   4.088  0.00  0.00     0.125 C 
HETATM   30  C   UNK N   1      32.987  15.325   3.116  0.00  0.00     0.040 C 
HETATM   31  C   UNK N   1      31.546  17.158   3.912  0.00  0.00     0.040 C 
ENDBRANCH  28  29
ENDBRANCH  26  28
ENDBRANCH  10  16
BRANCH   1  32
HETATM   32  O   UNK N   1      34.797  10.951  14.653  0.00  0.00    -0.334 OA
BRANCH  32  33
HETATM   33  C   UNK N   1      35.620  10.169  15.428  0.00  0.00     0.173 C 
HETATM   34  C   UNK N   1      34.991   9.961  16.790  0.00  0.00     0.034 C 
ENDBRANCH  32  33
ENDBRANCH   1  32
TORSDOF 5
ENDMDL
MODEL 9
REMARK VINA RESULT:      -6.4      3.993      9.193
REMARK  5 active torsions:
REMARK  status: ('A' for Active; 'I' for Inactive)
REMARK    1  A    between atoms: C_2  and  O_3 
REMARK    2  A    between atoms: O_3  and  C_4 
REMARK       I    between atoms: C_9  and  N_12 
REMARK    3  A    between atoms: C_17  and  N_13 
REMARK    4  A    between atoms: P_24  and  O_27 
REMARK    5  A    between atoms: O_27  and  C_28 
ROOT
HETATM    1  C   UNK N   1      35.256  13.770  10.417  0.00  0.00     0.188 A 
HETATM    2  C   UNK N   1      34.833  15.039   9.995  0.00  0.00     0.130 A 
HETATM    3  C   UNK N   1      33.629  15.190   9.412  0.00  0.00     0.157 A 
HETATM    4  N   UNK N   1      32.792  14.145   9.210  0.00  0.00    -0.174 N 
ATOM      5  HN  UNK N   1      31.889  14.283   8.756  1.00  0.00     0.186 HD
HETATM    6  C   UNK N   1      33.175  12.904   9.626  0.00  0.00     0.679 A 
HETATM    7  N   UNK N   1      34.398  12.724  10.219  0.00  0.00    -0.168 N 
ATOM      8  HN  UNK N   1      34.674  11.788  10.519  1.00  0.00     0.186 HD
HETATM    9  N   UNK N   1      32.313  11.807   9.437  0.00  0.00    -0.234 N 
HETATM   10  N   UNK N   1      33.453  16.480   9.061  0.00  0.00    -0.296 N 
HETATM   11  C   UNK N   1      34.594  17.102   9.453  0.00  0.00     0.188 A 
HETATM   12  N   UNK N   1      35.461  16.230  10.041  0.00  0.00    -0.346 N 
ATOM     13  HN  UNK N   1      36.383  16.434  10.429  1.00  0.00     0.167 HD
HETATM   14  H   UNK N   1      32.632  10.893   9.615  0.00  0.00     0.174 HD
HETATM   15  H   UNK N   1      31.389  11.954   9.129  0.00  0.00     0.174 HD
ENDROOT
BRANCH  10  16
HETATM   16  C   UNK N   1      32.348  17.132   8.333  0.00  0.00     0.273 C 
HETATM   17  C   UNK N   1      32.262  16.817   6.856  0.00  0.00     0.172 C 
HETATM   18  C   UNK N   1      30.877  17.304   6.546  0.00  0.00     0.208 C 
HETATM   19  C   UNK N   1      33.296  17.554   6.026  0.00  0.00     0.059 C 
HETATM   20  F   UNK N   1      32.326  15.442   6.655  0.00  0.00    -0.236 F 
HETATM   21  C   UNK N   1      30.289  17.563   7.919  0.00  0.00     0.181 C 
HETATM   22  O   UNK N   1      30.158  16.250   5.962  0.00  0.00    -0.281 OA
HETATM   23  O   UNK N   1      31.071  16.844   8.845  0.00  0.00    -0.353 OA
HETATM   24  C   UNK N   1      28.820  17.154   7.849  0.00  0.00     0.215 C 
HETATM   25  O   UNK N   1      28.279  17.736   6.677  0.00  0.00    -0.290 OA
HETATM   26  P   UNK N   1      28.697  16.845   5.178  0.00  0.00     0.478 P 
HETATM   27  O   UNK N   1      28.921  18.360   4.906  0.00  0.00    -0.227 OA
BRANCH  26  28
HETATM   28  O   UNK N   1      29.926  17.086   3.946  0.00  0.00    -0.288 OA
BRANCH  28  29
HETATM   29  C   UNK N   1      29.690  16.150   2.925  0.00  0.00     0.125 C 
HETATM   30  C   UNK N   1      30.655  14.995   3.062  0.00  0.00     0.040 C 
HETATM   31  C   UNK N   1      28.271  15.612   3.030  0.00  0.00     0.040 C 
ENDBRANCH  28  29
ENDBRANCH  26  28
ENDBRANCH  10  16
BRANCH   1  32
HETATM   32  O   UNK N   1      36.461  13.536  10.991  0.00  0.00    -0.334 OA
BRANCH  32  33
HETATM   33  C   UNK N   1      36.628  13.087  12.280  0.00  0.00     0.173 C 
HETATM   34  C   UNK N   1      36.105  14.124  13.251  0.00  0.00     0.034 C 
ENDBRANCH  32  33
ENDBRANCH   1  32
TORSDOF 5
ENDMDL
