MODEL 1
REMARK VINA RESULT:      -7.8      0.000      0.000
REMARK  1 active torsions:
REMARK  status: ('A' for Active; 'I' for Inactive)
REMARK    1  A    between atoms: C_16  and  C_15 
REMARK       I    between atoms: N_30  and  C_17 
REMARK       I    between atoms: N_31  and  C_18 
REMARK       I    between atoms: N_32  and  C_19 
ROOT
HETATM    1  C   UNK N   1      20.134  19.721   2.953  0.00  0.00     0.002 A 
HETATM    2  C   UNK N   1      20.348  18.625   3.820  0.00  0.00     0.002 A 
HETATM    3  C   UNK N   1      21.217  20.510   2.516  0.00  0.00     0.032 A 
HETATM    4  C   UNK N   1      21.647  18.307   4.251  0.00  0.00     0.033 A 
HETATM    5  C   UNK N   1      22.260  14.812   5.847  0.00  0.00     0.167 C 
HETATM    6  C   UNK N   1      24.184  13.730   7.128  0.00  0.00     0.167 C 
HETATM    7  C   UNK N   1      28.636  16.013   6.751  0.00  0.00     0.167 C 
HETATM    8  C   UNK N   1      28.676  18.325   5.864  0.00  0.00     0.167 C 
HETATM    9  C   UNK N   1      21.512  13.537   6.211  0.00  0.00     0.188 C 
HETATM   10  C   UNK N   1      23.162  12.607   7.341  0.00  0.00     0.188 C 
HETATM   11  C   UNK N   1      29.804  15.745   5.792  0.00  0.00     0.188 C 
HETATM   12  C   UNK N   1      29.830  17.865   4.976  0.00  0.00     0.188 C 
HETATM   13  C   UNK N   1      22.488  20.167   2.967  0.00  0.00     0.061 A 
HETATM   14  C   UNK N   1      22.697  19.108   3.795  0.00  0.00     0.085 A 
HETATM   15  C   UNK N   1      24.582  20.036   3.366  0.00  0.00     0.171 A 
HETATM   16  C   UNK N   1      24.463  15.922   5.959  0.00  0.00     0.709 A 
HETATM   17  C   UNK N   1      26.529  17.068   5.917  0.00  0.00     0.709 A 
HETATM   18  C   UNK N   1      24.635  18.000   4.869  0.00  0.00     0.720 A 
HETATM   19  N   UNK N   1      23.660  20.766   2.683  0.00  0.00    -0.339 N 
ATOM     20  HN  UNK N   1      23.819  21.581   2.091  1.00  0.00     0.167 HD
HETATM   21  N   UNK N   1      25.786  15.982   6.292  0.00  0.00    -0.021 N 
ATOM     22  HN  UNK N   1      26.217  15.222   6.818  1.00  0.00     0.203 HD
HETATM   23  N   UNK N   1      23.911  16.932   5.256  0.00  0.00    -0.021 N 
ATOM     24  HN  UNK N   1      22.922  16.886   5.012  1.00  0.00     0.203 HD
HETATM   25  N   UNK N   1      25.946  18.069   5.203  0.00  0.00    -0.021 N 
ATOM     26  HN  UNK N   1      26.500  18.876   4.918  1.00  0.00     0.203 HD
HETATM   27  N   UNK N   1      23.649  14.806   6.305  0.00  0.00    -0.213 N 
HETATM   28  N   UNK N   1      27.913  17.153   6.235  0.00  0.00    -0.213 N 
HETATM   29  N   UNK N   1      24.014  19.011   4.059  0.00  0.00    -0.127 N 
HETATM   30  O   UNK N   1      21.880  13.144   7.499  0.00  0.00    -0.388 OA
HETATM   31  O   UNK N   1      30.597  16.906   5.668  0.00  0.00    -0.388 OA
ENDROOT
BRANCH  15  32
HETATM   32  C   UNK N   1      26.054  20.320   3.309  0.00  0.00     0.421 C 
HETATM   33  F   UNK N   1      26.324  21.178   2.259  0.00  0.00    -0.206 F 
HETATM   34  F   UNK N   1      26.476  20.911   4.486  0.00  0.00    -0.206 F 
ENDBRANCH  15  32
TORSDOF 1
ENDMDL
MODEL 2
REMARK VINA RESULT:      -7.6     12.444     15.146
REMARK  1 active torsions:
REMARK  status: ('A' for Active; 'I' for Inactive)
REMARK    1  A    between atoms: C_16  and  C_15 
REMARK       I    between atoms: N_30  and  C_17 
REMARK       I    between atoms: N_31  and  C_18 
REMARK       I    between atoms: N_32  and  C_19 
ROOT
HETATM    1  C   UNK N   1      31.411  21.996  -2.563  0.00  0.00     0.002 A 
HETATM    2  C   UNK N   1      30.407  22.990  -2.546  0.00  0.00     0.002 A 
HETATM    3  C   UNK N   1      31.580  21.169  -3.692  0.00  0.00     0.032 A 
HETATM    4  C   UNK N   1      29.568  23.168  -3.659  0.00  0.00     0.033 A 
HETATM    5  C   UNK N   1      27.491  26.450  -3.901  0.00  0.00     0.167 C 
HETATM    6  C   UNK N   1      25.574  27.262  -5.377  0.00  0.00     0.167 C 
HETATM    7  C   UNK N   1      24.821  24.689  -9.618  0.00  0.00     0.167 C 
HETATM    8  C   UNK N   1      25.899  22.470  -9.828  0.00  0.00     0.167 C 
HETATM    9  C   UNK N   1      27.236  27.740  -3.134  0.00  0.00     0.188 C 
HETATM   10  C   UNK N   1      25.563  28.437  -4.391  0.00  0.00     0.188 C 
HETATM   11  C   UNK N   1      25.343  24.952 -11.037  0.00  0.00     0.188 C 
HETATM   12  C   UNK N   1      26.337  22.918 -11.221  0.00  0.00     0.188 C 
HETATM   13  C   UNK N   1      30.728  21.372  -4.773  0.00  0.00     0.061 A 
HETATM   14  C   UNK N   1      29.765  22.333  -4.761  0.00  0.00     0.085 A 
HETATM   15  C   UNK N   1      29.697  21.307  -6.643  0.00  0.00     0.171 A 
HETATM   16  C   UNK N   1      26.833  25.169  -5.907  0.00  0.00     0.709 A 
HETATM   17  C   UNK N   1      26.367  23.877  -7.830  0.00  0.00     0.709 A 
HETATM   18  C   UNK N   1      28.038  23.190  -6.316  0.00  0.00     0.720 A 
HETATM   19  N   UNK N   1      30.704  20.713  -5.947  0.00  0.00    -0.339 N 
ATOM     20  HN  UNK N   1      31.305  19.945  -6.245  1.00  0.00     0.167 HD
HETATM   21  N   UNK N   1      26.121  24.978  -7.057  0.00  0.00    -0.021 N 
ATOM     22  HN  UNK N   1      25.409  25.653  -7.337  1.00  0.00     0.203 HD
HETATM   23  N   UNK N   1      27.777  24.271  -5.557  0.00  0.00    -0.021 N 
ATOM     24  HN  UNK N   1      28.304  24.414  -4.696  1.00  0.00     0.203 HD
HETATM   25  N   UNK N   1      27.329  22.991  -7.454  0.00  0.00    -0.021 N 
ATOM     26  HN  UNK N   1      27.518  22.173  -8.032  1.00  0.00     0.203 HD
HETATM   27  N   UNK N   1      26.633  26.308  -5.077  0.00  0.00    -0.213 N 
HETATM   28  N   UNK N   1      25.653  23.658  -9.041  0.00  0.00    -0.213 N 
HETATM   29  N   UNK N   1      29.104  22.306  -5.933  0.00  0.00    -0.127 N 
HETATM   30  O   UNK N   1      25.862  27.987  -3.101  0.00  0.00    -0.388 OA
HETATM   31  O   UNK N   1      25.344  23.749 -11.777  0.00  0.00    -0.388 OA
ENDROOT
BRANCH  15  32
HETATM   32  C   UNK N   1      29.333  20.918  -8.045  0.00  0.00     0.421 C 
HETATM   33  F   UNK N   1      30.450  20.433  -8.701  0.00  0.00    -0.206 F 
HETATM   34  F   UNK N   1      28.362  19.933  -8.034  0.00  0.00    -0.206 F 
ENDBRANCH  15  32
TORSDOF 1
ENDMDL
MODEL 3
REMARK VINA RESULT:      -7.6     12.564     15.043
REMARK  1 active torsions:
REMARK  status: ('A' for Active; 'I' for Inactive)
REMARK    1  A    between atoms: C_16  and  C_15 
REMARK       I    between atoms: N_30  and  C_17 
REMARK       I    between atoms: N_31  and  C_18 
REMARK       I    between atoms: N_32  and  C_19 
ROOT
HETATM    1  C   UNK N   1      25.188  27.697  -4.263  0.00  0.00     0.002 A 
HETATM    2  C   UNK N   1      24.877  27.237  -5.563  0.00  0.00     0.002 A 
HETATM    3  C   UNK N   1      26.173  27.048  -3.491  0.00  0.00     0.032 A 
HETATM    4  C   UNK N   1      25.551  26.128  -6.101  0.00  0.00     0.033 A 
HETATM    5  C   UNK N   1      25.308  25.502  -9.934  0.00  0.00     0.167 C 
HETATM    6  C   UNK N   1      25.937  23.577 -11.487  0.00  0.00     0.167 C 
HETATM    7  C   UNK N   1      29.123  20.188  -9.609  0.00  0.00     0.167 C 
HETATM    8  C   UNK N   1      29.489  20.180  -7.160  0.00  0.00     0.167 C 
HETATM    9  C   UNK N   1      24.670  26.092 -11.185  0.00  0.00     0.188 C 
HETATM   10  C   UNK N   1      25.190  24.421 -12.527  0.00  0.00     0.188 C 
HETATM   11  C   UNK N   1      30.651  20.101  -9.724  0.00  0.00     0.188 C 
HETATM   12  C   UNK N   1      30.981  20.102  -7.476  0.00  0.00     0.188 C 
HETATM   13  C   UNK N   1      26.816  25.951  -4.057  0.00  0.00     0.061 A 
HETATM   14  C   UNK N   1      26.523  25.511  -5.310  0.00  0.00     0.085 A 
HETATM   15  C   UNK N   1      28.062  24.268  -4.482  0.00  0.00     0.171 A 
HETATM   16  C   UNK N   1      26.682  23.627  -9.102  0.00  0.00     0.709 A 
HETATM   17  C   UNK N   1      28.059  21.941  -8.182  0.00  0.00     0.709 A 
HETATM   18  C   UNK N   1      27.308  23.725  -6.836  0.00  0.00     0.720 A 
HETATM   19  N   UNK N   1      27.782  25.185  -3.516  0.00  0.00    -0.339 N 
ATOM     20  HN  UNK N   1      28.207  25.272  -2.592  1.00  0.00     0.167 HD
HETATM   21  N   UNK N   1      27.396  22.473  -9.254  0.00  0.00    -0.021 N 
ATOM     22  HN  UNK N   1      27.434  22.009 -10.162  1.00  0.00     0.203 HD
HETATM   23  N   UNK N   1      26.649  24.230  -7.896  0.00  0.00    -0.021 N 
ATOM     24  HN  UNK N   1      26.111  25.090  -7.784  1.00  0.00     0.203 HD
HETATM   25  N   UNK N   1      28.012  22.576  -6.978  0.00  0.00    -0.021 N 
ATOM     26  HN  UNK N   1      28.511  22.184  -6.180  1.00  0.00     0.203 HD
HETATM   27  N   UNK N   1      25.992  24.234 -10.188  0.00  0.00    -0.213 N 
HETATM   28  N   UNK N   1      28.824  20.749  -8.312  0.00  0.00    -0.213 N 
HETATM   29  N   UNK N   1      27.299  24.448  -5.595  0.00  0.00    -0.127 N 
HETATM   30  O   UNK N   1      24.097  25.063 -11.933  0.00  0.00    -0.388 OA
HETATM   31  O   UNK N   1      31.170  19.345  -8.649  0.00  0.00    -0.388 OA
ENDROOT
BRANCH  15  32
HETATM   32  C   UNK N   1      29.124  23.221  -4.331  0.00  0.00     0.421 C 
HETATM   33  F   UNK N   1      30.344  23.730  -4.736  0.00  0.00    -0.206 F 
HETATM   34  F   UNK N   1      29.225  22.825  -3.009  0.00  0.00    -0.206 F 
ENDBRANCH  15  32
TORSDOF 1
ENDMDL
MODEL 4
REMARK VINA RESULT:      -7.6      6.444      9.437
REMARK  1 active torsions:
REMARK  status: ('A' for Active; 'I' for Inactive)
REMARK    1  A    between atoms: C_16  and  C_15 
REMARK       I    between atoms: N_30  and  C_17 
REMARK       I    between atoms: N_31  and  C_18 
REMARK       I    between atoms: N_32  and  C_19 
ROOT
HETATM    1  C   UNK N   1      28.851  18.687   9.056  0.00  0.00     0.002 A 
HETATM    2  C   UNK N   1      30.182  18.335   9.379  0.00  0.00     0.002 A 
HETATM    3  C   UNK N   1      28.299  18.327   7.810  0.00  0.00     0.032 A 
HETATM    4  C   UNK N   1      30.967  17.617   8.462  0.00  0.00     0.033 A 
HETATM    5  C   UNK N   1      34.224  15.920   9.749  0.00  0.00     0.167 C 
HETATM    6  C   UNK N   1      36.237  14.814   8.638  0.00  0.00     0.167 C 
HETATM    7  C   UNK N   1      35.645  13.485   3.836  0.00  0.00     0.167 C 
HETATM    8  C   UNK N   1      33.722  14.440   2.603  0.00  0.00     0.167 C 
HETATM    9  C   UNK N   1      35.034  15.745  11.026  0.00  0.00     0.188 C 
HETATM   10  C   UNK N   1      36.788  14.810  10.069  0.00  0.00     0.188 C 
HETATM   11  C   UNK N   1      35.221  12.140   3.230  0.00  0.00     0.188 C 
HETATM   12  C   UNK N   1      33.454  13.020   2.108  0.00  0.00     0.188 C 
HETATM   13  C   UNK N   1      29.109  17.620   6.926  0.00  0.00     0.061 A 
HETATM   14  C   UNK N   1      30.387  17.275   7.238  0.00  0.00     0.085 A 
HETATM   15  C   UNK N   1      29.932  16.545   5.274  0.00  0.00     0.171 A 
HETATM   16  C   UNK N   1      34.189  15.408   7.334  0.00  0.00     0.709 A 
HETATM   17  C   UNK N   1      33.981  14.916   5.032  0.00  0.00     0.709 A 
HETATM   18  C   UNK N   1      32.244  16.034   6.167  0.00  0.00     0.720 A 
HETATM   19  N   UNK N   1      28.800  17.172   5.695  0.00  0.00    -0.339 N 
ATOM     20  HN  UNK N   1      27.918  17.278   5.193  1.00  0.00     0.167 HD
HETATM   21  N   UNK N   1      34.703  14.861   6.192  0.00  0.00    -0.021 N 
ATOM     22  HN  UNK N   1      35.621  14.415   6.205  1.00  0.00     0.203 HD
HETATM   23  N   UNK N   1      32.971  15.986   7.300  0.00  0.00    -0.021 N 
ATOM     24  HN  UNK N   1      32.592  16.397   8.153  1.00  0.00     0.203 HD
HETATM   25  N   UNK N   1      32.752  15.500   5.030  0.00  0.00    -0.021 N 
ATOM     26  HN  UNK N   1      32.209  15.536   4.167  1.00  0.00     0.203 HD
HETATM   27  N   UNK N   1      34.888  15.360   8.573  0.00  0.00    -0.213 N 
HETATM   28  N   UNK N   1      34.481  14.341   3.830  0.00  0.00    -0.213 N 
HETATM   29  N   UNK N   1      30.923  16.596   6.206  0.00  0.00    -0.127 N 
HETATM   30  O   UNK N   1      36.383  15.968  10.745  0.00  0.00    -0.388 OA
HETATM   31  O   UNK N   1      34.679  12.345   1.943  0.00  0.00    -0.388 OA
ENDROOT
BRANCH  15  32
HETATM   32  C   UNK N   1      30.036  15.847   3.950  0.00  0.00     0.421 C 
HETATM   33  F   UNK N   1      28.784  15.413   3.551  0.00  0.00    -0.206 F 
HETATM   34  F   UNK N   1      30.535  16.708   2.990  0.00  0.00    -0.206 F 
ENDBRANCH  15  32
TORSDOF 1
ENDMDL
MODEL 5
REMARK VINA RESULT:      -7.4      4.172      8.648
REMARK  1 active torsions:
REMARK  status: ('A' for Active; 'I' for Inactive)
REMARK    1  A    between atoms: C_16  and  C_15 
REMARK       I    between atoms: N_30  and  C_17 
REMARK       I    between atoms: N_31  and  C_18 
REMARK       I    between atoms: N_32  and  C_19 
ROOT
HETATM    1  C   UNK N   1      34.300  17.885   7.857  0.00  0.00     0.002 A 
HETATM    2  C   UNK N   1      34.062  17.151   6.672  0.00  0.00     0.002 A 
HETATM    3  C   UNK N   1      33.230  18.250   8.699  0.00  0.00     0.032 A 
HETATM    4  C   UNK N   1      32.755  16.772   6.325  0.00  0.00     0.033 A 
HETATM    5  C   UNK N   1      32.288  14.027   3.607  0.00  0.00     0.167 C 
HETATM    6  C   UNK N   1      30.304  13.137   2.270  0.00  0.00     0.167 C 
HETATM    7  C   UNK N   1      25.757  14.266   4.064  0.00  0.00     0.167 C 
HETATM    8  C   UNK N   1      25.600  16.059   5.765  0.00  0.00     0.167 C 
HETATM    9  C   UNK N   1      33.105  13.129   2.689  0.00  0.00     0.188 C 
HETATM   10  C   UNK N   1      31.399  12.373   1.513  0.00  0.00     0.188 C 
HETATM   11  C   UNK N   1      24.835  13.462   4.990  0.00  0.00     0.188 C 
HETATM   12  C   UNK N   1      24.701  15.107   6.551  0.00  0.00     0.188 C 
HETATM   13  C   UNK N   1      31.949  17.861   8.319  0.00  0.00     0.061 A 
HETATM   14  C   UNK N   1      31.719  17.149   7.183  0.00  0.00     0.085 A 
HETATM   15  C   UNK N   1      29.849  17.495   8.175  0.00  0.00     0.171 A 
HETATM   16  C   UNK N   1      29.984  14.674   4.214  0.00  0.00     0.709 A 
HETATM   17  C   UNK N   1      27.837  15.326   4.957  0.00  0.00     0.709 A 
HETATM   18  C   UNK N   1      29.766  16.157   6.028  0.00  0.00     0.720 A 
HETATM   19  N   UNK N   1      30.787  18.091   8.960  0.00  0.00    -0.339 N 
ATOM     20  HN  UNK N   1      30.644  18.596   9.834  1.00  0.00     0.167 HD
HETATM   21  N   UNK N   1      28.624  14.603   4.103  0.00  0.00    -0.021 N 
ATOM     22  HN  UNK N   1      28.198  14.014   3.387  1.00  0.00     0.203 HD
HETATM   23  N   UNK N   1      30.529  15.452   5.172  0.00  0.00    -0.021 N 
ATOM     24  HN  UNK N   1      31.545  15.506   5.250  1.00  0.00     0.203 HD
HETATM   25  N   UNK N   1      28.416  16.096   5.919  0.00  0.00    -0.021 N 
ATOM     26  HN  UNK N   1      27.831  16.631   6.560  1.00  0.00     0.203 HD
HETATM   27  N   UNK N   1      30.848  13.927   3.365  0.00  0.00    -0.213 N 
HETATM   28  N   UNK N   1      26.418  15.260   4.878  0.00  0.00    -0.213 N 
HETATM   29  N   UNK N   1      30.399  16.909   7.075  0.00  0.00    -0.127 N 
HETATM   30  O   UNK N   1      32.551  13.161   1.408  0.00  0.00    -0.388 OA
HETATM   31  O   UNK N   1      23.942  14.333   5.650  0.00  0.00    -0.388 OA
ENDROOT
BRANCH  15  32
HETATM   32  C   UNK N   1      28.392  17.461   8.526  0.00  0.00     0.421 C 
HETATM   33  F   UNK N   1      28.240  17.131   9.860  0.00  0.00    -0.206 F 
HETATM   34  F   UNK N   1      27.815  18.699   8.306  0.00  0.00    -0.206 F 
ENDBRANCH  15  32
TORSDOF 1
ENDMDL
MODEL 6
REMARK VINA RESULT:      -7.4      4.336      7.256
REMARK  1 active torsions:
REMARK  status: ('A' for Active; 'I' for Inactive)
REMARK    1  A    between atoms: C_16  and  C_15 
REMARK       I    between atoms: N_30  and  C_17 
REMARK       I    between atoms: N_31  and  C_18 
REMARK       I    between atoms: N_32  and  C_19 
ROOT
HETATM    1  C   UNK N   1      26.657  20.558   5.374  0.00  0.00     0.002 A 
HETATM    2  C   UNK N   1      28.003  20.138   5.473  0.00  0.00     0.002 A 
HETATM    3  C   UNK N   1      25.709  19.769   4.691  0.00  0.00     0.032 A 
HETATM    4  C   UNK N   1      28.410  18.924   4.893  0.00  0.00     0.033 A 
HETATM    5  C   UNK N   1      31.832  17.419   5.971  0.00  0.00     0.167 C 
HETATM    6  C   UNK N   1      33.317  15.528   5.115  0.00  0.00     0.167 C 
HETATM    7  C   UNK N   1      31.117  12.219   2.051  0.00  0.00     0.167 C 
HETATM    8  C   UNK N   1      28.938  12.842   1.054  0.00  0.00     0.167 C 
HETATM    9  C   UNK N   1      33.010  17.713   6.890  0.00  0.00     0.188 C 
HETATM   10  C   UNK N   1      34.308  16.096   6.139  0.00  0.00     0.188 C 
HETATM   11  C   UNK N   1      30.460  10.869   2.367  0.00  0.00     0.188 C 
HETATM   12  C   UNK N   1      28.460  11.449   1.458  0.00  0.00     0.188 C 
HETATM   13  C   UNK N   1      26.151  18.575   4.126  0.00  0.00     0.061 A 
HETATM   14  C   UNK N   1      27.444  18.166   4.226  0.00  0.00     0.085 A 
HETATM   15  C   UNK N   1      26.336  16.698   3.124  0.00  0.00     0.171 A 
HETATM   16  C   UNK N   1      30.981  15.834   4.280  0.00  0.00     0.709 A 
HETATM   17  C   UNK N   1      30.004  14.356   2.716  0.00  0.00     0.709 A 
HETATM   18  C   UNK N   1      28.789  16.212   3.514  0.00  0.00     0.720 A 
HETATM   19  N   UNK N   1      25.434  17.668   3.437  0.00  0.00    -0.339 N 
ATOM     20  HN  UNK N   1      24.442  17.700   3.204  1.00  0.00     0.167 HD
HETATM   21  N   UNK N   1      31.065  14.715   3.501  0.00  0.00    -0.021 N 
ATOM     22  HN  UNK N   1      31.916  14.151   3.503  1.00  0.00     0.203 HD
HETATM   23  N   UNK N   1      29.846  16.563   4.271  0.00  0.00    -0.021 N 
ATOM     24  HN  UNK N   1      29.787  17.400   4.850  1.00  0.00     0.203 HD
HETATM   25  N   UNK N   1      28.869  15.108   2.732  0.00  0.00    -0.021 N 
ATOM     26  HN  UNK N   1      28.075  14.838   2.153  1.00  0.00     0.203 HD
HETATM   27  N   UNK N   1      32.047  16.241   5.131  0.00  0.00    -0.213 N 
HETATM   28  N   UNK N   1      30.055  13.188   1.906  0.00  0.00    -0.213 N 
HETATM   29  N   UNK N   1      27.580  16.983   3.598  0.00  0.00    -0.127 N 
HETATM   30  O   UNK N   1      34.199  17.490   6.194  0.00  0.00    -0.388 OA
HETATM   31  O   UNK N   1      29.532  10.540   1.354  0.00  0.00    -0.388 OA
ENDROOT
BRANCH  15  32
HETATM   32  C   UNK N   1      25.967  15.448   2.383  0.00  0.00     0.421 C 
HETATM   33  F   UNK N   1      24.715  15.018   2.785  0.00  0.00    -0.206 F 
HETATM   34  F   UNK N   1      25.938  15.688   1.021  0.00  0.00    -0.206 F 
ENDBRANCH  15  32
TORSDOF 1
ENDMDL
MODEL 7
REMARK VINA RESULT:      -7.4      7.868     12.987
REMARK  1 active torsions:
REMARK  status: ('A' for Active; 'I' for Inactive)
REMARK    1  A    between atoms: C_16  and  C_15 
REMARK       I    between atoms: N_30  and  C_17 
REMARK       I    between atoms: N_31  and  C_18 
REMARK       I    between atoms: N_32  and  C_19 
ROOT
HETATM    1  C   UNK N   1      39.589  12.481   9.076  0.00  0.00     0.002 A 
HETATM    2  C   UNK N   1      39.083  12.668   7.770  0.00  0.00     0.002 A 
HETATM    3  C   UNK N   1      38.922  13.035  10.188  0.00  0.00     0.032 A 
HETATM    4  C   UNK N   1      37.906  13.406   7.565  0.00  0.00     0.033 A 
HETATM    5  C   UNK N   1      36.110  13.106   4.126  0.00  0.00     0.167 C 
HETATM    6  C   UNK N   1      34.221  14.368   2.966  0.00  0.00     0.167 C 
HETATM    7  C   UNK N   1      31.339  17.218   5.923  0.00  0.00     0.167 C 
HETATM    8  C   UNK N   1      32.176  17.740   8.194  0.00  0.00     0.167 C 
HETATM    9  C   UNK N   1      36.250  12.402   2.783  0.00  0.00     0.188 C 
HETATM   10  C   UNK N   1      34.634  13.506   1.766  0.00  0.00     0.188 C 
HETATM   11  C   UNK N   1      30.006  16.893   6.611  0.00  0.00     0.188 C 
HETATM   12  C   UNK N   1      30.782  17.365   8.693  0.00  0.00     0.188 C 
HETATM   13  C   UNK N   1      37.761  13.763   9.945  0.00  0.00     0.061 A 
HETATM   14  C   UNK N   1      37.270  13.938   8.689  0.00  0.00     0.085 A 
HETATM   15  C   UNK N   1      35.975  14.926  10.085  0.00  0.00     0.171 A 
HETATM   16  C   UNK N   1      34.738  14.727   5.384  0.00  0.00     0.709 A 
HETATM   17  C   UNK N   1      33.468  16.192   6.735  0.00  0.00     0.709 A 
HETATM   18  C   UNK N   1      35.312  15.040   7.645  0.00  0.00     0.720 A 
HETATM   19  N   UNK N   1      36.963  14.376  10.840  0.00  0.00    -0.339 N 
ATOM     20  HN  UNK N   1      37.075  14.416  11.853  1.00  0.00     0.167 HD
HETATM   21  N   UNK N   1      33.692  15.594   5.526  0.00  0.00    -0.021 N 
ATOM     22  HN  UNK N   1      33.081  15.794   4.733  1.00  0.00     0.203 HD
HETATM   23  N   UNK N   1      35.530  14.468   6.445  0.00  0.00    -0.021 N 
ATOM     24  HN  UNK N   1      36.313  13.824   6.336  1.00  0.00     0.203 HD
HETATM   25  N   UNK N   1      34.280  15.907   7.789  0.00  0.00    -0.021 N 
ATOM     26  HN  UNK N   1      34.111  16.347   8.693  1.00  0.00     0.203 HD
HETATM   27  N   UNK N   1      35.003  14.061   4.155  0.00  0.00    -0.213 N 
HETATM   28  N   UNK N   1      32.377  17.087   6.919  0.00  0.00    -0.213 N 
HETATM   29  N   UNK N   1      36.142  14.671   8.758  0.00  0.00    -0.127 N 
HETATM   30  O   UNK N   1      36.022  13.323   1.760  0.00  0.00    -0.388 OA
HETATM   31  O   UNK N   1      29.825  17.737   7.728  0.00  0.00    -0.388 OA
ENDROOT
BRANCH  15  32
HETATM   32  C   UNK N   1      34.821  15.681  10.674  0.00  0.00     0.421 C 
HETATM   33  F   UNK N   1      34.190  14.903  11.627  0.00  0.00    -0.206 F 
HETATM   34  F   UNK N   1      35.264  16.846  11.274  0.00  0.00    -0.206 F 
ENDBRANCH  15  32
TORSDOF 1
ENDMDL
MODEL 8
REMARK VINA RESULT:      -7.3      3.287      7.165
REMARK  1 active torsions:
REMARK  status: ('A' for Active; 'I' for Inactive)
REMARK    1  A    between atoms: C_16  and  C_15 
REMARK       I    between atoms: N_30  and  C_17 
REMARK       I    between atoms: N_31  and  C_18 
REMARK       I    between atoms: N_32  and  C_19 
ROOT
HETATM    1  C   UNK N   1      28.486  19.039   4.862  0.00  0.00     0.002 A 
HETATM    2  C   UNK N   1      27.159  19.468   4.632  0.00  0.00     0.002 A 
HETATM    3  C   UNK N   1      28.747  17.730   5.315  0.00  0.00     0.032 A 
HETATM    4  C   UNK N   1      26.084  18.589   4.850  0.00  0.00     0.033 A 
HETATM    5  C   UNK N   1      22.613  19.511   3.351  0.00  0.00     0.167 C 
HETATM    6  C   UNK N   1      20.237  18.623   3.633  0.00  0.00     0.167 C 
HETATM    7  C   UNK N   1      19.822  14.070   5.699  0.00  0.00     0.167 C 
HETATM    8  C   UNK N   1      21.804  13.144   6.860  0.00  0.00     0.167 C 
HETATM    9  C   UNK N   1      21.937  20.602   2.533  0.00  0.00     0.188 C 
HETATM   10  C   UNK N   1      19.879  19.854   2.792  0.00  0.00     0.188 C 
HETATM   11  C   UNK N   1      19.708  12.691   5.034  0.00  0.00     0.188 C 
HETATM   12  C   UNK N   1      21.532  11.850   6.095  0.00  0.00     0.188 C 
HETATM   13  C   UNK N   1      27.656  16.891   5.523  0.00  0.00     0.061 A 
HETATM   14  C   UNK N   1      26.379  17.299   5.296  0.00  0.00     0.085 A 
HETATM   15  C   UNK N   1      26.347  15.262   5.967  0.00  0.00     0.171 A 
HETATM   16  C   UNK N   1      22.209  17.392   4.553  0.00  0.00     0.709 A 
HETATM   17  C   UNK N   1      21.987  15.318   5.663  0.00  0.00     0.709 A 
HETATM   18  C   UNK N   1      24.110  16.314   5.425  0.00  0.00     0.720 A 
HETATM   19  N   UNK N   1      27.662  15.612   5.945  0.00  0.00    -0.339 N 
ATOM     20  HN  UNK N   1      28.468  15.038   6.192  1.00  0.00     0.167 HD
HETATM   21  N   UNK N   1      21.421  16.367   4.993  0.00  0.00    -0.021 N 
ATOM     22  HN  UNK N   1      20.415  16.385   4.824  1.00  0.00     0.203 HD
HETATM   23  N   UNK N   1      23.538  17.348   4.779  0.00  0.00    -0.021 N 
ATOM     24  HN  UNK N   1      24.124  18.117   4.452  1.00  0.00     0.203 HD
HETATM   25  N   UNK N   1      23.332  15.298   5.871  0.00  0.00    -0.021 N 
ATOM     26  HN  UNK N   1      23.757  14.514   6.365  1.00  0.00     0.203 HD
HETATM   27  N   UNK N   1      21.675  18.497   3.832  0.00  0.00    -0.213 N 
HETATM   28  N   UNK N   1      21.195  14.228   6.120  0.00  0.00    -0.213 N 
HETATM   29  N   UNK N   1      25.539  16.284   5.572  0.00  0.00    -0.127 N 
HETATM   30  O   UNK N   1      20.715  20.926   3.124  0.00  0.00    -0.388 OA
HETATM   31  O   UNK N   1      20.142  11.690   5.930  0.00  0.00    -0.388 OA
ENDROOT
BRANCH  15  32
HETATM   32  C   UNK N   1      25.873  13.889   6.341  0.00  0.00     0.421 C 
HETATM   33  F   UNK N   1      26.788  12.945   5.911  0.00  0.00    -0.206 F 
HETATM   34  F   UNK N   1      25.739  13.785   7.714  0.00  0.00    -0.206 F 
ENDBRANCH  15  32
TORSDOF 1
ENDMDL
MODEL 9
REMARK VINA RESULT:      -7.2      4.735      6.880
REMARK  1 active torsions:
REMARK  status: ('A' for Active; 'I' for Inactive)
REMARK    1  A    between atoms: C_16  and  C_15 
REMARK       I    between atoms: N_30  and  C_17 
REMARK       I    between atoms: N_31  and  C_18 
REMARK       I    between atoms: N_32  and  C_19 
ROOT
HETATM    1  C   UNK N   1      23.963  13.058   1.303  0.00  0.00     0.002 A 
HETATM    2  C   UNK N   1      24.197  14.398   1.686  0.00  0.00     0.002 A 
HETATM    3  C   UNK N   1      25.021  12.127   1.275  0.00  0.00     0.032 A 
HETATM    4  C   UNK N   1      25.489  14.815   2.049  0.00  0.00     0.033 A 
HETATM    5  C   UNK N   1      25.876  18.196   3.935  0.00  0.00     0.167 C 
HETATM    6  C   UNK N   1      27.846  19.695   4.558  0.00  0.00     0.167 C 
HETATM    7  C   UNK N   1      32.384  17.568   4.335  0.00  0.00     0.167 C 
HETATM    8  C   UNK N   1      32.595  15.423   3.117  0.00  0.00     0.167 C 
HETATM    9  C   UNK N   1      25.037  19.348   4.470  0.00  0.00     0.188 C 
HETATM   10  C   UNK N   1      26.734  20.659   4.989  0.00  0.00     0.188 C 
HETATM   11  C   UNK N   1      33.213  16.894   5.437  0.00  0.00     0.188 C 
HETATM   12  C   UNK N   1      33.396  14.926   4.319  0.00  0.00     0.188 C 
HETATM   13  C   UNK N   1      26.287  12.578   1.636  0.00  0.00     0.061 A 
HETATM   14  C   UNK N   1      26.513  13.866   2.012  0.00  0.00     0.085 A 
HETATM   15  C   UNK N   1      28.361  12.782   2.106  0.00  0.00     0.171 A 
HETATM   16  C   UNK N   1      28.193  17.387   3.665  0.00  0.00     0.709 A 
HETATM   17  C   UNK N   1      30.348  16.448   3.418  0.00  0.00     0.709 A 
HETATM   18  C   UNK N   1      28.439  15.220   2.781  0.00  0.00     0.720 A 
HETATM   19  N   UNK N   1      27.435  11.877   1.687  0.00  0.00    -0.339 N 
ATOM     20  HN  UNK N   1      27.577  10.892   1.464  1.00  0.00     0.167 HD
HETATM   21  N   UNK N   1      29.548  17.487   3.805  0.00  0.00    -0.021 N 
ATOM     22  HN  UNK N   1      29.961  18.334   4.197  1.00  0.00     0.203 HD
HETATM   23  N   UNK N   1      27.664  16.256   3.153  0.00  0.00    -0.021 N 
ATOM     24  HN  UNK N   1      26.652  16.185   3.045  1.00  0.00     0.203 HD
HETATM   25  N   UNK N   1      29.784  15.317   2.910  0.00  0.00    -0.021 N 
ATOM     26  HN  UNK N   1      30.378  14.538   2.627  1.00  0.00     0.203 HD
HETATM   27  N   UNK N   1      27.314  18.429   4.072  0.00  0.00    -0.213 N 
HETATM   28  N   UNK N   1      31.761  16.516   3.566  0.00  0.00    -0.213 N 
HETATM   29  N   UNK N   1      27.817  14.013   2.311  0.00  0.00    -0.127 N 
HETATM   30  O   UNK N   1      25.642  20.556   4.119  0.00  0.00    -0.388 OA
HETATM   31  O   UNK N   1      34.136  15.995   4.860  0.00  0.00    -0.388 OA
ENDROOT
BRANCH  15  32
HETATM   32  C   UNK N   1      29.798  12.428   2.349  0.00  0.00     0.421 C 
HETATM   33  F   UNK N   1      29.898  11.094   2.699  0.00  0.00    -0.206 F 
HETATM   34  F   UNK N   1      30.547  12.644   1.206  0.00  0.00    -0.206 F 
ENDBRANCH  15  32
TORSDOF 1
ENDMDL
