MODEL 1
REMARK VINA RESULT:      -6.1      0.000      0.000
REMARK  5 active torsions:
REMARK  status: ('A' for Active; 'I' for Inactive)
REMARK    1  A    between atoms: C_4  and  C_2 
REMARK    2  A    between atoms: O_17  and  C_2 
REMARK    3  A    between atoms: C_6  and  O_18 
REMARK    4  A    between atoms: C_8  and  N_16 
REMARK    5  A    between atoms: O_19  and  C_9 
ROOT
HETATM    1  C   UNK N   1      34.792  13.301  11.017  0.00  0.00     0.119 A 
HETATM    2  C   UNK N   1      35.366  12.591  12.067  0.00  0.00     0.065 A 
HETATM    3  C   UNK N   1      36.491  13.126  12.695  0.00  0.00     0.120 A 
HETATM    4  C   UNK N   1      36.441  14.982  11.227  0.00  0.00     0.227 A 
HETATM    5  I   UNK N   1      34.539  10.729  12.634  0.00  0.00    -0.039 I 
HETATM    6  N   UNK N   1      37.055  12.506  13.661  0.00  0.00    -0.384 N 
ATOM      7  HN  UNK N   1      37.870  12.916  14.118  1.00  0.00     0.157 HD
HETATM    8  N   UNK N   1      37.000  14.307  12.265  0.00  0.00    -0.307 N 
ATOM      9  HN  UNK N   1      37.819  14.698  12.732  1.00  0.00     0.171 HD
HETATM   10  N   UNK N   1      35.325  14.488  10.598  0.00  0.00    -0.292 N 
HETATM   11  H   UNK N   1      36.710  11.637  13.967  0.00  0.00     0.157 HD
ENDROOT
BRANCH  10  12
HETATM   12  C   UNK N   1      34.758  15.191   9.427  0.00  0.00     0.268 C 
HETATM   13  C   UNK N   1      33.299  14.843   9.108  0.00  0.00     0.250 C 
HETATM   14  C   UNK N   1      33.061  15.919   8.096  0.00  0.00     0.187 C 
HETATM   15  F   UNK N   1      32.503  15.063  10.227  0.00  0.00    -0.242 F 
HETATM   16  C   UNK N   1      33.709  17.105   8.810  0.00  0.00     0.179 C 
HETATM   17  O   UNK N   1      34.789  16.599   9.581  0.00  0.00    -0.353 OA
BRANCH  14  18
HETATM   18  O   UNK N   1      31.708  16.121   7.811  0.00  0.00    -0.390 OA
HETATM   19  H   UNK N   1      31.360  16.350   6.936  0.00  0.00     0.210 HD
ENDBRANCH  14  18
BRANCH  16  20
HETATM   20  C   UNK N   1      34.211  18.156   7.821  0.00  0.00     0.198 C 
BRANCH  20  21
HETATM   21  O   UNK N   1      35.051  19.074   8.452  0.00  0.00    -0.398 OA
HETATM   22  H   UNK N   1      35.818  19.440   7.983  0.00  0.00     0.209 HD
ENDBRANCH  20  21
ENDBRANCH  16  20
ENDBRANCH  10  12
BRANCH   4  23
HETATM   23  O   UNK N   1      36.997  16.141  10.825  0.00  0.00    -0.332 OA
HETATM   24  H   UNK N   1      37.079  16.864  11.414  0.00  0.00     0.221 HD
ENDBRANCH   4  23
TORSDOF 5
ENDMDL
MODEL 2
REMARK VINA RESULT:      -5.9      5.412      7.431
REMARK  5 active torsions:
REMARK  status: ('A' for Active; 'I' for Inactive)
REMARK    1  A    between atoms: C_4  and  C_2 
REMARK    2  A    between atoms: O_17  and  C_2 
REMARK    3  A    between atoms: C_6  and  O_18 
REMARK    4  A    between atoms: C_8  and  N_16 
REMARK    5  A    between atoms: O_19  and  C_9 
ROOT
HETATM    1  C   UNK N   1      30.032  17.344   6.261  0.00  0.00     0.119 A 
HETATM    2  C   UNK N   1      28.789  17.907   5.989  0.00  0.00     0.065 A 
HETATM    3  C   UNK N   1      28.144  18.617   7.001  0.00  0.00     0.120 A 
HETATM    4  C   UNK N   1      29.938  18.163   8.477  0.00  0.00     0.227 A 
HETATM    5  I   UNK N   1      27.921  17.629   4.080  0.00  0.00    -0.039 I 
HETATM    6  N   UNK N   1      26.998  19.147   6.798  0.00  0.00    -0.384 N 
ATOM      7  HN  UNK N   1      26.545  19.674   7.545  1.00  0.00     0.157 HD
HETATM    8  N   UNK N   1      28.732  18.732   8.218  0.00  0.00    -0.307 N 
ATOM      9  HN  UNK N   1      28.259  19.258   8.954  1.00  0.00     0.171 HD
HETATM   10  N   UNK N   1      30.603  17.469   7.497  0.00  0.00    -0.292 N 
HETATM   11  H   UNK N   1      26.550  19.051   5.927  0.00  0.00     0.157 HD
ENDROOT
BRANCH  10  12
HETATM   12  C   UNK N   1      31.885  16.795   7.800  0.00  0.00     0.268 C 
HETATM   13  C   UNK N   1      32.770  16.511   6.581  0.00  0.00     0.250 C 
HETATM   14  C   UNK N   1      34.003  16.109   7.328  0.00  0.00     0.187 C 
HETATM   15  F   UNK N   1      33.006  17.689   5.880  0.00  0.00    -0.242 F 
HETATM   16  C   UNK N   1      34.035  17.201   8.398  0.00  0.00     0.179 C 
HETATM   17  O   UNK N   1      32.690  17.551   8.689  0.00  0.00    -0.353 OA
BRANCH  14  18
HETATM   18  O   UNK N   1      35.150  16.086   6.531  0.00  0.00    -0.390 OA
HETATM   19  H   UNK N   1      35.281  15.494   5.775  0.00  0.00     0.210 HD
ENDBRANCH  14  18
BRANCH  16  20
HETATM   20  C   UNK N   1      34.746  16.731   9.665  0.00  0.00     0.198 C 
BRANCH  20  21
HETATM   21  O   UNK N   1      35.595  17.723  10.158  0.00  0.00    -0.398 OA
HETATM   22  H   UNK N   1      35.231  18.502  10.605  0.00  0.00     0.209 HD
ENDBRANCH  20  21
ENDBRANCH  16  20
ENDBRANCH  10  12
BRANCH   4  23
HETATM   23  O   UNK N   1      30.470  18.288   9.708  0.00  0.00    -0.332 OA
HETATM   24  H   UNK N   1      31.356  18.571   9.822  0.00  0.00     0.221 HD
ENDBRANCH   4  23
TORSDOF 5
ENDMDL
MODEL 3
REMARK VINA RESULT:      -5.8      1.964      2.709
REMARK  5 active torsions:
REMARK  status: ('A' for Active; 'I' for Inactive)
REMARK    1  A    between atoms: C_4  and  C_2 
REMARK    2  A    between atoms: O_17  and  C_2 
REMARK    3  A    between atoms: C_6  and  O_18 
REMARK    4  A    between atoms: C_8  and  N_16 
REMARK    5  A    between atoms: O_19  and  C_9 
ROOT
HETATM    1  C   UNK N   1      34.485  14.442   9.858  0.00  0.00     0.119 A 
HETATM    2  C   UNK N   1      35.320  13.678  10.668  0.00  0.00     0.065 A 
HETATM    3  C   UNK N   1      36.301  14.331  11.415  0.00  0.00     0.120 A 
HETATM    4  C   UNK N   1      35.612  16.411  10.519  0.00  0.00     0.227 A 
HETATM    5  I   UNK N   1      35.095  11.575  10.700  0.00  0.00    -0.039 I 
HETATM    6  N   UNK N   1      37.094  13.670  12.169  0.00  0.00    -0.384 N 
ATOM      7  HN  UNK N   1      37.798  14.163  12.719  1.00  0.00     0.157 HD
HETATM    8  N   UNK N   1      36.422  15.679  11.327  0.00  0.00    -0.307 N 
ATOM      9  HN  UNK N   1      37.137  16.153  11.881  1.00  0.00     0.171 HD
HETATM   10  N   UNK N   1      34.630  15.799   9.782  0.00  0.00    -0.292 N 
HETATM   11  H   UNK N   1      37.031  12.689  12.224  0.00  0.00     0.157 HD
ENDROOT
BRANCH  10  12
HETATM   12  C   UNK N   1      33.792  16.589   8.854  0.00  0.00     0.268 C 
HETATM   13  C   UNK N   1      34.516  17.093   7.600  0.00  0.00     0.250 C 
HETATM   14  C   UNK N   1      33.306  17.567   6.856  0.00  0.00     0.187 C 
HETATM   15  F   UNK N   1      35.096  16.025   6.924  0.00  0.00    -0.242 F 
HETATM   16  C   UNK N   1      32.363  16.389   7.104  0.00  0.00     0.179 C 
HETATM   17  O   UNK N   1      32.677  15.854   8.382  0.00  0.00    -0.353 OA
BRANCH  14  18
HETATM   18  O   UNK N   1      33.547  17.803   5.500  0.00  0.00    -0.390 OA
HETATM   19  H   UNK N   1      33.032  18.413   4.950  0.00  0.00     0.210 HD
ENDBRANCH  14  18
BRANCH  16  20
HETATM   20  C   UNK N   1      30.898  16.818   7.055  0.00  0.00     0.198 C 
BRANCH  20  21
HETATM   21  O   UNK N   1      30.581  17.369   5.812  0.00  0.00    -0.398 OA
HETATM   22  H   UNK N   1      31.237  17.890   5.325  0.00  0.00     0.209 HD
ENDBRANCH  20  21
ENDBRANCH  16  20
ENDBRANCH  10  12
BRANCH   4  23
HETATM   23  O   UNK N   1      35.788  17.745  10.451  0.00  0.00    -0.332 OA
HETATM   24  H   UNK N   1      35.133  18.297  10.074  0.00  0.00     0.221 HD
ENDBRANCH   4  23
TORSDOF 5
ENDMDL
MODEL 4
REMARK VINA RESULT:      -5.7     11.672     13.811
REMARK  5 active torsions:
REMARK  status: ('A' for Active; 'I' for Inactive)
REMARK    1  A    between atoms: C_4  and  C_2 
REMARK    2  A    between atoms: O_17  and  C_2 
REMARK    3  A    between atoms: C_6  and  O_18 
REMARK    4  A    between atoms: C_8  and  N_16 
REMARK    5  A    between atoms: O_19  and  C_9 
ROOT
HETATM    1  C   UNK N   1      25.288  18.323   4.603  0.00  0.00     0.119 A 
HETATM    2  C   UNK N   1      26.638  18.576   4.823  0.00  0.00     0.065 A 
HETATM    3  C   UNK N   1      27.229  19.654   4.164  0.00  0.00     0.120 A 
HETATM    4  C   UNK N   1      25.170  20.149   3.107  0.00  0.00     0.227 A 
HETATM    5  I   UNK N   1      27.737  17.300   6.103  0.00  0.00    -0.039 I 
HETATM    6  N   UNK N   1      28.469  19.921   4.332  0.00  0.00    -0.384 N 
ATOM      7  HN  UNK N   1      28.883  20.721   3.853  1.00  0.00     0.157 HD
HETATM    8  N   UNK N   1      26.483  20.417   3.327  0.00  0.00    -0.307 N 
ATOM      9  HN  UNK N   1      26.918  21.209   2.852  1.00  0.00     0.171 HD
HETATM   10  N   UNK N   1      24.557  19.103   3.750  0.00  0.00    -0.292 N 
HETATM   11  H   UNK N   1      29.025  19.362   4.919  0.00  0.00     0.157 HD
ENDROOT
BRANCH  10  12
HETATM   12  C   UNK N   1      23.145  18.773   3.460  0.00  0.00     0.268 C 
HETATM   13  C   UNK N   1      22.517  17.736   4.397  0.00  0.00     0.250 C 
HETATM   14  C   UNK N   1      21.099  17.904   3.949  0.00  0.00     0.187 C 
HETATM   15  F   UNK N   1      22.647  18.150   5.719  0.00  0.00    -0.242 F 
HETATM   16  C   UNK N   1      21.018  19.431   3.891  0.00  0.00     0.179 C 
HETATM   17  O   UNK N   1      22.305  19.912   3.531  0.00  0.00    -0.353 OA
BRANCH  14  18
HETATM   18  O   UNK N   1      20.170  17.337   4.826  0.00  0.00    -0.390 OA
HETATM   19  H   UNK N   1      20.011  16.386   4.916  0.00  0.00     0.210 HD
ENDBRANCH  14  18
BRANCH  16  20
HETATM   20  C   UNK N   1      19.974  19.903   2.881  0.00  0.00     0.198 C 
BRANCH  20  21
HETATM   21  O   UNK N   1      19.103  18.867   2.542  0.00  0.00    -0.398 OA
HETATM   22  H   UNK N   1      19.425  17.954   2.483  0.00  0.00     0.209 HD
ENDBRANCH  20  21
ENDBRANCH  16  20
ENDBRANCH  10  12
BRANCH   4  23
HETATM   23  O   UNK N   1      24.479  20.923   2.249  0.00  0.00    -0.332 OA
HETATM   24  H   UNK N   1      23.559  20.802   2.126  0.00  0.00     0.221 HD
ENDBRANCH   4  23
TORSDOF 5
ENDMDL
MODEL 5
REMARK VINA RESULT:      -5.7      3.939      6.339
REMARK  5 active torsions:
REMARK  status: ('A' for Active; 'I' for Inactive)
REMARK    1  A    between atoms: C_4  and  C_2 
REMARK    2  A    between atoms: O_17  and  C_2 
REMARK    3  A    between atoms: C_6  and  O_18 
REMARK    4  A    between atoms: C_8  and  N_16 
REMARK    5  A    between atoms: O_19  and  C_9 
ROOT
HETATM    1  C   UNK N   1      31.619  16.439   8.761  0.00  0.00     0.119 A 
HETATM    2  C   UNK N   1      30.561  17.025   8.073  0.00  0.00     0.065 A 
HETATM    3  C   UNK N   1      30.581  17.002   6.679  0.00  0.00     0.120 A 
HETATM    4  C   UNK N   1      32.660  15.870   6.717  0.00  0.00     0.227 A 
HETATM    5  I   UNK N   1      29.003  17.953   9.161  0.00  0.00    -0.039 I 
HETATM    6  N   UNK N   1      29.633  17.534   6.004  0.00  0.00    -0.384 N 
ATOM      7  HN  UNK N   1      29.656  17.498   4.985  1.00  0.00     0.157 HD
HETATM    8  N   UNK N   1      31.625  16.424   6.033  0.00  0.00    -0.307 N 
ATOM      9  HN  UNK N   1      31.632  16.404   5.012  1.00  0.00     0.171 HD
HETATM   10  N   UNK N   1      32.662  15.866   8.089  0.00  0.00    -0.292 N 
HETATM   11  H   UNK N   1      28.882  17.976   6.460  0.00  0.00     0.157 HD
ENDROOT
BRANCH  10  12
HETATM   12  C   UNK N   1      33.821  15.322   8.831  0.00  0.00     0.268 C 
HETATM   13  C   UNK N   1      34.942  16.329   9.109  0.00  0.00     0.250 C 
HETATM   14  C   UNK N   1      35.728  15.484  10.062  0.00  0.00     0.187 C 
HETATM   15  F   UNK N   1      34.430  17.438   9.775  0.00  0.00    -0.242 F 
HETATM   16  C   UNK N   1      34.595  14.932  10.927  0.00  0.00     0.179 C 
HETATM   17  O   UNK N   1      33.450  14.803  10.096  0.00  0.00    -0.353 OA
BRANCH  14  18
HETATM   18  O   UNK N   1      36.675  16.207  10.792  0.00  0.00    -0.390 OA
HETATM   19  H   UNK N   1      37.628  16.194  10.618  0.00  0.00     0.210 HD
ENDBRANCH  14  18
BRANCH  16  20
HETATM   20  C   UNK N   1      34.958  13.581  11.541  0.00  0.00     0.198 C 
BRANCH  20  21
HETATM   21  O   UNK N   1      34.464  13.476  12.842  0.00  0.00    -0.398 OA
HETATM   22  H   UNK N   1      34.392  12.609  13.270  0.00  0.00     0.209 HD
ENDBRANCH  20  21
ENDBRANCH  16  20
ENDBRANCH  10  12
BRANCH   4  23
HETATM   23  O   UNK N   1      33.683  15.328   6.029  0.00  0.00    -0.332 OA
HETATM   24  H   UNK N   1      34.219  14.663   6.411  0.00  0.00     0.221 HD
ENDBRANCH   4  23
TORSDOF 5
ENDMDL
MODEL 6
REMARK VINA RESULT:      -5.7      4.948      7.295
REMARK  5 active torsions:
REMARK  status: ('A' for Active; 'I' for Inactive)
REMARK    1  A    between atoms: C_4  and  C_2 
REMARK    2  A    between atoms: O_17  and  C_2 
REMARK    3  A    between atoms: C_6  and  O_18 
REMARK    4  A    between atoms: C_8  and  N_16 
REMARK    5  A    between atoms: O_19  and  C_9 
ROOT
HETATM    1  C   UNK N   1      30.893  17.037   6.613  0.00  0.00     0.119 A 
HETATM    2  C   UNK N   1      29.884  17.320   5.699  0.00  0.00     0.065 A 
HETATM    3  C   UNK N   1      30.168  17.206   4.338  0.00  0.00     0.120 A 
HETATM    4  C   UNK N   1      32.393  16.578   4.845  0.00  0.00     0.227 A 
HETATM    5  I   UNK N   1      27.991  17.946   6.405  0.00  0.00    -0.039 I 
HETATM    6  N   UNK N   1      29.272  17.461   3.461  0.00  0.00    -0.384 N 
ATOM      7  HN  UNK N   1      29.492  17.361   2.470  1.00  0.00     0.157 HD
HETATM    8  N   UNK N   1      31.411  16.835   3.942  0.00  0.00    -0.307 N 
ATOM      9  HN  UNK N   1      31.612  16.746   2.945  1.00  0.00     0.171 HD
HETATM   10  N   UNK N   1      32.141  16.670   6.191  0.00  0.00    -0.292 N 
HETATM   11  H   UNK N   1      28.373  17.754   3.735  0.00  0.00     0.157 HD
ENDROOT
BRANCH  10  12
HETATM   12  C   UNK N   1      33.228  16.453   7.170  0.00  0.00     0.268 C 
HETATM   13  C   UNK N   1      33.995  17.718   7.575  0.00  0.00     0.250 C 
HETATM   14  C   UNK N   1      34.761  17.122   8.714  0.00  0.00     0.187 C 
HETATM   15  F   UNK N   1      33.109  18.678   8.052  0.00  0.00    -0.242 F 
HETATM   16  C   UNK N   1      33.648  16.324   9.395  0.00  0.00     0.179 C 
HETATM   17  O   UNK N   1      32.754  15.890   8.380  0.00  0.00    -0.353 OA
BRANCH  14  18
HETATM   18  O   UNK N   1      35.342  18.079   9.550  0.00  0.00    -0.390 OA
HETATM   19  H   UNK N   1      36.293  18.150   9.724  0.00  0.00     0.210 HD
ENDBRANCH  14  18
BRANCH  16  20
HETATM   20  C   UNK N   1      34.201  15.125  10.162  0.00  0.00     0.198 C 
BRANCH  20  21
HETATM   21  O   UNK N   1      33.428  14.857  11.293  0.00  0.00    -0.398 OA
HETATM   22  H   UNK N   1      33.043  13.978  11.427  0.00  0.00     0.209 HD
ENDBRANCH  20  21
ENDBRANCH  16  20
ENDBRANCH  10  12
BRANCH   4  23
HETATM   23  O   UNK N   1      33.617  16.234   4.400  0.00  0.00    -0.332 OA
HETATM   24  H   UNK N   1      33.813  16.238   3.484  0.00  0.00     0.221 HD
ENDBRANCH   4  23
TORSDOF 5
ENDMDL
MODEL 7
REMARK VINA RESULT:      -5.6      4.014      6.207
REMARK  5 active torsions:
REMARK  status: ('A' for Active; 'I' for Inactive)
REMARK    1  A    between atoms: C_4  and  C_2 
REMARK    2  A    between atoms: O_17  and  C_2 
REMARK    3  A    between atoms: C_6  and  O_18 
REMARK    4  A    between atoms: C_8  and  N_16 
REMARK    5  A    between atoms: O_19  and  C_9 
ROOT
HETATM    1  C   UNK N   1      31.941  15.739   6.900  0.00  0.00     0.119 A 
HETATM    2  C   UNK N   1      31.413  15.964   5.633  0.00  0.00     0.065 A 
HETATM    3  C   UNK N   1      31.995  16.950   4.836  0.00  0.00     0.120 A 
HETATM    4  C   UNK N   1      33.540  17.445   6.560  0.00  0.00     0.227 A 
HETATM    5  I   UNK N   1      29.738  14.843   4.992  0.00  0.00    -0.039 I 
HETATM    6  N   UNK N   1      31.539  17.197   3.666  0.00  0.00    -0.384 N 
ATOM      7  HN  UNK N   1      31.984  17.912   3.091  1.00  0.00     0.157 HD
HETATM    8  N   UNK N   1      33.045  17.664   5.314  0.00  0.00    -0.307 N 
ATOM      9  HN  UNK N   1      33.472  18.380   4.725  1.00  0.00     0.171 HD
HETATM   10  N   UNK N   1      32.997  16.474   7.362  0.00  0.00    -0.292 N 
HETATM   11  H   UNK N   1      30.764  16.702   3.318  0.00  0.00     0.157 HD
ENDROOT
BRANCH  10  12
HETATM   12  C   UNK N   1      33.495  16.282   8.742  0.00  0.00     0.268 C 
HETATM   13  C   UNK N   1      32.989  15.016   9.442  0.00  0.00     0.250 C 
HETATM   14  C   UNK N   1      33.904  15.071  10.625  0.00  0.00     0.187 C 
HETATM   15  F   UNK N   1      33.283  13.896   8.670  0.00  0.00    -0.242 F 
HETATM   16  C   UNK N   1      35.221  15.412   9.928  0.00  0.00     0.179 C 
HETATM   17  O   UNK N   1      34.909  16.209   8.795  0.00  0.00    -0.353 OA
BRANCH  14  18
HETATM   18  O   UNK N   1      33.955  13.872  11.342  0.00  0.00    -0.390 OA
HETATM   19  H   UNK N   1      33.269  13.572  11.956  0.00  0.00     0.210 HD
ENDBRANCH  14  18
BRANCH  16  20
HETATM   20  C   UNK N   1      36.175  16.161  10.856  0.00  0.00     0.198 C 
BRANCH  20  21
HETATM   21  O   UNK N   1      36.513  15.379  11.961  0.00  0.00    -0.398 OA
HETATM   22  H   UNK N   1      35.827  15.076  12.576  0.00  0.00     0.209 HD
ENDBRANCH  20  21
ENDBRANCH  16  20
ENDBRANCH  10  12
BRANCH   4  23
HETATM   23  O   UNK N   1      34.570  18.196   6.995  0.00  0.00    -0.332 OA
HETATM   24  H   UNK N   1      34.726  18.312   7.911  0.00  0.00     0.221 HD
ENDBRANCH   4  23
TORSDOF 5
ENDMDL
MODEL 8
REMARK VINA RESULT:      -5.6     16.817     19.243
REMARK  5 active torsions:
REMARK  status: ('A' for Active; 'I' for Inactive)
REMARK    1  A    between atoms: C_4  and  C_2 
REMARK    2  A    between atoms: O_17  and  C_2 
REMARK    3  A    between atoms: C_6  and  O_18 
REMARK    4  A    between atoms: C_8  and  N_16 
REMARK    5  A    between atoms: O_19  and  C_9 
ROOT
HETATM    1  C   UNK N   1      27.927  22.731  -6.325  0.00  0.00     0.119 A 
HETATM    2  C   UNK N   1      26.843  22.945  -7.170  0.00  0.00     0.065 A 
HETATM    3  C   UNK N   1      26.380  24.251  -7.340  0.00  0.00     0.120 A 
HETATM    4  C   UNK N   1      28.032  25.043  -5.841  0.00  0.00     0.227 A 
HETATM    5  I   UNK N   1      25.925  21.294  -8.119  0.00  0.00    -0.039 I 
HETATM    6  N   UNK N   1      25.383  24.495  -8.103  0.00  0.00    -0.384 N 
ATOM      7  HN  UNK N   1      25.065  25.456  -8.227  1.00  0.00     0.157 HD
HETATM    8  N   UNK N   1      26.986  25.267  -6.677  0.00  0.00    -0.307 N 
ATOM      9  HN  UNK N   1      26.648  26.222  -6.810  1.00  0.00     0.171 HD
HETATM   10  N   UNK N   1      28.518  23.771  -5.663  0.00  0.00    -0.292 N 
HETATM   11  H   UNK N   1      24.921  23.763  -8.571  0.00  0.00     0.157 HD
ENDROOT
BRANCH  10  12
HETATM   12  C   UNK N   1      29.615  23.520  -4.703  0.00  0.00     0.268 C 
HETATM   13  C   UNK N   1      29.293  23.875  -3.247  0.00  0.00     0.250 C 
HETATM   14  C   UNK N   1      30.496  23.239  -2.623  0.00  0.00     0.187 C 
HETATM   15  F   UNK N   1      28.142  23.211  -2.838  0.00  0.00    -0.242 F 
HETATM   16  C   UNK N   1      30.520  21.912  -3.383  0.00  0.00     0.179 C 
HETATM   17  O   UNK N   1      30.010  22.159  -4.686  0.00  0.00    -0.353 OA
BRANCH  14  18
HETATM   18  O   UNK N   1      30.382  23.078  -1.239  0.00  0.00    -0.390 OA
HETATM   19  H   UNK N   1      30.212  23.799  -0.616  0.00  0.00     0.210 HD
ENDBRANCH  14  18
BRANCH  16  20
HETATM   20  C   UNK N   1      31.931  21.334  -3.468  0.00  0.00     0.198 C 
BRANCH  20  21
HETATM   21  O   UNK N   1      32.514  21.256  -2.203  0.00  0.00    -0.398 OA
HETATM   22  H   UNK N   1      33.240  21.851  -1.960  0.00  0.00     0.209 HD
ENDBRANCH  20  21
ENDBRANCH  16  20
ENDBRANCH  10  12
BRANCH   4  23
HETATM   23  O   UNK N   1      28.585  26.084  -5.190  0.00  0.00    -0.332 OA
HETATM   24  H   UNK N   1      28.048  26.727  -4.771  0.00  0.00     0.221 HD
ENDBRANCH   4  23
TORSDOF 5
ENDMDL
MODEL 9
REMARK VINA RESULT:      -5.6      4.102      6.506
REMARK  5 active torsions:
REMARK  status: ('A' for Active; 'I' for Inactive)
REMARK    1  A    between atoms: C_4  and  C_2 
REMARK    2  A    between atoms: O_17  and  C_2 
REMARK    3  A    between atoms: C_6  and  O_18 
REMARK    4  A    between atoms: C_8  and  N_16 
REMARK    5  A    between atoms: O_19  and  C_9 
ROOT
HETATM    1  C   UNK N   1      33.120  16.112   6.409  0.00  0.00     0.119 A 
HETATM    2  C   UNK N   1      32.089  16.571   5.597  0.00  0.00     0.065 A 
HETATM    3  C   UNK N   1      30.862  16.875   6.187  0.00  0.00     0.120 A 
HETATM    4  C   UNK N   1      31.713  16.242   8.304  0.00  0.00     0.227 A 
HETATM    5  I   UNK N   1      32.409  16.747   3.513  0.00  0.00    -0.039 I 
HETATM    6  N   UNK N   1      29.883  17.295   5.479  0.00  0.00    -0.384 N 
ATOM      7  HN  UNK N   1      28.997  17.525   5.928  1.00  0.00     0.157 HD
HETATM    8  N   UNK N   1      30.703  16.708   7.524  0.00  0.00    -0.307 N 
ATOM      9  HN  UNK N   1      29.805  16.938   7.953  1.00  0.00     0.171 HD
HETATM   10  N   UNK N   1      32.935  15.947   7.754  0.00  0.00    -0.292 N 
HETATM   11  H   UNK N   1      29.979  17.398   4.505  0.00  0.00     0.157 HD
ENDROOT
BRANCH  10  12
HETATM   12  C   UNK N   1      34.012  15.378   8.593  0.00  0.00     0.268 C 
HETATM   13  C   UNK N   1      35.072  16.385   9.054  0.00  0.00     0.250 C 
HETATM   14  C   UNK N   1      35.763  15.498  10.043  0.00  0.00     0.187 C 
HETATM   15  F   UNK N   1      34.465  17.446   9.715  0.00  0.00    -0.242 F 
HETATM   16  C   UNK N   1      34.550  14.882  10.740  0.00  0.00     0.179 C 
HETATM   17  O   UNK N   1      33.510  14.783   9.777  0.00  0.00    -0.353 OA
BRANCH  14  18
HETATM   18  O   UNK N   1      36.605  16.193  10.915  0.00  0.00    -0.390 OA
HETATM   19  H   UNK N   1      37.179  15.773  11.573  0.00  0.00     0.210 HD
ENDBRANCH  14  18
BRANCH  16  20
HETATM   20  C   UNK N   1      34.869  13.504  11.317  0.00  0.00     0.198 C 
BRANCH  20  21
HETATM   21  O   UNK N   1      34.457  13.413  12.648  0.00  0.00    -0.398 OA
HETATM   22  H   UNK N   1      34.684  12.635  13.179  0.00  0.00     0.209 HD
ENDBRANCH  20  21
ENDBRANCH  16  20
ENDBRANCH  10  12
BRANCH   4  23
HETATM   23  O   UNK N   1      31.497  16.074   9.622  0.00  0.00    -0.332 OA
HETATM   24  H   UNK N   1      31.440  16.811  10.197  0.00  0.00     0.221 HD
ENDBRANCH   4  23
TORSDOF 5
ENDMDL
