MODEL 1
REMARK VINA RESULT:      -4.7      0.000      0.000
REMARK  7 active torsions:
REMARK  status: ('A' for Active; 'I' for Inactive)
REMARK    1  A    between atoms: C_5  and  C_4 
REMARK    2  A    between atoms: C_6  and  C_4 
REMARK    3  A    between atoms: C_7  and  C_5 
REMARK    4  A    between atoms: N_10  and  C_6 
REMARK    5  A    between atoms: O_13  and  C_7 
REMARK    6  A    between atoms: C_9  and  C_8 
REMARK    7  A    between atoms: O_14  and  C_8 
ROOT
HETATM    1  C   UNK N   1      26.907  24.374  -3.791  0.00  0.00     0.118 C 
HETATM    2  N   UNK N   1      25.819  24.887  -4.280  0.00  0.00    -0.374 N 
ATOM      3  HN  UNK N   1      25.016  24.944  -3.653  1.00  0.00     0.161 HD
ENDROOT
BRANCH   2   4
HETATM    4  C   UNK N   1      25.635  25.384  -5.621  0.00  0.00     0.122 C 
BRANCH   4   5
HETATM    5  C   UNK N   1      25.003  26.764  -5.576  0.00  0.00     0.030 C 
BRANCH   5   6
HETATM    6  C   UNK N   1      26.054  27.819  -5.274  0.00  0.00     0.111 C 
BRANCH   6   7
HETATM    7  C   UNK N   1      25.798  28.441  -3.939  0.00  0.00     0.139 C 
HETATM    8  O   UNK N   1      25.476  27.742  -2.994  0.00  0.00    -0.650 OA
BRANCH   7   9
HETATM    9  O   UNK N   1      25.931  29.771  -3.776  0.00  0.00    -0.776 OA
HETATM   10  H   UNK N   1      25.784  30.349  -4.498  0.00  0.00     0.167 HD
ENDBRANCH   7   9
ENDBRANCH   6   7
ENDBRANCH   5   6
ENDBRANCH   4   5
ENDBRANCH   2   4
BRANCH   1  11
HETATM   11  C   UNK N   1      28.221  24.180  -4.559  0.00  0.00     0.013 C 
HETATM   12  C   UNK N   1      28.840  25.543  -4.799  0.00  0.00     0.023 C 
HETATM   13  C   UNK N   1      28.148  23.473  -5.901  0.00  0.00     0.023 C 
HETATM   14  C   UNK N   1      29.175  23.377  -3.695  0.00  0.00     0.023 C 
ENDBRANCH   1  11
BRANCH   1  15
HETATM   15  O   UNK N   1      26.889  23.988  -2.499  0.00  0.00    -0.349 OA
HETATM   16  H   UNK N   1      26.744  24.582  -1.788  0.00  0.00     0.219 HD
ENDBRANCH   1  15
TORSDOF 7
ENDMDL
MODEL 2
REMARK VINA RESULT:      -4.6     14.835     16.255
REMARK  7 active torsions:
REMARK  status: ('A' for Active; 'I' for Inactive)
REMARK    1  A    between atoms: C_5  and  C_4 
REMARK    2  A    between atoms: C_6  and  C_4 
REMARK    3  A    between atoms: C_7  and  C_5 
REMARK    4  A    between atoms: N_10  and  C_6 
REMARK    5  A    between atoms: O_13  and  C_7 
REMARK    6  A    between atoms: C_9  and  C_8 
REMARK    7  A    between atoms: O_14  and  C_8 
ROOT
HETATM    1  C   UNK N   1      29.895  17.944   9.236  0.00  0.00     0.118 C 
HETATM    2  N   UNK N   1      30.941  17.181   9.321  0.00  0.00    -0.374 N 
ATOM      3  HN  UNK N   1      31.534  17.304  10.142  1.00  0.00     0.161 HD
ENDROOT
BRANCH   2   4
HETATM    4  C   UNK N   1      31.347  16.177   8.369  0.00  0.00     0.122 C 
BRANCH   4   5
HETATM    5  C   UNK N   1      32.757  16.465   7.886  0.00  0.00     0.030 C 
BRANCH   5   6
HETATM    6  C   UNK N   1      33.368  17.605   8.684  0.00  0.00     0.111 C 
BRANCH   6   7
HETATM    7  C   UNK N   1      34.427  18.291   7.884  0.00  0.00     0.139 C 
HETATM    8  O   UNK N   1      34.515  18.083   6.685  0.00  0.00    -0.650 OA
BRANCH   7   9
HETATM    9  O   UNK N   1      35.280  19.146   8.480  0.00  0.00    -0.776 OA
HETATM   10  H   UNK N   1      35.035  20.041   8.606  0.00  0.00     0.167 HD
ENDBRANCH   7   9
ENDBRANCH   6   7
ENDBRANCH   5   6
ENDBRANCH   4   5
ENDBRANCH   2   4
BRANCH   1  11
HETATM   11  C   UNK N   1      28.881  17.938   8.084  0.00  0.00     0.013 C 
HETATM   12  C   UNK N   1      27.818  16.900   8.388  0.00  0.00     0.023 C 
HETATM   13  C   UNK N   1      29.411  17.649   6.690  0.00  0.00     0.023 C 
HETATM   14  C   UNK N   1      28.207  19.296   8.022  0.00  0.00     0.023 C 
ENDBRANCH   1  11
BRANCH   1  15
HETATM   15  O   UNK N   1      29.669  18.809  10.247  0.00  0.00    -0.349 OA
HETATM   16  H   UNK N   1      29.014  19.478  10.212  0.00  0.00     0.219 HD
ENDBRANCH   1  15
TORSDOF 7
ENDMDL
MODEL 3
REMARK VINA RESULT:      -4.4     20.673     23.016
REMARK  7 active torsions:
REMARK  status: ('A' for Active; 'I' for Inactive)
REMARK    1  A    between atoms: C_5  and  C_4 
REMARK    2  A    between atoms: C_6  and  C_4 
REMARK    3  A    between atoms: C_7  and  C_5 
REMARK    4  A    between atoms: N_10  and  C_6 
REMARK    5  A    between atoms: O_13  and  C_7 
REMARK    6  A    between atoms: C_9  and  C_8 
REMARK    7  A    between atoms: O_14  and  C_8 
ROOT
HETATM    1  C   UNK N   1      36.627  13.970  14.285  0.00  0.00     0.118 C 
HETATM    2  N   UNK N   1      36.737  14.046  12.994  0.00  0.00    -0.374 N 
ATOM      3  HN  UNK N   1      37.205  14.872  12.620  1.00  0.00     0.161 HD
ENDROOT
BRANCH   2   4
HETATM    4  C   UNK N   1      36.263  13.077  12.037  0.00  0.00     0.122 C 
BRANCH   4   5
HETATM    5  C   UNK N   1      35.666  13.788  10.837  0.00  0.00     0.030 C 
BRANCH   5   6
HETATM    6  C   UNK N   1      34.801  14.954  11.287  0.00  0.00     0.111 C 
BRANCH   6   7
HETATM    7  C   UNK N   1      35.335  16.239  10.740  0.00  0.00     0.139 C 
HETATM    8  O   UNK N   1      36.533  16.463  10.774  0.00  0.00    -0.650 OA
BRANCH   7   9
HETATM    9  O   UNK N   1      34.497  17.145  10.202  0.00  0.00    -0.776 OA
HETATM   10  H   UNK N   1      33.631  17.244  10.545  0.00  0.00     0.167 HD
ENDBRANCH   7   9
ENDBRANCH   6   7
ENDBRANCH   5   6
ENDBRANCH   4   5
ENDBRANCH   2   4
BRANCH   1  11
HETATM   11  C   UNK N   1      35.950  12.829  15.055  0.00  0.00     0.013 C 
HETATM   12  C   UNK N   1      36.919  11.666  15.138  0.00  0.00     0.023 C 
HETATM   13  C   UNK N   1      34.643  12.290  14.497  0.00  0.00     0.023 C 
HETATM   14  C   UNK N   1      35.660  13.300  16.467  0.00  0.00     0.023 C 
ENDBRANCH   1  11
BRANCH   1  15
HETATM   15  O   UNK N   1      37.162  14.971  15.016  0.00  0.00    -0.349 OA
HETATM   16  H   UNK N   1      36.666  15.481  15.626  0.00  0.00     0.219 HD
ENDBRANCH   1  15
TORSDOF 7
ENDMDL
MODEL 4
REMARK VINA RESULT:      -4.4     17.036     19.726
REMARK  7 active torsions:
REMARK  status: ('A' for Active; 'I' for Inactive)
REMARK    1  A    between atoms: C_5  and  C_4 
REMARK    2  A    between atoms: C_6  and  C_4 
REMARK    3  A    between atoms: C_7  and  C_5 
REMARK    4  A    between atoms: N_10  and  C_6 
REMARK    5  A    between atoms: O_13  and  C_7 
REMARK    6  A    between atoms: C_9  and  C_8 
REMARK    7  A    between atoms: O_14  and  C_8 
ROOT
HETATM    1  C   UNK N   1      34.726  17.810   8.730  0.00  0.00     0.118 C 
HETATM    2  N   UNK N   1      35.114  17.489   9.927  0.00  0.00    -0.374 N 
ATOM      3  HN  UNK N   1      35.582  18.216  10.469  1.00  0.00     0.161 HD
ENDROOT
BRANCH   2   4
HETATM    4  C   UNK N   1      34.948  16.207  10.564  0.00  0.00     0.122 C 
BRANCH   4   5
HETATM    5  C   UNK N   1      36.307  15.577  10.816  0.00  0.00     0.030 C 
BRANCH   5   6
HETATM    6  C   UNK N   1      36.145  14.170  11.366  0.00  0.00     0.111 C 
BRANCH   6   7
HETATM    7  C   UNK N   1      35.894  14.214  12.839  0.00  0.00     0.139 C 
HETATM    8  O   UNK N   1      34.903  13.675  13.303  0.00  0.00    -0.650 OA
BRANCH   7   9
HETATM    9  O   UNK N   1      36.763  14.838  13.656  0.00  0.00    -0.776 OA
HETATM   10  H   UNK N   1      37.636  15.013  13.366  0.00  0.00     0.167 HD
ENDBRANCH   7   9
ENDBRANCH   6   7
ENDBRANCH   5   6
ENDBRANCH   4   5
ENDBRANCH   2   4
BRANCH   1  11
HETATM   11  C   UNK N   1      34.020  16.872   7.743  0.00  0.00     0.013 C 
HETATM   12  C   UNK N   1      32.682  16.473   8.335  0.00  0.00     0.023 C 
HETATM   13  C   UNK N   1      34.743  15.593   7.356  0.00  0.00     0.023 C 
HETATM   14  C   UNK N   1      33.756  17.630   6.456  0.00  0.00     0.023 C 
ENDBRANCH   1  11
BRANCH   1  15
HETATM   15  O   UNK N   1      34.950  19.076   8.321  0.00  0.00    -0.349 OA
HETATM   16  H   UNK N   1      34.541  19.450   7.564  0.00  0.00     0.219 HD
ENDBRANCH   1  15
TORSDOF 7
ENDMDL
MODEL 5
REMARK VINA RESULT:      -4.4     21.227     23.567
REMARK  7 active torsions:
REMARK  status: ('A' for Active; 'I' for Inactive)
REMARK    1  A    between atoms: C_5  and  C_4 
REMARK    2  A    between atoms: C_6  and  C_4 
REMARK    3  A    between atoms: C_7  and  C_5 
REMARK    4  A    between atoms: N_10  and  C_6 
REMARK    5  A    between atoms: O_13  and  C_7 
REMARK    6  A    between atoms: C_9  and  C_8 
REMARK    7  A    between atoms: O_14  and  C_8 
ROOT
HETATM    1  C   UNK N   1      36.671  13.791  14.982  0.00  0.00     0.118 C 
HETATM    2  N   UNK N   1      36.684  13.823  13.684  0.00  0.00    -0.374 N 
ATOM      3  HN  UNK N   1      37.337  14.475  13.247  1.00  0.00     0.161 HD
ENDROOT
BRANCH   2   4
HETATM    4  C   UNK N   1      35.869  13.027  12.800  0.00  0.00     0.122 C 
BRANCH   4   5
HETATM    5  C   UNK N   1      35.680  13.754  11.481  0.00  0.00     0.030 C 
BRANCH   5   6
HETATM    6  C   UNK N   1      35.170  15.165  11.722  0.00  0.00     0.111 C 
BRANCH   6   7
HETATM    7  C   UNK N   1      35.981  16.150  10.942  0.00  0.00     0.139 C 
HETATM    8  O   UNK N   1      35.465  17.180  10.542  0.00  0.00    -0.650 OA
BRANCH   7   9
HETATM    9  O   UNK N   1      37.281  15.907  10.688  0.00  0.00    -0.776 OA
HETATM   10  H   UNK N   1      37.757  16.467  10.108  0.00  0.00     0.167 HD
ENDBRANCH   7   9
ENDBRANCH   6   7
ENDBRANCH   5   6
ENDBRANCH   4   5
ENDBRANCH   2   4
BRANCH   1  11
HETATM   11  C   UNK N   1      35.762  12.902  15.839  0.00  0.00     0.013 C 
HETATM   12  C   UNK N   1      34.435  12.740  15.122  0.00  0.00     0.023 C 
HETATM   13  C   UNK N   1      35.457  13.370  17.252  0.00  0.00     0.023 C 
HETATM   14  C   UNK N   1      36.399  11.530  15.962  0.00  0.00     0.023 C 
ENDBRANCH   1  11
BRANCH   1  15
HETATM   15  O   UNK N   1      37.532  14.598  15.635  0.00  0.00    -0.349 OA
HETATM   16  H   UNK N   1      37.596  15.519  15.472  0.00  0.00     0.219 HD
ENDBRANCH   1  15
TORSDOF 7
ENDMDL
MODEL 6
REMARK VINA RESULT:      -4.4     16.080     17.958
REMARK  7 active torsions:
REMARK  status: ('A' for Active; 'I' for Inactive)
REMARK    1  A    between atoms: C_5  and  C_4 
REMARK    2  A    between atoms: C_6  and  C_4 
REMARK    3  A    between atoms: C_7  and  C_5 
REMARK    4  A    between atoms: N_10  and  C_6 
REMARK    5  A    between atoms: O_13  and  C_7 
REMARK    6  A    between atoms: C_9  and  C_8 
REMARK    7  A    between atoms: O_14  and  C_8 
ROOT
HETATM    1  C   UNK N   1      33.291  14.890   9.914  0.00  0.00     0.118 C 
HETATM    2  N   UNK N   1      32.412  15.676   9.371  0.00  0.00    -0.374 N 
ATOM      3  HN  UNK N   1      31.880  16.276  10.003  1.00  0.00     0.161 HD
ENDROOT
BRANCH   2   4
HETATM    4  C   UNK N   1      32.115  15.785   7.965  0.00  0.00     0.122 C 
BRANCH   4   5
HETATM    5  C   UNK N   1      32.147  17.243   7.544  0.00  0.00     0.030 C 
BRANCH   5   6
HETATM    6  C   UNK N   1      33.016  18.050   8.493  0.00  0.00     0.111 C 
BRANCH   6   7
HETATM    7  C   UNK N   1      34.332  18.362   7.855  0.00  0.00     0.139 C 
HETATM    8  O   UNK N   1      34.594  17.915   6.751  0.00  0.00    -0.650 OA
BRANCH   7   9
HETATM    9  O   UNK N   1      35.225  19.143   8.492  0.00  0.00    -0.776 OA
HETATM   10  H   UNK N   1      36.137  18.931   8.464  0.00  0.00     0.167 HD
ENDBRANCH   7   9
ENDBRANCH   6   7
ENDBRANCH   5   6
ENDBRANCH   4   5
ENDBRANCH   2   4
BRANCH   1  11
HETATM   11  C   UNK N   1      34.185  13.899   9.157  0.00  0.00     0.013 C 
HETATM   12  C   UNK N   1      33.299  12.993   8.325  0.00  0.00     0.023 C 
HETATM   13  C   UNK N   1      35.095  13.007   9.984  0.00  0.00     0.023 C 
HETATM   14  C   UNK N   1      35.080  14.677   8.210  0.00  0.00     0.023 C 
ENDBRANCH   1  11
BRANCH   1  15
HETATM   15  O   UNK N   1      33.442  14.952  11.253  0.00  0.00    -0.349 OA
HETATM   16  H   UNK N   1      33.484  15.760  11.727  0.00  0.00     0.219 HD
ENDBRANCH   1  15
TORSDOF 7
ENDMDL
MODEL 7
REMARK VINA RESULT:      -4.3      3.193      5.259
REMARK  7 active torsions:
REMARK  status: ('A' for Active; 'I' for Inactive)
REMARK    1  A    between atoms: C_5  and  C_4 
REMARK    2  A    between atoms: C_6  and  C_4 
REMARK    3  A    between atoms: C_7  and  C_5 
REMARK    4  A    between atoms: N_10  and  C_6 
REMARK    5  A    between atoms: O_13  and  C_7 
REMARK    6  A    between atoms: C_9  and  C_8 
REMARK    7  A    between atoms: O_14  and  C_8 
ROOT
HETATM    1  C   UNK N   1      26.380  26.034  -4.120  0.00  0.00     0.118 C 
HETATM    2  N   UNK N   1      26.749  24.857  -4.523  0.00  0.00    -0.374 N 
ATOM      3  HN  UNK N   1      26.974  24.173  -3.799  1.00  0.00     0.161 HD
ENDROOT
BRANCH   2   4
HETATM    4  C   UNK N   1      26.872  24.420  -5.891  0.00  0.00     0.122 C 
BRANCH   4   5
HETATM    5  C   UNK N   1      25.839  23.346  -6.183  0.00  0.00     0.030 C 
BRANCH   5   6
HETATM    6  C   UNK N   1      25.695  23.143  -7.682  0.00  0.00     0.111 C 
BRANCH   6   7
HETATM    7  C   UNK N   1      24.871  21.928  -7.966  0.00  0.00     0.139 C 
HETATM    8  O   UNK N   1      25.415  20.849  -8.129  0.00  0.00    -0.650 OA
BRANCH   7   9
HETATM    9  O   UNK N   1      23.529  22.021  -8.033  0.00  0.00    -0.776 OA
HETATM   10  H   UNK N   1      23.025  21.297  -8.347  0.00  0.00     0.167 HD
ENDBRANCH   7   9
ENDBRANCH   6   7
ENDBRANCH   5   6
ENDBRANCH   4   5
ENDBRANCH   2   4
BRANCH   1  11
HETATM   11  C   UNK N   1      26.013  27.211  -5.034  0.00  0.00     0.013 C 
HETATM   12  C   UNK N   1      24.685  26.904  -5.699  0.00  0.00     0.023 C 
HETATM   13  C   UNK N   1      26.996  27.575  -6.133  0.00  0.00     0.023 C 
HETATM   14  C   UNK N   1      25.834  28.452  -4.181  0.00  0.00     0.023 C 
ENDBRANCH   1  11
BRANCH   1  15
HETATM   15  O   UNK N   1      26.301  26.243  -2.790  0.00  0.00    -0.349 OA
HETATM   16  H   UNK N   1      26.565  25.606  -2.155  0.00  0.00     0.219 HD
ENDBRANCH   1  15
TORSDOF 7
ENDMDL
MODEL 8
REMARK VINA RESULT:      -4.3     15.642     17.285
REMARK  7 active torsions:
REMARK  status: ('A' for Active; 'I' for Inactive)
REMARK    1  A    between atoms: C_5  and  C_4 
REMARK    2  A    between atoms: C_6  and  C_4 
REMARK    3  A    between atoms: C_7  and  C_5 
REMARK    4  A    between atoms: N_10  and  C_6 
REMARK    5  A    between atoms: O_13  and  C_7 
REMARK    6  A    between atoms: C_9  and  C_8 
REMARK    7  A    between atoms: O_14  and  C_8 
ROOT
HETATM    1  C   UNK N   1      33.100  15.793   9.778  0.00  0.00     0.118 C 
HETATM    2  N   UNK N   1      31.971  16.031   9.184  0.00  0.00    -0.374 N 
ATOM      3  HN  UNK N   1      31.137  15.614   9.599  1.00  0.00     0.161 HD
ENDROOT
BRANCH   2   4
HETATM    4  C   UNK N   1      31.780  16.826   7.996  0.00  0.00     0.122 C 
BRANCH   4   5
HETATM    5  C   UNK N   1      30.300  16.915   7.669  0.00  0.00     0.030 C 
BRANCH   5   6
HETATM    6  C   UNK N   1      29.683  18.135   8.333  0.00  0.00     0.111 C 
BRANCH   6   7
HETATM    7  C   UNK N   1      28.727  17.716   9.403  0.00  0.00     0.139 C 
HETATM    8  O   UNK N   1      29.088  16.942  10.273  0.00  0.00    -0.650 OA
BRANCH   7   9
HETATM    9  O   UNK N   1      27.470  18.200   9.414  0.00  0.00    -0.776 OA
HETATM   10  H   UNK N   1      26.897  18.033   8.692  0.00  0.00     0.167 HD
ENDBRANCH   7   9
ENDBRANCH   6   7
ENDBRANCH   5   6
ENDBRANCH   4   5
ENDBRANCH   2   4
BRANCH   1  11
HETATM   11  C   UNK N   1      34.471  16.305   9.318  0.00  0.00     0.013 C 
HETATM   12  C   UNK N   1      35.391  16.359  10.523  0.00  0.00     0.023 C 
HETATM   13  C   UNK N   1      34.520  17.668   8.650  0.00  0.00     0.023 C 
HETATM   14  C   UNK N   1      35.054  15.313   8.329  0.00  0.00     0.023 C 
ENDBRANCH   1  11
BRANCH   1  15
HETATM   15  O   UNK N   1      33.069  15.044  10.900  0.00  0.00    -0.349 OA
HETATM   16  H   UNK N   1      33.491  14.210  10.970  0.00  0.00     0.219 HD
ENDBRANCH   1  15
TORSDOF 7
ENDMDL
MODEL 9
REMARK VINA RESULT:      -4.3     18.300     20.571
REMARK  7 active torsions:
REMARK  status: ('A' for Active; 'I' for Inactive)
REMARK    1  A    between atoms: C_5  and  C_4 
REMARK    2  A    between atoms: C_6  and  C_4 
REMARK    3  A    between atoms: C_7  and  C_5 
REMARK    4  A    between atoms: N_10  and  C_6 
REMARK    5  A    between atoms: O_13  and  C_7 
REMARK    6  A    between atoms: C_9  and  C_8 
REMARK    7  A    between atoms: O_14  and  C_8 
ROOT
HETATM    1  C   UNK N   1      36.160  14.671  12.717  0.00  0.00     0.118 C 
HETATM    2  N   UNK N   1      35.483  15.571  12.071  0.00  0.00    -0.374 N 
ATOM      3  HN  UNK N   1      35.427  16.497  12.497  1.00  0.00     0.161 HD
ENDROOT
BRANCH   2   4
HETATM    4  C   UNK N   1      34.803  15.390  10.813  0.00  0.00     0.122 C 
BRANCH   4   5
HETATM    5  C   UNK N   1      35.306  16.409   9.806  0.00  0.00     0.030 C 
BRANCH   5   6
HETATM    6  C   UNK N   1      34.143  17.191   9.217  0.00  0.00     0.111 C 
BRANCH   6   7
HETATM    7  C   UNK N   1      34.634  18.157   8.188  0.00  0.00     0.139 C 
HETATM    8  O   UNK N   1      35.246  19.154   8.533  0.00  0.00    -0.650 OA
BRANCH   7   9
HETATM    9  O   UNK N   1      34.411  17.926   6.880  0.00  0.00    -0.776 OA
HETATM   10  H   UNK N   1      34.345  18.644   6.282  0.00  0.00     0.167 HD
ENDBRANCH   7   9
ENDBRANCH   6   7
ENDBRANCH   5   6
ENDBRANCH   4   5
ENDBRANCH   2   4
BRANCH   1  11
HETATM   11  C   UNK N   1      36.358  13.217  12.269  0.00  0.00     0.013 C 
HETATM   12  C   UNK N   1      37.363  13.199  11.134  0.00  0.00     0.023 C 
HETATM   13  C   UNK N   1      35.130  12.457  11.799  0.00  0.00     0.023 C 
HETATM   14  C   UNK N   1      36.943  12.427  13.425  0.00  0.00     0.023 C 
ENDBRANCH   1  11
BRANCH   1  15
HETATM   15  O   UNK N   1      36.749  15.043  13.872  0.00  0.00    -0.349 OA
HETATM   16  H   UNK N   1      36.784  15.932  14.167  0.00  0.00     0.219 HD
ENDBRANCH   1  15
TORSDOF 7
ENDMDL
