MODEL 1
REMARK VINA RESULT:      -7.4      0.000      0.000
REMARK  9 active torsions:
REMARK  status: ('A' for Active; 'I' for Inactive)
REMARK    1  A    between atoms: C_6  and  C_5 
REMARK    2  A    between atoms: N_18  and  C_5 
REMARK    3  A    between atoms: N_23  and  C_6 
REMARK    4  A    between atoms: C_13  and  C_8 
REMARK    5  A    between atoms: N_18  and  C_8 
REMARK    6  A    between atoms: C_13  and  C_10 
REMARK    7  A    between atoms: O_24  and  C_11 
REMARK    8  A    between atoms: O_25  and  C_12 
REMARK    9  A    between atoms: O_26  and  C_13 
ROOT
HETATM    1  C   UNK N   1      21.664  16.427   6.897  0.00  0.00     0.134 C 
ENDROOT
BRANCH   1   2
HETATM    2  C   UNK N   1      20.269  16.747   6.355  0.00  0.00     0.149 C 
BRANCH   2   3
HETATM    3  N   UNK N   1      20.159  16.587   4.913  0.00  0.00    -0.334 N 
HETATM    4  C   UNK N   1      19.701  15.464   4.308  0.00  0.00     0.185 A 
HETATM    5  N   UNK N   1      19.637  15.618   2.959  0.00  0.00    -0.336 N 
HETATM    6  C   UNK N   1      20.061  16.877   2.746  0.00  0.00     0.145 A 
ATOM      7  HN  UNK N   1      19.335  14.934   2.265  1.00  0.00     0.168 HD
HETATM    8  C   UNK N   1      20.381  17.469   3.919  0.00  0.00     0.149 A 
HETATM    9  N   UNK N   1      20.152  17.515   1.554  0.00  0.00    -0.287 N 
HETATM   10  C   UNK N   1      20.831  18.788   3.935  0.00  0.00     0.282 A 
HETATM   11  N   UNK N   1      20.947  19.456   2.730  0.00  0.00    -0.269 N 
HETATM   12  O   UNK N   1      21.112  19.345   4.979  0.00  0.00    -0.265 OA
HETATM   13  C   UNK N   1      21.424  20.837   2.709  0.00  0.00     0.164 C 
HETATM   14  C   UNK N   1      20.603  18.824   1.539  0.00  0.00     0.332 A 
HETATM   15  O   UNK N   1      20.695  19.426   0.481  0.00  0.00    -0.246 OA
HETATM   16  C   UNK N   1      19.771  16.834   0.323  0.00  0.00     0.163 C 
ENDBRANCH   2   3
ENDBRANCH   1   2
BRANCH   1  17
HETATM   17  N   UNK N   1      21.718  15.183   7.674  0.00  0.00    -0.417 N 
HETATM   18  H   UNK N   1      21.318  15.078   8.607  0.00  0.00     0.153 HD
BRANCH  17  19
HETATM   19  C   UNK N   1      22.414  14.106   6.959  0.00  0.00     0.150 C 
BRANCH  19  20
HETATM   20  C   UNK N   1      22.127  12.744   7.577  0.00  0.00     0.168 C 
BRANCH  20  21
HETATM   21  C   UNK N   1      22.538  12.620   9.023  0.00  0.00    -0.025 A 
HETATM   22  C   UNK N   1      21.574  12.300   9.987  0.00  0.00     0.013 A 
HETATM   23  C   UNK N   1      21.936  12.151  11.328  0.00  0.00     0.040 A 
HETATM   24  C   UNK N   1      23.269  12.303  11.715  0.00  0.00     0.098 A 
HETATM   25  C   UNK N   1      24.246  12.604  10.757  0.00  0.00     0.099 A 
HETATM   26  C   UNK N   1      23.879  12.759   9.417  0.00  0.00     0.049 A 
BRANCH  24  27
HETATM   27  O   UNK N   1      23.607  12.155  13.007  0.00  0.00    -0.358 OA
HETATM   28  H   UNK N   1      24.332  12.626  13.367  0.00  0.00     0.217 HD
ENDBRANCH  24  27
BRANCH  25  29
HETATM   29  O   UNK N   1      25.534  12.742  11.119  0.00  0.00    -0.358 OA
HETATM   30  H   UNK N   1      26.218  12.784  10.480  0.00  0.00     0.217 HD
ENDBRANCH  25  29
ENDBRANCH  20  21
BRANCH  20  31
HETATM   31  O   UNK N   1      20.784  12.411   7.391  0.00  0.00    -0.389 OA
HETATM   32  H   UNK N   1      20.195  11.685   7.648  0.00  0.00     0.210 HD
ENDBRANCH  20  31
ENDBRANCH  19  20
ENDBRANCH  17  19
ENDBRANCH   1  17
TORSDOF 9
ENDMDL
MODEL 2
REMARK VINA RESULT:      -7.4     12.664     15.212
REMARK  9 active torsions:
REMARK  status: ('A' for Active; 'I' for Inactive)
REMARK    1  A    between atoms: C_6  and  C_5 
REMARK    2  A    between atoms: N_18  and  C_5 
REMARK    3  A    between atoms: N_23  and  C_6 
REMARK    4  A    between atoms: C_13  and  C_8 
REMARK    5  A    between atoms: N_18  and  C_8 
REMARK    6  A    between atoms: C_13  and  C_10 
REMARK    7  A    between atoms: O_24  and  C_11 
REMARK    8  A    between atoms: O_25  and  C_12 
REMARK    9  A    between atoms: O_26  and  C_13 
ROOT
HETATM    1  C   UNK N   1      36.578  13.279  11.585  0.00  0.00     0.134 C 
ENDROOT
BRANCH   1   2
HETATM    2  C   UNK N   1      37.059  14.377  10.635  0.00  0.00     0.149 C 
BRANCH   2   3
HETATM    3  N   UNK N   1      36.005  15.296  10.232  0.00  0.00    -0.334 N 
HETATM    4  C   UNK N   1      35.677  16.420  10.914  0.00  0.00     0.185 A 
HETATM    5  N   UNK N   1      34.708  17.125  10.273  0.00  0.00    -0.336 N 
HETATM    6  C   UNK N   1      34.449  16.406   9.166  0.00  0.00     0.145 A 
ATOM      7  HN  UNK N   1      34.274  18.001  10.566  1.00  0.00     0.168 HD
HETATM    8  C   UNK N   1      35.225  15.299   9.133  0.00  0.00     0.149 A 
HETATM    9  N   UNK N   1      33.568  16.714   8.183  0.00  0.00    -0.287 N 
HETATM   10  C   UNK N   1      35.134  14.415   8.060  0.00  0.00     0.282 A 
HETATM   11  N   UNK N   1      34.231  14.698   7.051  0.00  0.00    -0.269 N 
HETATM   12  O   UNK N   1      35.831  13.420   8.003  0.00  0.00    -0.265 OA
HETATM   13  C   UNK N   1      34.102  13.788   5.916  0.00  0.00     0.164 C 
HETATM   14  C   UNK N   1      33.451  15.849   7.109  0.00  0.00     0.332 A 
HETATM   15  O   UNK N   1      32.666  16.099   6.207  0.00  0.00    -0.246 OA
HETATM   16  C   UNK N   1      32.774  17.934   8.260  0.00  0.00     0.163 C 
ENDBRANCH   2   3
ENDBRANCH   1   2
BRANCH   1  17
HETATM   17  N   UNK N   1      37.083  13.428  12.955  0.00  0.00    -0.417 N 
HETATM   18  H   UNK N   1      38.058  13.285  13.219  0.00  0.00     0.153 HD
BRANCH  17  19
HETATM   19  C   UNK N   1      36.027  13.803  13.902  0.00  0.00     0.150 C 
BRANCH  19  20
HETATM   20  C   UNK N   1      35.422  12.582  14.583  0.00  0.00     0.168 C 
BRANCH  20  21
HETATM   21  C   UNK N   1      35.339  12.688  16.086  0.00  0.00    -0.025 A 
HETATM   22  C   UNK N   1      35.340  11.520  16.858  0.00  0.00     0.013 A 
HETATM   23  C   UNK N   1      35.293  11.594  18.252  0.00  0.00     0.040 A 
HETATM   24  C   UNK N   1      35.264  12.837  18.888  0.00  0.00     0.098 A 
HETATM   25  C   UNK N   1      35.282  14.013  18.126  0.00  0.00     0.099 A 
HETATM   26  C   UNK N   1      35.322  13.935  16.731  0.00  0.00     0.049 A 
BRANCH  24  27
HETATM   27  O   UNK N   1      35.222  12.897  20.230  0.00  0.00    -0.358 OA
HETATM   28  H   UNK N   1      35.160  13.722  20.668  0.00  0.00     0.217 HD
ENDBRANCH  24  27
BRANCH  25  29
HETATM   29  O   UNK N   1      35.265  15.215  18.729  0.00  0.00    -0.358 OA
HETATM   30  H   UNK N   1      35.678  15.961  18.342  0.00  0.00     0.217 HD
ENDBRANCH  25  29
ENDBRANCH  20  21
BRANCH  20  31
HETATM   31  O   UNK N   1      34.180  12.289  14.016  0.00  0.00    -0.389 OA
HETATM   32  H   UNK N   1      33.598  11.516  13.954  0.00  0.00     0.210 HD
ENDBRANCH  20  31
ENDBRANCH  19  20
ENDBRANCH  17  19
ENDBRANCH   1  17
TORSDOF 9
ENDMDL
MODEL 3
REMARK VINA RESULT:      -7.3      1.698      2.159
REMARK  9 active torsions:
REMARK  status: ('A' for Active; 'I' for Inactive)
REMARK    1  A    between atoms: C_6  and  C_5 
REMARK    2  A    between atoms: N_18  and  C_5 
REMARK    3  A    between atoms: N_23  and  C_6 
REMARK    4  A    between atoms: C_13  and  C_8 
REMARK    5  A    between atoms: N_18  and  C_8 
REMARK    6  A    between atoms: C_13  and  C_10 
REMARK    7  A    between atoms: O_24  and  C_11 
REMARK    8  A    between atoms: O_25  and  C_12 
REMARK    9  A    between atoms: O_26  and  C_13 
ROOT
HETATM    1  C   UNK N   1      19.983  15.973   6.623  0.00  0.00     0.134 C 
ENDROOT
BRANCH   1   2
HETATM    2  C   UNK N   1      21.078  16.002   5.554  0.00  0.00     0.149 C 
BRANCH   2   3
HETATM    3  N   UNK N   1      20.892  17.052   4.565  0.00  0.00    -0.334 N 
HETATM    4  C   UNK N   1      19.722  17.293   3.925  0.00  0.00     0.185 A 
HETATM    5  N   UNK N   1      19.815  18.377   3.111  0.00  0.00    -0.336 N 
HETATM    6  C   UNK N   1      21.080  18.807   3.271  0.00  0.00     0.145 A 
ATOM      7  HN  UNK N   1      19.090  18.774   2.513  1.00  0.00     0.168 HD
HETATM    8  C   UNK N   1      21.739  18.012   4.144  0.00  0.00     0.149 A 
HETATM    9  N   UNK N   1      21.652  19.886   2.684  0.00  0.00    -0.287 N 
HETATM   10  C   UNK N   1      23.065  18.286   4.472  0.00  0.00     0.282 A 
HETATM   11  N   UNK N   1      23.678  19.373   3.876  0.00  0.00    -0.269 N 
HETATM   12  O   UNK N   1      23.673  17.593   5.265  0.00  0.00    -0.265 OA
HETATM   13  C   UNK N   1      25.071  19.682   4.189  0.00  0.00     0.164 C 
HETATM   14  C   UNK N   1      22.973  20.177   2.986  0.00  0.00     0.332 A 
HETATM   15  O   UNK N   1      23.516  21.143   2.475  0.00  0.00    -0.246 OA
HETATM   16  C   UNK N   1      20.886  20.721   1.768  0.00  0.00     0.163 C 
ENDBRANCH   2   3
ENDBRANCH   1   2
BRANCH   1  17
HETATM   17  N   UNK N   1      20.200  14.951   7.654  0.00  0.00    -0.417 N 
HETATM   18  H   UNK N   1      19.445  14.469   8.143  0.00  0.00     0.153 HD
BRANCH  17  19
HETATM   19  C   UNK N   1      21.625  14.702   7.904  0.00  0.00     0.150 C 
BRANCH  19  20
HETATM   20  C   UNK N   1      21.911  13.218   8.092  0.00  0.00     0.168 C 
BRANCH  20  21
HETATM   21  C   UNK N   1      22.238  12.824   9.511  0.00  0.00    -0.025 A 
HETATM   22  C   UNK N   1      21.197  12.528  10.400  0.00  0.00     0.013 A 
HETATM   23  C   UNK N   1      21.477  12.134  11.710  0.00  0.00     0.040 A 
HETATM   24  C   UNK N   1      22.800  12.012  12.139  0.00  0.00     0.098 A 
HETATM   25  C   UNK N   1      23.850  12.286  11.253  0.00  0.00     0.099 A 
HETATM   26  C   UNK N   1      23.567  12.688   9.945  0.00  0.00     0.049 A 
BRANCH  24  27
HETATM   27  O   UNK N   1      23.058  11.628  13.401  0.00  0.00    -0.358 OA
HETATM   28  H   UNK N   1      22.510  11.000  13.829  0.00  0.00     0.217 HD
ENDBRANCH  24  27
BRANCH  25  29
HETATM   29  O   UNK N   1      25.128  12.162  11.654  0.00  0.00    -0.358 OA
HETATM   30  H   UNK N   1      25.385  12.358  12.533  0.00  0.00     0.217 HD
ENDBRANCH  25  29
ENDBRANCH  20  21
BRANCH  20  31
HETATM   31  O   UNK N   1      20.857  12.461   7.575  0.00  0.00    -0.389 OA
HETATM   32  H   UNK N   1      20.406  12.370   6.722  0.00  0.00     0.210 HD
ENDBRANCH  20  31
ENDBRANCH  19  20
ENDBRANCH  17  19
ENDBRANCH   1  17
TORSDOF 9
ENDMDL
MODEL 4
REMARK VINA RESULT:      -7.0      7.109      8.846
REMARK  9 active torsions:
REMARK  status: ('A' for Active; 'I' for Inactive)
REMARK    1  A    between atoms: C_6  and  C_5 
REMARK    2  A    between atoms: N_18  and  C_5 
REMARK    3  A    between atoms: N_23  and  C_6 
REMARK    4  A    between atoms: C_13  and  C_8 
REMARK    5  A    between atoms: N_18  and  C_8 
REMARK    6  A    between atoms: C_13  and  C_10 
REMARK    7  A    between atoms: O_24  and  C_11 
REMARK    8  A    between atoms: O_25  and  C_12 
REMARK    9  A    between atoms: O_26  and  C_13 
ROOT
HETATM    1  C   UNK N   1      27.415  15.899   6.658  0.00  0.00     0.134 C 
ENDROOT
BRANCH   1   2
HETATM    2  C   UNK N   1      27.865  17.335   6.933  0.00  0.00     0.149 C 
BRANCH   2   3
HETATM    3  N   UNK N   1      29.190  17.421   7.529  0.00  0.00    -0.334 N 
HETATM    4  C   UNK N   1      29.423  17.419   8.864  0.00  0.00     0.185 A 
HETATM    5  N   UNK N   1      30.754  17.436   9.136  0.00  0.00    -0.336 N 
HETATM    6  C   UNK N   1      31.342  17.441   7.925  0.00  0.00     0.145 A 
ATOM      7  HN  UNK N   1      31.206  17.444  10.051  1.00  0.00     0.168 HD
HETATM    8  C   UNK N   1      30.406  17.435   6.949  0.00  0.00     0.149 A 
HETATM    9  N   UNK N   1      32.672  17.430   7.667  0.00  0.00    -0.287 N 
HETATM   10  C   UNK N   1      30.794  17.422   5.611  0.00  0.00     0.282 A 
HETATM   11  N   UNK N   1      32.146  17.426   5.320  0.00  0.00    -0.269 N 
HETATM   12  O   UNK N   1      29.970  17.403   4.717  0.00  0.00    -0.265 OA
HETATM   13  C   UNK N   1      32.588  17.423   3.927  0.00  0.00     0.164 C 
HETATM   14  C   UNK N   1      33.086  17.425   6.345  0.00  0.00     0.332 A 
HETATM   15  O   UNK N   1      34.278  17.414   6.080  0.00  0.00    -0.246 OA
HETATM   16  C   UNK N   1      33.636  17.413   8.760  0.00  0.00     0.163 C 
ENDBRANCH   2   3
ENDBRANCH   1   2
BRANCH   1  17
HETATM   17  N   UNK N   1      26.062  15.606   7.147  0.00  0.00    -0.417 N 
HETATM   18  H   UNK N   1      25.477  16.283   7.638  0.00  0.00     0.153 HD
BRANCH  17  19
HETATM   19  C   UNK N   1      25.646  14.230   6.851  0.00  0.00     0.150 C 
BRANCH  19  20
HETATM   20  C   UNK N   1      24.148  14.040   7.050  0.00  0.00     0.168 C 
BRANCH  20  21
HETATM   21  C   UNK N   1      23.774  13.389   8.358  0.00  0.00    -0.025 A 
HETATM   22  C   UNK N   1      22.467  12.925   8.546  0.00  0.00     0.013 A 
HETATM   23  C   UNK N   1      22.105  12.293   9.739  0.00  0.00     0.040 A 
HETATM   24  C   UNK N   1      23.052  12.102  10.747  0.00  0.00     0.098 A 
HETATM   25  C   UNK N   1      24.369  12.544  10.562  0.00  0.00     0.099 A 
HETATM   26  C   UNK N   1      24.726  13.183   9.371  0.00  0.00     0.049 A 
BRANCH  24  27
HETATM   27  O   UNK N   1      22.694  11.489  11.888  0.00  0.00    -0.358 OA
HETATM   28  H   UNK N   1      22.096  10.769  11.874  0.00  0.00     0.217 HD
ENDBRANCH  24  27
BRANCH  25  29
HETATM   29  O   UNK N   1      25.291  12.355  11.522  0.00  0.00    -0.358 OA
HETATM   30  H   UNK N   1      25.165  11.722  12.201  0.00  0.00     0.217 HD
ENDBRANCH  25  29
ENDBRANCH  20  21
BRANCH  20  31
HETATM   31  O   UNK N   1      23.487  15.257   6.870  0.00  0.00    -0.389 OA
HETATM   32  H   UNK N   1      23.337  15.877   6.140  0.00  0.00     0.210 HD
ENDBRANCH  20  31
ENDBRANCH  19  20
ENDBRANCH  17  19
ENDBRANCH   1  17
TORSDOF 9
ENDMDL
MODEL 5
REMARK VINA RESULT:      -7.0     13.885     15.321
REMARK  9 active torsions:
REMARK  status: ('A' for Active; 'I' for Inactive)
REMARK    1  A    between atoms: C_6  and  C_5 
REMARK    2  A    between atoms: N_18  and  C_5 
REMARK    3  A    between atoms: N_23  and  C_6 
REMARK    4  A    between atoms: C_13  and  C_8 
REMARK    5  A    between atoms: N_18  and  C_8 
REMARK    6  A    between atoms: C_13  and  C_10 
REMARK    7  A    between atoms: O_24  and  C_11 
REMARK    8  A    between atoms: O_25  and  C_12 
REMARK    9  A    between atoms: O_26  and  C_13 
ROOT
HETATM    1  C   UNK N   1      35.708  13.100  12.683  0.00  0.00     0.134 C 
ENDROOT
BRANCH   1   2
HETATM    2  C   UNK N   1      35.395  14.372  11.893  0.00  0.00     0.149 C 
BRANCH   2   3
HETATM    3  N   UNK N   1      35.341  14.160  10.454  0.00  0.00    -0.334 N 
HETATM    4  C   UNK N   1      35.435  12.944   9.863  0.00  0.00     0.185 A 
HETATM    5  N   UNK N   1      35.280  13.033   8.516  0.00  0.00    -0.336 N 
HETATM    6  C   UNK N   1      35.078  14.344   8.289  0.00  0.00     0.145 A 
ATOM      7  HN  UNK N   1      35.310  12.277   7.831  1.00  0.00     0.168 HD
HETATM    8  C   UNK N   1      35.116  15.032   9.452  0.00  0.00     0.149 A 
HETATM    9  N   UNK N   1      34.844  14.936   7.093  0.00  0.00    -0.287 N 
HETATM   10  C   UNK N   1      34.914  16.411   9.454  0.00  0.00     0.282 A 
HETATM   11  N   UNK N   1      34.688  17.042   8.244  0.00  0.00    -0.269 N 
HETATM   12  O   UNK N   1      34.930  17.049  10.489  0.00  0.00    -0.265 OA
HETATM   13  C   UNK N   1      34.482  18.488   8.207  0.00  0.00     0.164 C 
HETATM   14  C   UNK N   1      34.647  16.307   7.064  0.00  0.00     0.332 A 
HETATM   15  O   UNK N   1      34.433  16.869   6.001  0.00  0.00    -0.246 OA
HETATM   16  C   UNK N   1      34.791  14.140   5.873  0.00  0.00     0.163 C 
ENDBRANCH   2   3
ENDBRANCH   1   2
BRANCH   1  17
HETATM   17  N   UNK N   1      34.510  12.367  13.111  0.00  0.00    -0.417 N 
HETATM   18  H   UNK N   1      33.593  12.475  12.676  0.00  0.00     0.153 HD
BRANCH  17  19
HETATM   19  C   UNK N   1      34.779  11.464  14.235  0.00  0.00     0.150 C 
BRANCH  19  20
HETATM   20  C   UNK N   1      35.987  11.918  15.045  0.00  0.00     0.168 C 
BRANCH  20  21
HETATM   21  C   UNK N   1      35.677  12.264  16.480  0.00  0.00    -0.025 A 
HETATM   22  C   UNK N   1      35.577  11.240  17.429  0.00  0.00     0.013 A 
HETATM   23  C   UNK N   1      35.319  11.539  18.769  0.00  0.00     0.040 A 
HETATM   24  C   UNK N   1      35.179  12.867  19.177  0.00  0.00     0.098 A 
HETATM   25  C   UNK N   1      35.296  13.902  18.240  0.00  0.00     0.099 A 
HETATM   26  C   UNK N   1      35.547  13.599  16.899  0.00  0.00     0.049 A 
BRANCH  24  27
HETATM   27  O   UNK N   1      34.935  13.144  20.469  0.00  0.00    -0.358 OA
HETATM   28  H   UNK N   1      34.543  13.958  20.715  0.00  0.00     0.217 HD
ENDBRANCH  24  27
BRANCH  25  29
HETATM   29  O   UNK N   1      35.173  15.185  18.624  0.00  0.00    -0.358 OA
HETATM   30  H   UNK N   1      35.285  15.889  18.017  0.00  0.00     0.217 HD
ENDBRANCH  25  29
ENDBRANCH  20  21
BRANCH  20  31
HETATM   31  O   UNK N   1      37.006  10.968  14.951  0.00  0.00    -0.389 OA
HETATM   32  H   UNK N   1      37.576  10.611  14.253  0.00  0.00     0.210 HD
ENDBRANCH  20  31
ENDBRANCH  19  20
ENDBRANCH  17  19
ENDBRANCH   1  17
TORSDOF 9
ENDMDL
MODEL 6
REMARK VINA RESULT:      -6.9     15.161     17.534
REMARK  9 active torsions:
REMARK  status: ('A' for Active; 'I' for Inactive)
REMARK    1  A    between atoms: C_6  and  C_5 
REMARK    2  A    between atoms: N_18  and  C_5 
REMARK    3  A    between atoms: N_23  and  C_6 
REMARK    4  A    between atoms: C_13  and  C_8 
REMARK    5  A    between atoms: N_18  and  C_8 
REMARK    6  A    between atoms: C_13  and  C_10 
REMARK    7  A    between atoms: O_24  and  C_11 
REMARK    8  A    between atoms: O_25  and  C_12 
REMARK    9  A    between atoms: O_26  and  C_13 
ROOT
HETATM    1  C   UNK N   1      29.309  28.905  -5.271  0.00  0.00     0.134 C 
ENDROOT
BRANCH   1   2
HETATM    2  C   UNK N   1      29.864  27.632  -4.628  0.00  0.00     0.149 C 
BRANCH   2   3
HETATM    3  N   UNK N   1      29.477  26.416  -5.327  0.00  0.00    -0.334 N 
HETATM    4  C   UNK N   1      28.866  26.399  -6.537  0.00  0.00     0.185 A 
HETATM    5  N   UNK N   1      28.688  25.128  -6.985  0.00  0.00    -0.336 N 
HETATM    6  C   UNK N   1      29.214  24.356  -6.016  0.00  0.00     0.145 A 
ATOM      7  HN  UNK N   1      28.252  24.828  -7.857  1.00  0.00     0.168 HD
HETATM    8  C   UNK N   1      29.690  25.124  -5.011  0.00  0.00     0.149 A 
HETATM    9  N   UNK N   1      29.301  23.003  -6.012  0.00  0.00    -0.287 N 
HETATM   10  C   UNK N   1      30.297  24.529  -3.906  0.00  0.00     0.282 A 
HETATM   11  N   UNK N   1      30.385  23.150  -3.869  0.00  0.00    -0.269 N 
HETATM   12  O   UNK N   1      30.745  25.201  -2.996  0.00  0.00    -0.265 OA
HETATM   13  C   UNK N   1      31.006  22.492  -2.722  0.00  0.00     0.164 C 
HETATM   14  C   UNK N   1      29.892  22.385  -4.922  0.00  0.00     0.332 A 
HETATM   15  O   UNK N   1      29.986  21.168  -4.889  0.00  0.00    -0.246 OA
HETATM   16  C   UNK N   1      28.791  22.227  -7.135  0.00  0.00     0.163 C 
ENDBRANCH   2   3
ENDBRANCH   1   2
BRANCH   1  17
HETATM   17  N   UNK N   1      28.574  29.762  -4.332  0.00  0.00    -0.417 N 
HETATM   18  H   UNK N   1      29.008  30.245  -3.546  0.00  0.00     0.153 HD
BRANCH  17  19
HETATM   19  C   UNK N   1      27.144  29.842  -4.652  0.00  0.00     0.150 C 
BRANCH  19  20
HETATM   20  C   UNK N   1      26.308  28.986  -3.709  0.00  0.00     0.168 C 
BRANCH  20  21
HETATM   21  C   UNK N   1      26.039  27.589  -4.214  0.00  0.00    -0.025 A 
HETATM   22  C   UNK N   1      25.433  27.415  -5.464  0.00  0.00     0.013 A 
HETATM   23  C   UNK N   1      25.200  26.132  -5.964  0.00  0.00     0.040 A 
HETATM   24  C   UNK N   1      25.588  25.011  -5.228  0.00  0.00     0.098 A 
HETATM   25  C   UNK N   1      26.214  25.173  -3.985  0.00  0.00     0.099 A 
HETATM   26  C   UNK N   1      26.438  26.458  -3.483  0.00  0.00     0.049 A 
BRANCH  24  27
HETATM   27  O   UNK N   1      25.363  23.781  -5.721  0.00  0.00    -0.358 OA
HETATM   28  H   UNK N   1      25.627  23.021  -5.242  0.00  0.00     0.217 HD
ENDBRANCH  24  27
BRANCH  25  29
HETATM   29  O   UNK N   1      26.601  24.100  -3.273  0.00  0.00    -0.358 OA
HETATM   30  H   UNK N   1      26.601  23.241  -3.647  0.00  0.00     0.217 HD
ENDBRANCH  25  29
ENDBRANCH  20  21
BRANCH  20  31
HETATM   31  O   UNK N   1      26.889  28.973  -2.439  0.00  0.00    -0.389 OA
HETATM   32  H   UNK N   1      26.578  29.013  -1.521  0.00  0.00     0.210 HD
ENDBRANCH  20  31
ENDBRANCH  19  20
ENDBRANCH  17  19
ENDBRANCH   1  17
TORSDOF 9
ENDMDL
MODEL 7
REMARK VINA RESULT:      -6.8      5.802      6.807
REMARK  9 active torsions:
REMARK  status: ('A' for Active; 'I' for Inactive)
REMARK    1  A    between atoms: C_6  and  C_5 
REMARK    2  A    between atoms: N_18  and  C_5 
REMARK    3  A    between atoms: N_23  and  C_6 
REMARK    4  A    between atoms: C_13  and  C_8 
REMARK    5  A    between atoms: N_18  and  C_8 
REMARK    6  A    between atoms: C_13  and  C_10 
REMARK    7  A    between atoms: O_24  and  C_11 
REMARK    8  A    between atoms: O_25  and  C_12 
REMARK    9  A    between atoms: O_26  and  C_13 
ROOT
HETATM    1  C   UNK N   1      26.847  19.675   3.967  0.00  0.00     0.134 C 
ENDROOT
BRANCH   1   2
HETATM    2  C   UNK N   1      25.453  20.149   4.382  0.00  0.00     0.149 C 
BRANCH   2   3
HETATM    3  N   UNK N   1      24.430  19.122   4.252  0.00  0.00    -0.334 N 
HETATM    4  C   UNK N   1      24.516  17.892   4.816  0.00  0.00     0.185 A 
HETATM    5  N   UNK N   1      23.390  17.165   4.593  0.00  0.00    -0.336 N 
HETATM    6  C   UNK N   1      22.598  17.986   3.878  0.00  0.00     0.145 A 
ATOM      7  HN  UNK N   1      23.190  16.212   4.898  1.00  0.00     0.168 HD
HETATM    8  C   UNK N   1      23.219  19.167   3.665  0.00  0.00     0.149 A 
HETATM    9  N   UNK N   1      21.345  17.723   3.433  0.00  0.00    -0.287 N 
HETATM   10  C   UNK N   1      22.571  20.178   2.957  0.00  0.00     0.282 A 
HETATM   11  N   UNK N   1      21.297  19.930   2.478  0.00  0.00    -0.269 N 
HETATM   12  O   UNK N   1      23.104  21.253   2.765  0.00  0.00    -0.265 OA
HETATM   13  C   UNK N   1      20.592  20.963   1.723  0.00  0.00     0.164 C 
HETATM   14  C   UNK N   1      20.681  18.706   2.719  0.00  0.00     0.332 A 
HETATM   15  O   UNK N   1      19.551  18.500   2.305  0.00  0.00    -0.246 OA
HETATM   16  C   UNK N   1      20.717  16.438   3.713  0.00  0.00     0.163 C 
ENDBRANCH   2   3
ENDBRANCH   1   2
BRANCH   1  17
HETATM   17  N   UNK N   1      27.885  19.969   4.962  0.00  0.00    -0.417 N 
HETATM   18  H   UNK N   1      28.743  20.480   4.754  0.00  0.00     0.153 HD
BRANCH  17  19
HETATM   19  C   UNK N   1      27.549  19.444   6.291  0.00  0.00     0.150 C 
BRANCH  19  20
HETATM   20  C   UNK N   1      27.990  17.995   6.451  0.00  0.00     0.168 C 
BRANCH  20  21
HETATM   21  C   UNK N   1      29.333  17.826   7.118  0.00  0.00    -0.025 A 
HETATM   22  C   UNK N   1      29.546  18.381   8.386  0.00  0.00     0.013 A 
HETATM   23  C   UNK N   1      30.771  18.212   9.035  0.00  0.00     0.040 A 
HETATM   24  C   UNK N   1      31.789  17.470   8.432  0.00  0.00     0.098 A 
HETATM   25  C   UNK N   1      31.580  16.893   7.172  0.00  0.00     0.099 A 
HETATM   26  C   UNK N   1      30.356  17.070   6.522  0.00  0.00     0.049 A 
BRANCH  24  27
HETATM   27  O   UNK N   1      32.962  17.311   9.067  0.00  0.00    -0.358 OA
HETATM   28  H   UNK N   1      33.620  17.975   9.025  0.00  0.00     0.217 HD
ENDBRANCH  24  27
BRANCH  25  29
HETATM   29  O   UNK N   1      32.550  16.168   6.587  0.00  0.00    -0.358 OA
HETATM   30  H   UNK N   1      33.061  15.553   7.075  0.00  0.00     0.217 HD
ENDBRANCH  25  29
ENDBRANCH  20  21
BRANCH  20  31
HETATM   31  O   UNK N   1      26.994  17.264   7.102  0.00  0.00    -0.389 OA
HETATM   32  H   UNK N   1      26.210  17.461   7.637  0.00  0.00     0.210 HD
ENDBRANCH  20  31
ENDBRANCH  19  20
ENDBRANCH  17  19
ENDBRANCH   1  17
TORSDOF 9
ENDMDL
MODEL 8
REMARK VINA RESULT:      -6.8     10.848     15.754
REMARK  9 active torsions:
REMARK  status: ('A' for Active; 'I' for Inactive)
REMARK    1  A    between atoms: C_6  and  C_5 
REMARK    2  A    between atoms: N_18  and  C_5 
REMARK    3  A    between atoms: N_23  and  C_6 
REMARK    4  A    between atoms: C_13  and  C_8 
REMARK    5  A    between atoms: N_18  and  C_8 
REMARK    6  A    between atoms: C_13  and  C_10 
REMARK    7  A    between atoms: O_24  and  C_11 
REMARK    8  A    between atoms: O_25  and  C_12 
REMARK    9  A    between atoms: O_26  and  C_13 
ROOT
HETATM    1  C   UNK N   1      34.212  13.889   9.385  0.00  0.00     0.134 C 
ENDROOT
BRANCH   1   2
HETATM    2  C   UNK N   1      34.601  12.827  10.416  0.00  0.00     0.149 C 
BRANCH   2   3
HETATM    3  N   UNK N   1      35.300  13.371  11.570  0.00  0.00    -0.334 N 
HETATM    4  C   UNK N   1      36.018  14.520  11.549  0.00  0.00     0.185 A 
HETATM    5  N   UNK N   1      36.501  14.826  12.782  0.00  0.00    -0.336 N 
HETATM    6  C   UNK N   1      36.054  13.833  13.572  0.00  0.00     0.145 A 
ATOM      7  HN  UNK N   1      37.075  15.627  13.048  1.00  0.00     0.168 HD
HETATM    8  C   UNK N   1      35.331  12.948  12.849  0.00  0.00     0.149 A 
HETATM    9  N   UNK N   1      36.251  13.704  14.907  0.00  0.00    -0.287 N 
HETATM   10  C   UNK N   1      34.755  11.844  13.473  0.00  0.00     0.282 A 
HETATM   11  N   UNK N   1      34.953  11.680  14.832  0.00  0.00    -0.269 N 
HETATM   12  O   UNK N   1      34.089  11.042  12.846  0.00  0.00    -0.265 OA
HETATM   13  C   UNK N   1      34.372  10.527  15.517  0.00  0.00     0.164 C 
HETATM   14  C   UNK N   1      35.697  12.610  15.551  0.00  0.00     0.332 A 
HETATM   15  O   UNK N   1      35.856  12.466  16.753  0.00  0.00    -0.246 OA
HETATM   16  C   UNK N   1      37.021  14.701  15.639  0.00  0.00     0.163 C 
ENDBRANCH   2   3
ENDBRANCH   1   2
BRANCH   1  17
HETATM   17  N   UNK N   1      32.997  14.632   9.741  0.00  0.00    -0.417 N 
HETATM   18  H   UNK N   1      32.757  14.905  10.694  0.00  0.00     0.153 HD
BRANCH  17  19
HETATM   19  C   UNK N   1      32.165  14.936   8.570  0.00  0.00     0.150 C 
BRANCH  19  20
HETATM   20  C   UNK N   1      32.148  16.428   8.264  0.00  0.00     0.168 C 
BRANCH  20  21
HETATM   21  C   UNK N   1      30.795  16.964   7.866  0.00  0.00    -0.025 A 
HETATM   22  C   UNK N   1      30.456  17.036   6.510  0.00  0.00     0.013 A 
HETATM   23  C   UNK N   1      29.198  17.502   6.119  0.00  0.00     0.040 A 
HETATM   24  C   UNK N   1      28.261  17.881   7.081  0.00  0.00     0.098 A 
HETATM   25  C   UNK N   1      28.581  17.794   8.443  0.00  0.00     0.099 A 
HETATM   26  C   UNK N   1      29.843  17.335   8.830  0.00  0.00     0.049 A 
BRANCH  24  27
HETATM   27  O   UNK N   1      27.052  18.324   6.694  0.00  0.00    -0.358 OA
HETATM   28  H   UNK N   1      26.303  17.764   6.740  0.00  0.00     0.217 HD
ENDBRANCH  24  27
BRANCH  25  29
HETATM   29  O   UNK N   1      27.681  18.147   9.377  0.00  0.00    -0.358 OA
HETATM   30  H   UNK N   1      27.133  18.899   9.268  0.00  0.00     0.217 HD
ENDBRANCH  25  29
ENDBRANCH  20  21
BRANCH  20  31
HETATM   31  O   UNK N   1      32.690  17.139   9.337  0.00  0.00    -0.389 OA
HETATM   32  H   UNK N   1      33.373  17.816   9.462  0.00  0.00     0.210 HD
ENDBRANCH  20  31
ENDBRANCH  19  20
ENDBRANCH  17  19
ENDBRANCH   1  17
TORSDOF 9
ENDMDL
MODEL 9
REMARK VINA RESULT:      -6.7     12.188     16.529
REMARK  9 active torsions:
REMARK  status: ('A' for Active; 'I' for Inactive)
REMARK    1  A    between atoms: C_6  and  C_5 
REMARK    2  A    between atoms: N_18  and  C_5 
REMARK    3  A    between atoms: N_23  and  C_6 
REMARK    4  A    between atoms: C_13  and  C_8 
REMARK    5  A    between atoms: N_18  and  C_8 
REMARK    6  A    between atoms: C_13  and  C_10 
REMARK    7  A    between atoms: O_24  and  C_11 
REMARK    8  A    between atoms: O_25  and  C_12 
REMARK    9  A    between atoms: O_26  and  C_13 
ROOT
HETATM    1  C   UNK N   1      35.431  16.387  10.668  0.00  0.00     0.134 C 
ENDROOT
BRANCH   1   2
HETATM    2  C   UNK N   1      34.751  15.133  11.222  0.00  0.00     0.149 C 
BRANCH   2   3
HETATM    3  N   UNK N   1      35.632  14.309  12.037  0.00  0.00    -0.334 N 
HETATM    4  C   UNK N   1      36.102  14.676  13.254  0.00  0.00     0.185 A 
HETATM    5  N   UNK N   1      36.842  13.686  13.819  0.00  0.00    -0.336 N 
HETATM    6  C   UNK N   1      36.810  12.689  12.916  0.00  0.00     0.145 A 
ATOM      7  HN  UNK N   1      37.315  13.698  14.723  1.00  0.00     0.168 HD
HETATM    8  C   UNK N   1      36.085  13.057  11.836  0.00  0.00     0.149 A 
HETATM    9  N   UNK N   1      37.385  11.467  13.033  0.00  0.00    -0.287 N 
HETATM   10  C   UNK N   1      35.907  12.166  10.780  0.00  0.00     0.282 A 
HETATM   11  N   UNK N   1      36.495  10.917  10.867  0.00  0.00    -0.269 N 
HETATM   12  O   UNK N   1      35.247  12.470   9.804  0.00  0.00    -0.265 OA
HETATM   13  C   UNK N   1      36.337   9.962   9.774  0.00  0.00     0.164 C 
HETATM   14  C   UNK N   1      37.230  10.564  11.995  0.00  0.00     0.332 A 
HETATM   15  O   UNK N   1      37.735   9.455  12.071  0.00  0.00    -0.246 OA
HETATM   16  C   UNK N   1      38.137  11.118  14.232  0.00  0.00     0.163 C 
ENDBRANCH   2   3
ENDBRANCH   1   2
BRANCH   1  17
HETATM   17  N   UNK N   1      34.559  17.191   9.804  0.00  0.00    -0.417 N 
HETATM   18  H   UNK N   1      34.316  18.164   9.990  0.00  0.00     0.153 HD
BRANCH  17  19
HETATM   19  C   UNK N   1      34.074  16.436   8.642  0.00  0.00     0.150 C 
BRANCH  19  20
HETATM   20  C   UNK N   1      34.260  17.216   7.347  0.00  0.00     0.168 C 
BRANCH  20  21
HETATM   21  C   UNK N   1      33.039  17.247   6.461  0.00  0.00    -0.025 A 
HETATM   22  C   UNK N   1      31.766  17.194   7.042  0.00  0.00     0.013 A 
HETATM   23  C   UNK N   1      30.621  17.250   6.243  0.00  0.00     0.040 A 
HETATM   24  C   UNK N   1      30.738  17.381   4.858  0.00  0.00     0.098 A 
HETATM   25  C   UNK N   1      32.006  17.455   4.267  0.00  0.00     0.099 A 
HETATM   26  C   UNK N   1      33.150  17.391   5.068  0.00  0.00     0.049 A 
BRANCH  24  27
HETATM   27  O   UNK N   1      29.630  17.438   4.100  0.00  0.00    -0.358 OA
HETATM   28  H   UNK N   1      29.642  17.874   3.271  0.00  0.00     0.217 HD
ENDBRANCH  24  27
BRANCH  25  29
HETATM   29  O   UNK N   1      32.129  17.592   2.935  0.00  0.00    -0.358 OA
HETATM   30  H   UNK N   1      32.393  18.404   2.550  0.00  0.00     0.217 HD
ENDBRANCH  25  29
ENDBRANCH  20  21
BRANCH  20  31
HETATM   31  O   UNK N   1      34.726  18.502   7.630  0.00  0.00    -0.389 OA
HETATM   32  H   UNK N   1      34.924  19.307   7.127  0.00  0.00     0.210 HD
ENDBRANCH  20  31
ENDBRANCH  19  20
ENDBRANCH  17  19
ENDBRANCH   1  17
TORSDOF 9
ENDMDL
