REMARK  5 active torsions:
REMARK  status: ('A' for Active; 'I' for Inactive)
REMARK    1  A    between atoms: C_2  and  O_3 
REMARK    2  A    between atoms: O_3  and  C_4 
REMARK       I    between atoms: C_9  and  N_12 
REMARK    3  A    between atoms: C_17  and  N_13 
REMARK    4  A    between atoms: P_24  and  O_27 
REMARK    5  A    between atoms: O_27  and  C_28 
ROOT
HETATM    1  C   UNK N   1      -5.087  -2.171  -0.246  0.00  0.00     0.188 A 
HETATM    2  C   UNK N   1      -4.186  -1.103  -0.127  0.00  0.00     0.130 A 
HETATM    3  C   UNK N   1      -2.873  -1.343   0.049  0.00  0.00     0.157 A 
HETATM    4  N   UNK N   1      -2.376  -2.601   0.120  0.00  0.00    -0.174 N 
ATOM      5  HN  UNK N   1      -1.379  -2.757   0.265  1.00  0.00     0.186 HD
HETATM    6  C   UNK N   1      -3.231  -3.655  -0.007  0.00  0.00     0.679 A 
HETATM    7  N   UNK N   1      -4.573  -3.437  -0.184  0.00  0.00    -0.168 N 
ATOM      8  HN  UNK N   1      -5.201  -4.236  -0.271  1.00  0.00     0.186 HD
HETATM    9  N   UNK N   1      -2.731  -4.971   0.050  0.00  0.00    -0.234 N 
HETATM   10  N   UNK N   1      -2.210  -0.175   0.170  0.00  0.00    -0.296 N 
HETATM   11  C   UNK N   1      -3.170   0.778   0.061  0.00  0.00     0.188 A 
HETATM   12  N   UNK N   1      -4.402   0.227  -0.131  0.00  0.00    -0.346 N 
ATOM     13  HN  UNK N   1      -5.291   0.714  -0.250  1.00  0.00     0.167 HD
HETATM   14  H   UNK N   1      -3.353  -5.733   0.089  0.00  0.00     0.174 HD
HETATM   15  H   UNK N   1      -1.759  -5.128   0.050  0.00  0.00     0.174 HD
ENDROOT
BRANCH  10  16
HETATM   16  C   UNK N   1      -0.787   0.093   0.451  0.00  0.00     0.273 C 
HETATM   17  C   UNK N   1       0.115  -1.121   0.471  0.00  0.00     0.172 C 
HETATM   18  C   UNK N   1       1.464  -0.468   0.396  0.00  0.00     0.208 C 
HETATM   19  C   UNK N   1      -0.020  -1.946   1.737  0.00  0.00     0.059 C 
HETATM   20  F   UNK N   1      -0.091  -1.890  -0.669  0.00  0.00    -0.236 F 
HETATM   21  C   UNK N   1       1.130   0.974   0.071  0.00  0.00     0.181 C 
HETATM   22  O   UNK N   1       2.157  -1.007  -0.699  0.00  0.00    -0.281 OA
HETATM   23  O   UNK N   1      -0.180   0.987  -0.448  0.00  0.00    -0.353 OA
HETATM   24  C   UNK N   1       2.214   1.469  -0.883  0.00  0.00     0.215 C 
HETATM   25  O   UNK N   1       3.462   1.093  -0.329  0.00  0.00    -0.290 OA
HETATM   26  P   UNK N   1       3.875  -0.631  -0.603  0.00  0.00     0.478 P 
HETATM   27  O   UNK N   1       4.178  -0.302   0.887  0.00  0.00    -0.227 OA
BRANCH  26  28
HETATM   28  O   UNK N   1       3.734  -2.068   0.397  0.00  0.00    -0.288 OA
BRANCH  28  29
HETATM   29  C   UNK N   1       3.778  -3.183  -0.457  0.00  0.00     0.125 C 
HETATM   30  C   UNK N   1       4.799  -4.174   0.054  0.00  0.00     0.040 C 
HETATM   31  C   UNK N   1       2.418  -3.863  -0.495  0.00  0.00     0.040 C 
ENDBRANCH  28  29
ENDBRANCH  26  28
ENDBRANCH  10  16
BRANCH   1  32
HETATM   32  O   UNK N   1      -6.424  -2.009  -0.402  0.00  0.00    -0.334 OA
BRANCH  32  33
HETATM   33  C   UNK N   1      -7.042  -0.788  -0.533  0.00  0.00     0.173 C 
HETATM   34  C   UNK N   1      -7.923  -0.531   0.671  0.00  0.00     0.034 C 
ENDBRANCH  32  33
ENDBRANCH   1  32
TORSDOF 5
