MODEL 1
REMARK VINA RESULT:      -7.3      0.000      0.000
REMARK  6 active torsions:
REMARK  status: ('A' for Active; 'I' for Inactive)
REMARK    1  A    between atoms: C_2  and  S_3 
REMARK    2  A    between atoms: S_3  and  N_6 
REMARK    3  A    between atoms: C_7  and  N_6 
REMARK    4  A    between atoms: C_10  and  C_13 
REMARK       I    between atoms: C_13  and  N_15 
REMARK    5  A    between atoms: N_15  and  C_16 
REMARK    6  A    between atoms: C_20  and  C_23 
ROOT
HETATM    1  C   UNK N   1      36.883  12.771  11.606  0.00  0.00     0.093 C 
HETATM    2  C   UNK N   1      35.461  12.704  11.012  0.00  0.00     0.026 C 
HETATM    3  C   UNK N   1      35.263  13.523   9.714  0.00  0.00     0.016 C 
HETATM    4  C   UNK N   1      36.112  14.804   9.667  0.00  0.00     0.078 C 
HETATM    5  C   UNK N   1      37.603  14.526   9.910  0.00  0.00     0.016 C 
HETATM    6  C   UNK N   1      37.880  13.145  10.511  0.00  0.00     0.026 C 
ENDROOT
BRANCH   4   7
HETATM    7  C   UNK N   1      35.540  15.861  10.586  0.00  0.00     0.227 C 
HETATM    8  O   UNK N   1      36.036  16.051  11.679  0.00  0.00    -0.273 OA
HETATM    9  N   UNK N   1      34.413  16.538  10.255  0.00  0.00    -0.313 N 
HETATM   10  H   UNK N   1      33.931  17.006  10.974  0.00  0.00     0.170 HD
BRANCH   9  11
HETATM   11  C   UNK N   1      33.886  16.615   8.947  0.00  0.00     0.107 A 
HETATM   12  N   UNK N   1      32.764  15.913   8.631  0.00  0.00    -0.351 N 
HETATM   13  C   UNK N   1      32.155  16.049   7.424  0.00  0.00     0.106 A 
ATOM     14  HN  UNK N   1      32.371  15.267   9.316  1.00  0.00     0.166 HD
HETATM   15  C   UNK N   1      32.644  16.965   6.485  0.00  0.00     0.063 A 
HETATM   16  C   UNK N   1      33.789  17.706   6.795  0.00  0.00     0.021 A 
HETATM   17  C   UNK N   1      34.418  17.527   8.025  0.00  0.00     0.049 A 
BRANCH  15  18
HETATM   18  C   UNK N   1      31.921  17.162   5.186  0.00  0.00     0.418 C 
HETATM   19  F   UNK N   1      32.647  18.014   4.374  0.00  0.00    -0.166 F 
HETATM   20  F   UNK N   1      30.661  17.701   5.392  0.00  0.00    -0.166 F 
HETATM   21  F   UNK N   1      31.779  15.941   4.551  0.00  0.00    -0.166 F 
ENDBRANCH  15  18
ENDBRANCH   9  11
ENDBRANCH   4   7
BRANCH   1  22
HETATM   22  N   UNK N   1      36.868  13.691  12.749  0.00  0.00    -0.314 N 
HETATM   23  H   UNK N   1      37.126  14.672  12.638  0.00  0.00     0.172 HD
BRANCH  22  24
HETATM   24  S   UNK N   1      36.384  13.037  14.340  0.00  0.00     0.234 S 
HETATM   25  O   UNK N   1      37.049  13.986  15.348  0.00  0.00    -0.205 OA
HETATM   26  O   UNK N   1      34.941  13.547  14.469  0.00  0.00    -0.205 OA
BRANCH  24  27
HETATM   27  C   UNK N   1      36.427  11.317  14.974  0.00  0.00     0.072 C 
HETATM   28  C   UNK N   1      35.341  10.525  14.274  0.00  0.00     0.033 C 
HETATM   29  C   UNK N   1      36.144  11.239  16.458  0.00  0.00     0.033 C 
HETATM   30  C   UNK N   1      37.766  10.683  14.667  0.00  0.00     0.033 C 
ENDBRANCH  24  27
ENDBRANCH  22  24
ENDBRANCH   1  22
TORSDOF 6
ENDMDL
MODEL 2
REMARK VINA RESULT:      -7.3      0.925      1.549
REMARK  6 active torsions:
REMARK  status: ('A' for Active; 'I' for Inactive)
REMARK    1  A    between atoms: C_2  and  S_3 
REMARK    2  A    between atoms: S_3  and  N_6 
REMARK    3  A    between atoms: C_7  and  N_6 
REMARK    4  A    between atoms: C_10  and  C_13 
REMARK       I    between atoms: C_13  and  N_15 
REMARK    5  A    between atoms: N_15  and  C_16 
REMARK    6  A    between atoms: C_20  and  C_23 
ROOT
HETATM    1  C   UNK N   1      36.596  12.785  11.917  0.00  0.00     0.093 C 
HETATM    2  C   UNK N   1      35.180  12.892  11.314  0.00  0.00     0.026 C 
HETATM    3  C   UNK N   1      35.101  13.680   9.984  0.00  0.00     0.016 C 
HETATM    4  C   UNK N   1      36.118  14.829   9.897  0.00  0.00     0.078 C 
HETATM    5  C   UNK N   1      37.556  14.357  10.162  0.00  0.00     0.016 C 
HETATM    6  C   UNK N   1      37.639  12.976  10.817  0.00  0.00     0.026 C 
ENDROOT
BRANCH   4   7
HETATM    7  C   UNK N   1      35.695  15.989  10.770  0.00  0.00     0.227 C 
HETATM    8  O   UNK N   1      36.294  16.227  11.800  0.00  0.00    -0.273 OA
HETATM    9  N   UNK N   1      34.588  16.716  10.478  0.00  0.00    -0.313 N 
HETATM   10  H   UNK N   1      34.201  17.269  11.193  0.00  0.00     0.170 HD
BRANCH   9  11
HETATM   11  C   UNK N   1      33.956  16.729   9.215  0.00  0.00     0.107 A 
HETATM   12  N   UNK N   1      32.744  16.130   9.063  0.00  0.00    -0.351 N 
HETATM   13  C   UNK N   1      32.046  16.221   7.901  0.00  0.00     0.106 A 
ATOM     14  HN  UNK N   1      32.350  15.597   9.838  1.00  0.00     0.166 HD
HETATM   15  C   UNK N   1      32.539  16.987   6.838  0.00  0.00     0.063 A 
HETATM   16  C   UNK N   1      33.778  17.622   6.978  0.00  0.00     0.021 A 
HETATM   17  C   UNK N   1      34.494  17.489   8.167  0.00  0.00     0.049 A 
BRANCH  15  18
HETATM   18  C   UNK N   1      31.726  17.142   5.587  0.00  0.00     0.418 C 
HETATM   19  F   UNK N   1      31.544  15.906   4.995  0.00  0.00    -0.166 F 
HETATM   20  F   UNK N   1      32.353  17.986   4.685  0.00  0.00    -0.166 F 
HETATM   21  F   UNK N   1      30.491  17.678   5.907  0.00  0.00    -0.166 F 
ENDBRANCH  15  18
ENDBRANCH   9  11
ENDBRANCH   4   7
BRANCH   1  22
HETATM   22  N   UNK N   1      36.705  13.741  13.024  0.00  0.00    -0.314 N 
HETATM   23  H   UNK N   1      36.763  14.745  12.848  0.00  0.00     0.172 HD
BRANCH  22  24
HETATM   24  S   UNK N   1      36.732  13.092  14.689  0.00  0.00     0.234 S 
HETATM   25  O   UNK N   1      37.960  12.170  14.708  0.00  0.00    -0.205 OA
HETATM   26  O   UNK N   1      37.321  14.269  15.481  0.00  0.00    -0.205 OA
BRANCH  24  27
HETATM   27  C   UNK N   1      35.384  12.362  15.694  0.00  0.00     0.072 C 
HETATM   28  C   UNK N   1      35.944  11.173  16.450  0.00  0.00     0.033 C 
HETATM   29  C   UNK N   1      34.240  11.849  14.847  0.00  0.00     0.033 C 
HETATM   30  C   UNK N   1      34.873  13.375  16.695  0.00  0.00     0.033 C 
ENDBRANCH  24  27
ENDBRANCH  22  24
ENDBRANCH   1  22
TORSDOF 6
ENDMDL
MODEL 3
REMARK VINA RESULT:      -7.1      4.017      6.291
REMARK  6 active torsions:
REMARK  status: ('A' for Active; 'I' for Inactive)
REMARK    1  A    between atoms: C_2  and  S_3 
REMARK    2  A    between atoms: S_3  and  N_6 
REMARK    3  A    between atoms: C_7  and  N_6 
REMARK    4  A    between atoms: C_10  and  C_13 
REMARK       I    between atoms: C_13  and  N_15 
REMARK    5  A    between atoms: N_15  and  C_16 
REMARK    6  A    between atoms: C_20  and  C_23 
ROOT
HETATM    1  C   UNK N   1      34.580  15.923   6.941  0.00  0.00     0.093 C 
HETATM    2  C   UNK N   1      34.345  15.881   5.417  0.00  0.00     0.026 C 
HETATM    3  C   UNK N   1      33.314  16.909   4.891  0.00  0.00     0.016 C 
HETATM    4  C   UNK N   1      32.179  17.195   5.889  0.00  0.00     0.078 C 
HETATM    5  C   UNK N   1      32.707  17.614   7.269  0.00  0.00     0.016 C 
HETATM    6  C   UNK N   1      34.190  17.297   7.482  0.00  0.00     0.026 C 
ENDROOT
BRANCH   4   7
HETATM    7  C   UNK N   1      31.206  16.038   5.942  0.00  0.00     0.227 C 
HETATM    8  O   UNK N   1      31.619  14.897   5.993  0.00  0.00    -0.273 OA
HETATM    9  N   UNK N   1      29.871  16.244   5.830  0.00  0.00    -0.313 N 
HETATM   10  H   UNK N   1      29.306  15.472   5.600  0.00  0.00     0.170 HD
BRANCH   9  11
HETATM   11  C   UNK N   1      29.239  17.492   6.022  0.00  0.00     0.107 A 
HETATM   12  N   UNK N   1      28.812  18.203   4.943  0.00  0.00    -0.351 N 
HETATM   13  C   UNK N   1      28.094  19.348   5.084  0.00  0.00     0.106 A 
ATOM     14  HN  UNK N   1      29.036  17.870   4.006  1.00  0.00     0.166 HD
HETATM   15  C   UNK N   1      27.729  19.802   6.357  0.00  0.00     0.063 A 
HETATM   16  C   UNK N   1      28.147  19.078   7.480  0.00  0.00     0.021 A 
HETATM   17  C   UNK N   1      28.911  17.924   7.315  0.00  0.00     0.049 A 
BRANCH  15  18
HETATM   18  C   UNK N   1      26.874  21.026   6.499  0.00  0.00     0.418 C 
HETATM   19  F   UNK N   1      25.904  21.032   5.513  0.00  0.00    -0.166 F 
HETATM   20  F   UNK N   1      27.633  22.180   6.391  0.00  0.00    -0.166 F 
HETATM   21  F   UNK N   1      26.260  21.015   7.739  0.00  0.00    -0.166 F 
ENDBRANCH  15  18
ENDBRANCH   9  11
ENDBRANCH   4   7
BRANCH   1  22
HETATM   22  N   UNK N   1      33.857  14.805   7.555  0.00  0.00    -0.314 N 
HETATM   23  H   UNK N   1      33.300  14.163   6.989  0.00  0.00     0.172 HD
BRANCH  22  24
HETATM   24  S   UNK N   1      33.983  14.601   9.326  0.00  0.00     0.234 S 
HETATM   25  O   UNK N   1      32.639  15.123   9.856  0.00  0.00    -0.205 OA
HETATM   26  O   UNK N   1      33.722  13.096   9.494  0.00  0.00    -0.205 OA
BRANCH  24  27
HETATM   27  C   UNK N   1      35.334  15.064  10.476  0.00  0.00     0.072 C 
HETATM   28  C   UNK N   1      36.655  14.696   9.831  0.00  0.00     0.033 C 
HETATM   29  C   UNK N   1      35.259  14.318  11.790  0.00  0.00     0.033 C 
HETATM   30  C   UNK N   1      35.315  16.556  10.726  0.00  0.00     0.033 C 
ENDBRANCH  24  27
ENDBRANCH  22  24
ENDBRANCH   1  22
TORSDOF 6
ENDMDL
MODEL 4
REMARK VINA RESULT:      -7.0      3.576      5.704
REMARK  6 active torsions:
REMARK  status: ('A' for Active; 'I' for Inactive)
REMARK    1  A    between atoms: C_2  and  S_3 
REMARK    2  A    between atoms: S_3  and  N_6 
REMARK    3  A    between atoms: C_7  and  N_6 
REMARK    4  A    between atoms: C_10  and  C_13 
REMARK       I    between atoms: C_13  and  N_15 
REMARK    5  A    between atoms: N_15  and  C_16 
REMARK    6  A    between atoms: C_20  and  C_23 
ROOT
HETATM    1  C   UNK N   1      34.885  16.705   8.093  0.00  0.00     0.093 C 
HETATM    2  C   UNK N   1      34.623  16.156   6.675  0.00  0.00     0.026 C 
HETATM    3  C   UNK N   1      33.495  16.877   5.900  0.00  0.00     0.016 C 
HETATM    4  C   UNK N   1      32.360  17.382   6.807  0.00  0.00     0.078 C 
HETATM    5  C   UNK N   1      32.877  18.262   7.955  0.00  0.00     0.016 C 
HETATM    6  C   UNK N   1      34.387  18.146   8.186  0.00  0.00     0.026 C 
ENDROOT
BRANCH   4   7
HETATM    7  C   UNK N   1      31.494  16.233   7.273  0.00  0.00     0.227 C 
HETATM    8  O   UNK N   1      32.006  15.192   7.635  0.00  0.00    -0.273 OA
HETATM    9  N   UNK N   1      30.142  16.303   7.201  0.00  0.00    -0.313 N 
HETATM   10  H   UNK N   1      29.635  15.461   7.253  0.00  0.00     0.170 HD
BRANCH   9  11
HETATM   11  C   UNK N   1      29.414  17.505   7.054  0.00  0.00     0.107 A 
HETATM   12  N   UNK N   1      28.960  17.871   5.824  0.00  0.00    -0.351 N 
HETATM   13  C   UNK N   1      28.156  18.953   5.656  0.00  0.00     0.106 A 
ATOM     14  HN  UNK N   1      29.230  17.320   5.009  1.00  0.00     0.166 HD
HETATM   15  C   UNK N   1      27.729  19.696   6.763  0.00  0.00     0.063 A 
HETATM   16  C   UNK N   1      28.175  19.329   8.037  0.00  0.00     0.021 A 
HETATM   17  C   UNK N   1      29.026  18.235   8.185  0.00  0.00     0.049 A 
BRANCH  15  18
HETATM   18  C   UNK N   1      26.782  20.843   6.573  0.00  0.00     0.418 C 
HETATM   19  F   UNK N   1      26.074  21.059   7.741  0.00  0.00    -0.166 F 
HETATM   20  F   UNK N   1      25.888  20.589   5.546  0.00  0.00    -0.166 F 
HETATM   21  F   UNK N   1      27.501  21.983   6.261  0.00  0.00    -0.166 F 
ENDBRANCH  15  18
ENDBRANCH   9  11
ENDBRANCH   4   7
BRANCH   1  22
HETATM   22  N   UNK N   1      34.277  15.792   9.066  0.00  0.00    -0.314 N 
HETATM   23  H   UNK N   1      33.288  15.544   9.009  0.00  0.00     0.172 HD
BRANCH  22  24
HETATM   24  S   UNK N   1      35.322  15.128  10.355  0.00  0.00     0.234 S 
HETATM   25  O   UNK N   1      36.050  16.359  10.914  0.00  0.00    -0.205 OA
HETATM   26  O   UNK N   1      34.321  14.918  11.502  0.00  0.00    -0.205 OA
BRANCH  24  27
HETATM   27  C   UNK N   1      36.454  13.685  10.332  0.00  0.00     0.072 C 
HETATM   28  C   UNK N   1      37.766  14.120   9.710  0.00  0.00     0.033 C 
HETATM   29  C   UNK N   1      35.922  12.544   9.493  0.00  0.00     0.033 C 
HETATM   30  C   UNK N   1      36.720  13.210  11.744  0.00  0.00     0.033 C 
ENDBRANCH  24  27
ENDBRANCH  22  24
ENDBRANCH   1  22
TORSDOF 6
ENDMDL
MODEL 5
REMARK VINA RESULT:      -6.8      7.523     10.524
REMARK  6 active torsions:
REMARK  status: ('A' for Active; 'I' for Inactive)
REMARK    1  A    between atoms: C_2  and  S_3 
REMARK    2  A    between atoms: S_3  and  N_6 
REMARK    3  A    between atoms: C_7  and  N_6 
REMARK    4  A    between atoms: C_10  and  C_13 
REMARK       I    between atoms: C_13  and  N_15 
REMARK    5  A    between atoms: N_15  and  C_16 
REMARK    6  A    between atoms: C_20  and  C_23 
ROOT
HETATM    1  C   UNK N   1      29.088  15.332   5.384  0.00  0.00     0.093 C 
HETATM    2  C   UNK N   1      27.571  15.283   5.656  0.00  0.00     0.026 C 
HETATM    3  C   UNK N   1      26.710  16.119   4.678  0.00  0.00     0.016 C 
HETATM    4  C   UNK N   1      27.415  17.394   4.186  0.00  0.00     0.078 C 
HETATM    5  C   UNK N   1      28.796  17.101   3.579  0.00  0.00     0.016 C 
HETATM    6  C   UNK N   1      29.337  15.711   3.926  0.00  0.00     0.026 C 
ENDROOT
BRANCH   4   7
HETATM    7  C   UNK N   1      27.447  18.445   5.275  0.00  0.00     0.227 C 
HETATM    8  O   UNK N   1      28.468  18.640   5.903  0.00  0.00    -0.273 OA
HETATM    9  N   UNK N   1      26.322  19.109   5.636  0.00  0.00    -0.313 N 
HETATM   10  H   UNK N   1      26.322  19.571   6.505  0.00  0.00     0.170 HD
BRANCH   9  11
HETATM   11  C   UNK N   1      25.152  19.180   4.849  0.00  0.00     0.107 A 
HETATM   12  N   UNK N   1      24.057  18.454   5.203  0.00  0.00    -0.351 N 
HETATM   13  C   UNK N   1      22.875  18.583   4.547  0.00  0.00     0.106 A 
ATOM     14  HN  UNK N   1      24.126  17.796   5.979  1.00  0.00     0.166 HD
HETATM   15  C   UNK N   1      22.738  19.514   3.511  0.00  0.00     0.063 A 
HETATM   16  C   UNK N   1      23.849  20.280   3.139  0.00  0.00     0.021 A 
HETATM   17  C   UNK N   1      25.062  20.110   3.804  0.00  0.00     0.049 A 
BRANCH  15  18
HETATM   18  C   UNK N   1      21.409  19.701   2.843  0.00  0.00     0.418 C 
HETATM   19  F   UNK N   1      21.550  20.545   1.756  0.00  0.00    -0.166 F 
HETATM   20  F   UNK N   1      20.482  20.244   3.717  0.00  0.00    -0.166 F 
HETATM   21  F   UNK N   1      20.939  18.475   2.407  0.00  0.00    -0.166 F 
ENDBRANCH  15  18
ENDBRANCH   9  11
ENDBRANCH   4   7
BRANCH   1  22
HETATM   22  N   UNK N   1      29.707  16.238   6.358  0.00  0.00    -0.314 N 
HETATM   23  H   UNK N   1      29.166  16.978   6.807  0.00  0.00     0.172 HD
BRANCH  22  24
HETATM   24  S   UNK N   1      31.440  16.005   6.732  0.00  0.00     0.234 S 
HETATM   25  O   UNK N   1      31.541  16.322   8.231  0.00  0.00    -0.205 OA
HETATM   26  O   UNK N   1      31.545  14.475   6.817  0.00  0.00    -0.205 OA
BRANCH  24  27
HETATM   27  C   UNK N   1      32.930  16.619   5.857  0.00  0.00     0.072 C 
HETATM   28  C   UNK N   1      32.478  17.476   4.692  0.00  0.00     0.033 C 
HETATM   29  C   UNK N   1      33.769  15.498   5.284  0.00  0.00     0.033 C 
HETATM   30  C   UNK N   1      33.767  17.468   6.789  0.00  0.00     0.033 C 
ENDBRANCH  24  27
ENDBRANCH  22  24
ENDBRANCH   1  22
TORSDOF 6
ENDMDL
MODEL 6
REMARK VINA RESULT:      -6.4      2.975      4.901
REMARK  6 active torsions:
REMARK  status: ('A' for Active; 'I' for Inactive)
REMARK    1  A    between atoms: C_2  and  S_3 
REMARK    2  A    between atoms: S_3  and  N_6 
REMARK    3  A    between atoms: C_7  and  N_6 
REMARK    4  A    between atoms: C_10  and  C_13 
REMARK       I    between atoms: C_13  and  N_15 
REMARK    5  A    between atoms: N_15  and  C_16 
REMARK    6  A    between atoms: C_20  and  C_23 
ROOT
HETATM    1  C   UNK N   1      36.563  13.217  10.139  0.00  0.00     0.093 C 
HETATM    2  C   UNK N   1      36.387  13.836  11.541  0.00  0.00     0.026 C 
HETATM    3  C   UNK N   1      35.031  14.547  11.769  0.00  0.00     0.016 C 
HETATM    4  C   UNK N   1      34.474  15.215  10.501  0.00  0.00     0.078 C 
HETATM    5  C   UNK N   1      34.382  14.239   9.319  0.00  0.00     0.016 C 
HETATM    6  C   UNK N   1      35.192  12.955   9.517  0.00  0.00     0.026 C 
ENDROOT
BRANCH   4   7
HETATM    7  C   UNK N   1      35.240  16.479  10.179  0.00  0.00     0.227 C 
HETATM    8  O   UNK N   1      36.335  16.670  10.670  0.00  0.00    -0.273 OA
HETATM    9  N   UNK N   1      34.684  17.460   9.426  0.00  0.00    -0.313 N 
HETATM   10  H   UNK N   1      35.092  18.355   9.465  0.00  0.00     0.170 HD
BRANCH   9  11
HETATM   11  C   UNK N   1      33.558  17.282   8.592  0.00  0.00     0.107 A 
HETATM   12  N   UNK N   1      32.313  17.247   9.140  0.00  0.00    -0.351 N 
HETATM   13  C   UNK N   1      31.197  17.198   8.367  0.00  0.00     0.106 A 
ATOM     14  HN  UNK N   1      32.215  17.257  10.155  1.00  0.00     0.166 HD
HETATM   15  C   UNK N   1      31.300  17.235   6.972  0.00  0.00     0.063 A 
HETATM   16  C   UNK N   1      32.571  17.284   6.388  0.00  0.00     0.021 A 
HETATM   17  C   UNK N   1      33.705  17.300   7.198  0.00  0.00     0.049 A 
BRANCH  15  18
HETATM   18  C   UNK N   1      30.060  17.256   6.130  0.00  0.00     0.418 C 
HETATM   19  F   UNK N   1      29.177  18.198   6.626  0.00  0.00    -0.166 F 
HETATM   20  F   UNK N   1      29.439  16.017   6.124  0.00  0.00    -0.166 F 
HETATM   21  F   UNK N   1      30.394  17.587   4.829  0.00  0.00    -0.166 F 
ENDBRANCH  15  18
ENDBRANCH   9  11
ENDBRANCH   4   7
BRANCH   1  22
HETATM   22  N   UNK N   1      37.427  14.097   9.345  0.00  0.00    -0.314 N 
HETATM   23  H   UNK N   1      37.708  15.014   9.695  0.00  0.00     0.172 HD
BRANCH  22  24
HETATM   24  S   UNK N   1      37.972  13.513   7.746  0.00  0.00     0.234 S 
HETATM   25  O   UNK N   1      39.388  14.090   7.603  0.00  0.00    -0.205 OA
HETATM   26  O   UNK N   1      38.351  12.056   8.051  0.00  0.00    -0.205 OA
BRANCH  24  27
HETATM   27  C   UNK N   1      37.116  13.539   6.125  0.00  0.00     0.072 C 
HETATM   28  C   UNK N   1      36.368  12.231   5.960  0.00  0.00     0.033 C 
HETATM   29  C   UNK N   1      38.079  13.648   4.962  0.00  0.00     0.033 C 
HETATM   30  C   UNK N   1      36.120  14.677   6.080  0.00  0.00     0.033 C 
ENDBRANCH  24  27
ENDBRANCH  22  24
ENDBRANCH   1  22
TORSDOF 6
ENDMDL
MODEL 7
REMARK VINA RESULT:      -6.3     16.163     19.435
REMARK  6 active torsions:
REMARK  status: ('A' for Active; 'I' for Inactive)
REMARK    1  A    between atoms: C_2  and  S_3 
REMARK    2  A    between atoms: S_3  and  N_6 
REMARK    3  A    between atoms: C_7  and  N_6 
REMARK    4  A    between atoms: C_10  and  C_13 
REMARK       I    between atoms: C_13  and  N_15 
REMARK    5  A    between atoms: N_15  and  C_16 
REMARK    6  A    between atoms: C_20  and  C_23 
ROOT
HETATM    1  C   UNK N   1      29.127  25.415  -5.715  0.00  0.00     0.093 C 
HETATM    2  C   UNK N   1      29.695  26.092  -4.451  0.00  0.00     0.026 C 
HETATM    3  C   UNK N   1      31.004  25.467  -3.914  0.00  0.00     0.016 C 
HETATM    4  C   UNK N   1      31.091  23.948  -4.140  0.00  0.00     0.078 C 
HETATM    5  C   UNK N   1      30.870  23.564  -5.611  0.00  0.00     0.016 C 
HETATM    6  C   UNK N   1      30.247  24.682  -6.452  0.00  0.00     0.026 C 
ENDROOT
BRANCH   4   7
HETATM    7  C   UNK N   1      30.182  23.210  -3.182  0.00  0.00     0.227 C 
HETATM    8  O   UNK N   1      29.128  23.706  -2.837  0.00  0.00    -0.273 OA
HETATM    9  N   UNK N   1      30.568  22.040  -2.615  0.00  0.00    -0.313 N 
HETATM   10  H   UNK N   1      30.085  21.738  -1.814  0.00  0.00     0.170 HD
BRANCH   9  11
HETATM   11  C   UNK N   1      31.618  21.229  -3.100  0.00  0.00     0.107 A 
HETATM   12  N   UNK N   1      31.373  20.331  -4.092  0.00  0.00    -0.351 N 
HETATM   13  C   UNK N   1      32.375  19.618  -4.670  0.00  0.00     0.106 A 
ATOM     14  HN  UNK N   1      30.414  20.189  -4.409  1.00  0.00     0.166 HD
HETATM   15  C   UNK N   1      33.705  19.830  -4.289  0.00  0.00     0.063 A 
HETATM   16  C   UNK N   1      33.980  20.758  -3.279  0.00  0.00     0.021 A 
HETATM   17  C   UNK N   1      32.935  21.456  -2.676  0.00  0.00     0.049 A 
BRANCH  15  18
HETATM   18  C   UNK N   1      34.809  19.091  -4.984  0.00  0.00     0.418 C 
HETATM   19  F   UNK N   1      34.992  17.857  -4.386  0.00  0.00    -0.166 F 
HETATM   20  F   UNK N   1      35.998  19.799  -4.927  0.00  0.00    -0.166 F 
HETATM   21  F   UNK N   1      34.470  18.905  -6.313  0.00  0.00    -0.166 F 
ENDBRANCH  15  18
ENDBRANCH   9  11
ENDBRANCH   4   7
BRANCH   1  22
HETATM   22  N   UNK N   1      28.003  24.560  -5.322  0.00  0.00    -0.314 N 
HETATM   23  H   UNK N   1      28.131  23.559  -5.169  0.00  0.00     0.172 HD
BRANCH  22  24
HETATM   24  S   UNK N   1      26.401  25.327  -5.120  0.00  0.00     0.234 S 
HETATM   25  O   UNK N   1      25.503  24.579  -6.115  0.00  0.00    -0.205 OA
HETATM   26  O   UNK N   1      25.895  24.674  -3.824  0.00  0.00    -0.205 OA
BRANCH  24  27
HETATM   27  C   UNK N   1      25.939  27.101  -5.067  0.00  0.00     0.072 C 
HETATM   28  C   UNK N   1      24.520  27.238  -5.584  0.00  0.00     0.033 C 
HETATM   29  C   UNK N   1      26.818  27.956  -5.953  0.00  0.00     0.033 C 
HETATM   30  C   UNK N   1      25.988  27.609  -3.643  0.00  0.00     0.033 C 
ENDBRANCH  24  27
ENDBRANCH  22  24
ENDBRANCH   1  22
TORSDOF 6
ENDMDL
MODEL 8
REMARK VINA RESULT:      -6.3      5.269      8.709
REMARK  6 active torsions:
REMARK  status: ('A' for Active; 'I' for Inactive)
REMARK    1  A    between atoms: C_2  and  S_3 
REMARK    2  A    between atoms: S_3  and  N_6 
REMARK    3  A    between atoms: C_7  and  N_6 
REMARK    4  A    between atoms: C_10  and  C_13 
REMARK       I    between atoms: C_13  and  N_15 
REMARK    5  A    between atoms: N_15  and  C_16 
REMARK    6  A    between atoms: C_20  and  C_23 
ROOT
HETATM    1  C   UNK N   1      35.061  14.769   7.880  0.00  0.00     0.093 C 
HETATM    2  C   UNK N   1      36.477  14.159   7.929  0.00  0.00     0.026 C 
HETATM    3  C   UNK N   1      36.698  13.124   9.058  0.00  0.00     0.016 C 
HETATM    4  C   UNK N   1      35.893  13.432  10.332  0.00  0.00     0.078 C 
HETATM    5  C   UNK N   1      34.394  13.612  10.046  0.00  0.00     0.016 C 
HETATM    6  C   UNK N   1      34.072  13.827   8.564  0.00  0.00     0.026 C 
ENDROOT
BRANCH   4   7
HETATM    7  C   UNK N   1      36.505  14.592  11.086  0.00  0.00     0.227 C 
HETATM    8  O   UNK N   1      36.713  15.646  10.519  0.00  0.00    -0.273 OA
HETATM    9  N   UNK N   1      36.924  14.448  12.367  0.00  0.00    -0.313 N 
HETATM   10  H   UNK N   1      37.547  15.120  12.724  0.00  0.00     0.170 HD
BRANCH   9  11
HETATM   11  C   UNK N   1      36.526  13.396  13.221  0.00  0.00     0.107 A 
HETATM   12  N   UNK N   1      37.411  12.409  13.532  0.00  0.00    -0.351 N 
HETATM   13  C   UNK N   1      37.112  11.445  14.441  0.00  0.00     0.106 A 
ATOM     14  HN  UNK N   1      38.320  12.392  13.070  1.00  0.00     0.166 HD
HETATM   15  C   UNK N   1      35.892  11.474  15.126  0.00  0.00     0.063 A 
HETATM   16  C   UNK N   1      34.973  12.487  14.831  0.00  0.00     0.021 A 
HETATM   17  C   UNK N   1      35.285  13.448  13.871  0.00  0.00     0.049 A 
BRANCH  15  18
HETATM   18  C   UNK N   1      35.602  10.448  16.181  0.00  0.00     0.418 C 
HETATM   19  F   UNK N   1      34.847  11.019  17.190  0.00  0.00    -0.166 F 
HETATM   20  F   UNK N   1      36.774   9.946  16.725  0.00  0.00    -0.166 F 
HETATM   21  F   UNK N   1      34.892   9.401  15.620  0.00  0.00    -0.166 F 
ENDBRANCH  15  18
ENDBRANCH   9  11
ENDBRANCH   4   7
BRANCH   1  22
HETATM   22  N   UNK N   1      35.113  16.115   8.460  0.00  0.00    -0.314 N 
HETATM   23  H   UNK N   1      35.814  16.359   9.161  0.00  0.00     0.172 HD
BRANCH  22  24
HETATM   24  S   UNK N   1      33.911  17.312   7.900  0.00  0.00     0.234 S 
HETATM   25  O   UNK N   1      34.391  18.636   8.514  0.00  0.00    -0.205 OA
HETATM   26  O   UNK N   1      34.357  17.560   6.451  0.00  0.00    -0.205 OA
BRANCH  24  27
HETATM   27  C   UNK N   1      32.078  17.243   7.914  0.00  0.00     0.072 C 
HETATM   28  C   UNK N   1      31.594  17.170   6.480  0.00  0.00     0.033 C 
HETATM   29  C   UNK N   1      31.456  18.477   8.529  0.00  0.00     0.033 C 
HETATM   30  C   UNK N   1      31.611  16.005   8.648  0.00  0.00     0.033 C 
ENDBRANCH  24  27
ENDBRANCH  22  24
ENDBRANCH   1  22
TORSDOF 6
ENDMDL
MODEL 9
REMARK VINA RESULT:      -6.3      2.702      3.913
REMARK  6 active torsions:
REMARK  status: ('A' for Active; 'I' for Inactive)
REMARK    1  A    between atoms: C_2  and  S_3 
REMARK    2  A    between atoms: S_3  and  N_6 
REMARK    3  A    between atoms: C_7  and  N_6 
REMARK    4  A    between atoms: C_10  and  C_13 
REMARK       I    between atoms: C_13  and  N_15 
REMARK    5  A    between atoms: N_15  and  C_16 
REMARK    6  A    between atoms: C_20  and  C_23 
ROOT
HETATM    1  C   UNK N   1      36.661  12.135  14.947  0.00  0.00     0.093 C 
HETATM    2  C   UNK N   1      36.668  13.664  14.745  0.00  0.00     0.026 C 
HETATM    3  C   UNK N   1      35.792  14.165  13.571  0.00  0.00     0.016 C 
HETATM    4  C   UNK N   1      35.736  13.182  12.391  0.00  0.00     0.078 C 
HETATM    5  C   UNK N   1      35.306  11.772  12.825  0.00  0.00     0.016 C 
HETATM    6  C   UNK N   1      35.393  11.541  14.336  0.00  0.00     0.026 C 
ENDROOT
BRANCH   4   7
HETATM    7  C   UNK N   1      37.034  13.201  11.613  0.00  0.00     0.227 C 
HETATM    8  O   UNK N   1      37.905  12.391  11.860  0.00  0.00    -0.273 OA
HETATM    9  N   UNK N   1      37.290  14.177  10.707  0.00  0.00    -0.313 N 
HETATM   10  H   UNK N   1      38.224  14.311  10.429  0.00  0.00     0.170 HD
BRANCH   9  11
HETATM   11  C   UNK N   1      36.304  15.012  10.137  0.00  0.00     0.107 A 
HETATM   12  N   UNK N   1      36.041  16.223  10.699  0.00  0.00    -0.351 N 
HETATM   13  C   UNK N   1      35.189  17.108  10.117  0.00  0.00     0.106 A 
ATOM     14  HN  UNK N   1      36.492  16.473  11.579  1.00  0.00     0.166 HD
HETATM   15  C   UNK N   1      34.595  16.812   8.885  0.00  0.00     0.063 A 
HETATM   16  C   UNK N   1      34.862  15.577   8.284  0.00  0.00     0.021 A 
HETATM   17  C   UNK N   1      35.713  14.670   8.913  0.00  0.00     0.049 A 
BRANCH  15  18
HETATM   18  C   UNK N   1      33.715  17.825   8.216  0.00  0.00     0.418 C 
HETATM   19  F   UNK N   1      32.487  17.865   8.850  0.00  0.00    -0.166 F 
HETATM   20  F   UNK N   1      33.522  17.515   6.880  0.00  0.00    -0.166 F 
HETATM   21  F   UNK N   1      34.309  19.073   8.298  0.00  0.00    -0.166 F 
ENDBRANCH  15  18
ENDBRANCH   9  11
ENDBRANCH   4   7
BRANCH   1  22
HETATM   22  N   UNK N   1      37.908  11.587  14.402  0.00  0.00    -0.314 N 
HETATM   23  H   UNK N   1      38.604  12.194  13.968  0.00  0.00     0.172 HD
BRANCH  22  24
HETATM   24  S   UNK N   1      38.168   9.823  14.524  0.00  0.00     0.234 S 
HETATM   25  O   UNK N   1      39.671   9.689  14.813  0.00  0.00    -0.205 OA
HETATM   26  O   UNK N   1      37.638   9.517  15.932  0.00  0.00    -0.205 OA
BRANCH  24  27
HETATM   27  C   UNK N   1      37.620   8.469  13.415  0.00  0.00     0.072 C 
HETATM   28  C   UNK N   1      37.645   8.981  11.989  0.00  0.00     0.033 C 
HETATM   29  C   UNK N   1      36.202   8.024  13.701  0.00  0.00     0.033 C 
HETATM   30  C   UNK N   1      38.564   7.292  13.525  0.00  0.00     0.033 C 
ENDBRANCH  24  27
ENDBRANCH  22  24
ENDBRANCH   1  22
TORSDOF 6
ENDMDL
