MODEL 1
REMARK VINA RESULT:      -8.8      0.000      0.000
REMARK  8 active torsions:
REMARK  status: ('A' for Active; 'I' for Inactive)
REMARK    1  A    between atoms: C_2  and  C_5 
REMARK    2  A    between atoms: C_7  and  N_11 
REMARK       I    between atoms: N_11  and  C_12 
REMARK       I    between atoms: C_12  and  N_14 
REMARK    3  A    between atoms: N_14  and  C_15 
REMARK    4  A    between atoms: C_18  and  C_21 
REMARK    5  A    between atoms: C_27  and  O_30 
REMARK    6  A    between atoms: O_30  and  C_31 
REMARK    7  A    between atoms: C_31  and  C_32 
REMARK    8  A    between atoms: C_32  and  N_33 
ROOT
HETATM    1  C   UNK N   1      33.332  17.770   7.301  0.00  0.00     0.036 A 
HETATM    2  C   UNK N   1      33.688  17.415   5.997  0.00  0.00     0.030 A 
HETATM    3  C   UNK N   1      32.699  16.955   5.116  0.00  0.00     0.012 A 
HETATM    4  C   UNK N   1      31.379  16.784   5.568  0.00  0.00    -0.030 A 
HETATM    5  C   UNK N   1      31.052  17.143   6.875  0.00  0.00     0.012 A 
HETATM    6  C   UNK N   1      32.005  17.635   7.714  0.00  0.00     0.030 A 
ENDROOT
BRANCH   4   7
HETATM    7  C   UNK N   1      30.266  16.788   4.629  0.00  0.00     0.156 A 
HETATM    8  C   UNK N   1      29.406  15.675   4.651  0.00  0.00     0.102 A 
HETATM    9  N   UNK N   1      28.184  16.178   4.735  0.00  0.00    -0.303 N 
HETATM   10  C   UNK N   1      26.943  15.723   5.036  0.00  0.00     0.058 A 
HETATM   11  C   UNK N   1      28.285  17.494   4.663  0.00  0.00     0.152 A 
HETATM   12  C   UNK N   1      26.031  16.764   5.257  0.00  0.00     0.038 A 
HETATM   13  C   UNK N   1      26.580  14.394   5.234  0.00  0.00     0.034 A 
HETATM   14  C   UNK N   1      24.748  16.527   5.687  0.00  0.00     0.058 A 
HETATM   15  S   UNK N   1      26.838  18.208   4.994  0.00  0.00    -0.052 SA
HETATM   16  C   UNK N   1      24.341  15.194   5.833  0.00  0.00     0.070 A 
HETATM   17  C   UNK N   1      25.251  14.128   5.602  0.00  0.00     0.039 A 
HETATM   18  N   UNK N   1      29.536  17.936   4.577  0.00  0.00    -0.357 N 
ATOM     19  HN  UNK N   1      29.868  18.897   4.494  1.00  0.00     0.162 HD
BRANCH  16  20
HETATM   20  O   UNK N   1      23.041  14.956   6.075  0.00  0.00    -0.349 OA
BRANCH  20  21
HETATM   21  C   UNK N   1      22.646  13.892   6.859  0.00  0.00     0.206 C 
BRANCH  21  22
HETATM   22  C   UNK N   1      21.862  14.371   8.102  0.00  0.00     0.299 C 
BRANCH  22  23
HETATM   23  N   UNK N   1      22.417  13.813   9.334  0.00  0.00     0.094 N 
HETATM   24  C   UNK N   1      21.438  12.904   9.932  0.00  0.00     0.298 C 
HETATM   25  C   UNK N   1      22.048  12.311  11.206  0.00  0.00     0.198 C 
HETATM   26  O   UNK N   1      23.181  11.551  10.863  0.00  0.00    -0.388 OA
HETATM   27  C   UNK N   1      24.146  12.442  10.349  0.00  0.00     0.198 C 
HETATM   28  C   UNK N   1      23.637  13.066   9.042  0.00  0.00     0.298 C 
ENDBRANCH  22  23
ENDBRANCH  21  22
ENDBRANCH  20  21
ENDBRANCH  16  20
ENDBRANCH   4   7
BRANCH   1  29
HETATM   29  N   UNK N   1      34.312  18.195   8.235  0.00  0.00    -0.309 N 
HETATM   30  C   UNK N   1      34.714  17.356   9.224  0.00  0.00     0.326 C 
HETATM   31  N   UNK N   1      34.288  16.062   9.210  0.00  0.00    -0.293 N 
HETATM   32  O   UNK N   1      35.448  17.768  10.108  0.00  0.00    -0.247 OA
HETATM   33  H   UNK N   1      33.704  15.799   8.462  0.00  0.00     0.172 HD
HETATM   34  H   UNK N   1      34.699  19.097   8.166  0.00  0.00     0.170 HD
BRANCH  31  35
HETATM   35  C   UNK N   1      34.593  15.070  10.145  0.00  0.00     0.132 A 
HETATM   36  C   UNK N   1      35.634  14.194  10.067  0.00  0.00     0.086 A 
HETATM   37  C   UNK N   1      35.570  13.536  11.271  0.00  0.00     0.087 A 
HETATM   38  O   UNK N   1      34.562  14.007  11.974  0.00  0.00    -0.240 OA
HETATM   39  N   UNK N   1      33.943  14.936  11.313  0.00  0.00    -0.245 N 
ATOM     40  HN  UNK N   1      33.125  15.462  11.621  1.00  0.00     0.196 HD
BRANCH  37  41
HETATM   41  C   UNK N   1      36.543  12.513  11.746  0.00  0.00     0.000 C 
HETATM   42  C   UNK N   1      36.026  11.127  11.428  0.00  0.00     0.021 C 
HETATM   43  C   UNK N   1      36.704  12.672  13.243  0.00  0.00     0.021 C 
HETATM   44  C   UNK N   1      37.903  12.696  11.087  0.00  0.00     0.021 C 
ENDBRANCH  37  41
ENDBRANCH  31  35
ENDBRANCH   1  29
TORSDOF 8
ENDMDL
MODEL 2
REMARK VINA RESULT:      -8.8      2.619      4.319
REMARK  8 active torsions:
REMARK  status: ('A' for Active; 'I' for Inactive)
REMARK    1  A    between atoms: C_2  and  C_5 
REMARK    2  A    between atoms: C_7  and  N_11 
REMARK       I    between atoms: N_11  and  C_12 
REMARK       I    between atoms: C_12  and  N_14 
REMARK    3  A    between atoms: N_14  and  C_15 
REMARK    4  A    between atoms: C_18  and  C_21 
REMARK    5  A    between atoms: C_27  and  O_30 
REMARK    6  A    between atoms: O_30  and  C_31 
REMARK    7  A    between atoms: C_31  and  C_32 
REMARK    8  A    between atoms: C_32  and  N_33 
ROOT
HETATM    1  C   UNK N   1      33.497  17.652   7.888  0.00  0.00     0.036 A 
HETATM    2  C   UNK N   1      32.162  17.700   8.299  0.00  0.00     0.030 A 
HETATM    3  C   UNK N   1      31.145  17.495   7.357  0.00  0.00     0.012 A 
HETATM    4  C   UNK N   1      31.468  17.318   6.001  0.00  0.00    -0.030 A 
HETATM    5  C   UNK N   1      32.808  17.278   5.617  0.00  0.00     0.012 A 
HETATM    6  C   UNK N   1      33.796  17.429   6.541  0.00  0.00     0.030 A 
ENDROOT
BRANCH   4   7
HETATM    7  C   UNK N   1      30.547  16.642   5.099  0.00  0.00     0.156 A 
HETATM    8  C   UNK N   1      29.528  15.869   5.685  0.00  0.00     0.102 A 
HETATM    9  N   UNK N   1      28.407  16.271   5.107  0.00  0.00    -0.303 N 
HETATM   10  C   UNK N   1      27.075  16.155   5.337  0.00  0.00     0.058 A 
HETATM   11  C   UNK N   1      28.728  17.142   4.167  0.00  0.00     0.152 A 
HETATM   12  C   UNK N   1      26.319  17.034   4.550  0.00  0.00     0.038 A 
HETATM   13  C   UNK N   1      26.475  15.361   6.309  0.00  0.00     0.034 A 
HETATM   14  C   UNK N   1      24.959  17.163   4.706  0.00  0.00     0.058 A 
HETATM   15  S   UNK N   1      27.380  17.866   3.557  0.00  0.00    -0.052 SA
HETATM   16  C   UNK N   1      24.325  16.329   5.636  0.00  0.00     0.070 A 
HETATM   17  C   UNK N   1      25.078  15.426   6.433  0.00  0.00     0.039 A 
HETATM   18  N   UNK N   1      30.031  17.403   4.095  0.00  0.00    -0.357 N 
ATOM     19  HN  UNK N   1      30.522  18.020   3.448  1.00  0.00     0.162 HD
BRANCH  16  20
HETATM   20  O   UNK N   1      22.981  16.323   5.661  0.00  0.00    -0.349 OA
BRANCH  20  21
HETATM   21  C   UNK N   1      22.262  17.495   5.541  0.00  0.00     0.206 C 
BRANCH  21  22
HETATM   22  C   UNK N   1      21.214  17.397   4.410  0.00  0.00     0.299 C 
BRANCH  22  23
HETATM   23  N   UNK N   1      21.479  18.366   3.348  0.00  0.00     0.094 N 
HETATM   24  C   UNK N   1      20.237  19.065   3.015  0.00  0.00     0.298 C 
HETATM   25  C   UNK N   1      20.542  20.092   1.920  0.00  0.00     0.198 C 
HETATM   26  O   UNK N   1      21.446  21.046   2.423  0.00  0.00    -0.388 OA
HETATM   27  C   UNK N   1      22.662  20.379   2.680  0.00  0.00     0.198 C 
HETATM   28  C   UNK N   1      22.466  19.345   3.797  0.00  0.00     0.298 C 
ENDBRANCH  22  23
ENDBRANCH  21  22
ENDBRANCH  20  21
ENDBRANCH  16  20
ENDBRANCH   4   7
BRANCH   1  29
HETATM   29  N   UNK N   1      34.553  17.901   8.802  0.00  0.00    -0.309 N 
HETATM   30  C   UNK N   1      34.920  16.943   9.692  0.00  0.00     0.326 C 
HETATM   31  N   UNK N   1      34.376  15.698   9.587  0.00  0.00    -0.293 N 
HETATM   32  O   UNK N   1      35.729  17.206  10.567  0.00  0.00    -0.247 OA
HETATM   33  H   UNK N   1      33.737  15.557   8.852  0.00  0.00     0.172 HD
HETATM   34  H   UNK N   1      35.018  18.769   8.792  0.00  0.00     0.170 HD
BRANCH  31  35
HETATM   35  C   UNK N   1      34.630  14.601  10.414  0.00  0.00     0.132 A 
HETATM   36  C   UNK N   1      35.405  13.526  10.097  0.00  0.00     0.086 A 
HETATM   37  C   UNK N   1      35.440  12.817  11.273  0.00  0.00     0.087 A 
HETATM   38  O   UNK N   1      34.731  13.448  12.185  0.00  0.00    -0.240 OA
HETATM   39  N   UNK N   1      34.219  14.534  11.692  0.00  0.00    -0.245 N 
ATOM     40  HN  UNK N   1      33.624  15.203  12.178  1.00  0.00     0.196 HD
BRANCH  37  41
HETATM   41  C   UNK N   1      36.229  11.576  11.507  0.00  0.00     0.000 C 
HETATM   42  C   UNK N   1      35.544  10.721  12.551  0.00  0.00     0.021 C 
HETATM   43  C   UNK N   1      37.607  11.976  11.993  0.00  0.00     0.021 C 
HETATM   44  C   UNK N   1      36.379  10.766  10.227  0.00  0.00     0.021 C 
ENDBRANCH  37  41
ENDBRANCH  31  35
ENDBRANCH   1  29
TORSDOF 8
ENDMDL
MODEL 3
REMARK VINA RESULT:      -8.8      3.525      5.270
REMARK  8 active torsions:
REMARK  status: ('A' for Active; 'I' for Inactive)
REMARK    1  A    between atoms: C_2  and  C_5 
REMARK    2  A    between atoms: C_7  and  N_11 
REMARK       I    between atoms: N_11  and  C_12 
REMARK       I    between atoms: C_12  and  N_14 
REMARK    3  A    between atoms: N_14  and  C_15 
REMARK    4  A    between atoms: C_18  and  C_21 
REMARK    5  A    between atoms: C_27  and  O_30 
REMARK    6  A    between atoms: O_30  and  C_31 
REMARK    7  A    between atoms: C_31  and  C_32 
REMARK    8  A    between atoms: C_32  and  N_33 
ROOT
HETATM    1  C   UNK N   1      35.428  14.909   9.178  0.00  0.00     0.036 A 
HETATM    2  C   UNK N   1      34.362  14.336   8.479  0.00  0.00     0.030 A 
HETATM    3  C   UNK N   1      33.204  15.092   8.250  0.00  0.00     0.012 A 
HETATM    4  C   UNK N   1      33.092  16.387   8.786  0.00  0.00    -0.030 A 
HETATM    5  C   UNK N   1      34.169  16.933   9.483  0.00  0.00     0.012 A 
HETATM    6  C   UNK N   1      35.311  16.215   9.662  0.00  0.00     0.030 A 
ENDROOT
BRANCH   4   7
HETATM    7  C   UNK N   1      32.179  17.357   8.200  0.00  0.00     0.156 A 
HETATM    8  C   UNK N   1      31.643  17.052   6.937  0.00  0.00     0.102 A 
HETATM    9  N   UNK N   1      30.335  17.218   7.061  0.00  0.00    -0.303 N 
HETATM   10  C   UNK N   1      29.222  16.881   6.364  0.00  0.00     0.058 A 
HETATM   11  C   UNK N   1      30.103  17.691   8.273  0.00  0.00     0.152 A 
HETATM   12  C   UNK N   1      28.049  17.063   7.109  0.00  0.00     0.038 A 
HETATM   13  C   UNK N   1      29.188  16.305   5.097  0.00  0.00     0.034 A 
HETATM   14  C   UNK N   1      26.819  16.675   6.635  0.00  0.00     0.058 A 
HETATM   15  S   UNK N   1      28.487  17.705   8.593  0.00  0.00    -0.052 SA
HETATM   16  C   UNK N   1      26.753  16.150   5.338  0.00  0.00     0.070 A 
HETATM   17  C   UNK N   1      27.932  15.970   4.567  0.00  0.00     0.039 A 
HETATM   18  N   UNK N   1      31.195  17.819   9.021  0.00  0.00    -0.357 N 
ATOM     19  HN  UNK N   1      31.276  18.174   9.974  1.00  0.00     0.162 HD
BRANCH  16  20
HETATM   20  O   UNK N   1      25.536  15.941   4.806  0.00  0.00    -0.349 OA
BRANCH  20  21
HETATM   21  C   UNK N   1      24.504  16.833   5.016  0.00  0.00     0.206 C 
BRANCH  21  22
HETATM   22  C   UNK N   1      24.698  18.121   4.184  0.00  0.00     0.299 C 
BRANCH  22  23
HETATM   23  N   UNK N   1      23.442  18.568   3.586  0.00  0.00     0.094 N 
HETATM   24  C   UNK N   1      22.356  18.368   4.547  0.00  0.00     0.298 C 
HETATM   25  C   UNK N   1      21.054  18.865   3.911  0.00  0.00     0.198 C 
HETATM   26  O   UNK N   1      21.159  20.248   3.670  0.00  0.00    -0.388 OA
HETATM   27  C   UNK N   1      22.162  20.429   2.695  0.00  0.00     0.198 C 
HETATM   28  C   UNK N   1      23.521  19.988   3.254  0.00  0.00     0.298 C 
ENDBRANCH  22  23
ENDBRANCH  21  22
ENDBRANCH  20  21
ENDBRANCH  16  20
ENDBRANCH   4   7
BRANCH   1  29
HETATM   29  N   UNK N   1      36.597  14.161   9.470  0.00  0.00    -0.309 N 
HETATM   30  C   UNK N   1      36.848  13.765  10.744  0.00  0.00     0.326 C 
HETATM   31  N   UNK N   1      35.893  13.955  11.697  0.00  0.00    -0.293 N 
HETATM   32  O   UNK N   1      37.918  13.246  11.018  0.00  0.00    -0.247 OA
HETATM   33  H   UNK N   1      35.052  14.372  11.401  0.00  0.00     0.172 HD
HETATM   34  H   UNK N   1      37.226  13.929   8.748  0.00  0.00     0.170 HD
BRANCH  31  35
HETATM   35  C   UNK N   1      35.983  13.619  13.050  0.00  0.00     0.132 A 
HETATM   36  C   UNK N   1      35.338  12.584  13.659  0.00  0.00     0.086 A 
HETATM   37  C   UNK N   1      35.859  12.606  14.931  0.00  0.00     0.087 A 
HETATM   38  O   UNK N   1      36.732  13.586  15.029  0.00  0.00    -0.240 OA
HETATM   39  N   UNK N   1      36.825  14.226  13.904  0.00  0.00    -0.245 N 
ATOM     40  HN  UNK N   1      37.420  15.030  13.706  1.00  0.00     0.196 HD
BRANCH  37  41
HETATM   41  C   UNK N   1      35.552  11.620  16.003  0.00  0.00     0.000 C 
HETATM   42  C   UNK N   1      36.709  10.655  16.159  0.00  0.00     0.021 C 
HETATM   43  C   UNK N   1      34.302  10.863  15.608  0.00  0.00     0.021 C 
HETATM   44  C   UNK N   1      35.304  12.311  17.337  0.00  0.00     0.021 C 
ENDBRANCH  37  41
ENDBRANCH  31  35
ENDBRANCH   1  29
TORSDOF 8
ENDMDL
MODEL 4
REMARK VINA RESULT:      -8.6      2.524      3.980
REMARK  8 active torsions:
REMARK  status: ('A' for Active; 'I' for Inactive)
REMARK    1  A    between atoms: C_2  and  C_5 
REMARK    2  A    between atoms: C_7  and  N_11 
REMARK       I    between atoms: N_11  and  C_12 
REMARK       I    between atoms: C_12  and  N_14 
REMARK    3  A    between atoms: N_14  and  C_15 
REMARK    4  A    between atoms: C_18  and  C_21 
REMARK    5  A    between atoms: C_27  and  O_30 
REMARK    6  A    between atoms: O_30  and  C_31 
REMARK    7  A    between atoms: C_31  and  C_32 
REMARK    8  A    between atoms: C_32  and  N_33 
ROOT
HETATM    1  C   UNK N   1      35.377  14.987   9.159  0.00  0.00     0.036 A 
HETATM    2  C   UNK N   1      34.258  14.346   8.621  0.00  0.00     0.030 A 
HETATM    3  C   UNK N   1      33.084  15.079   8.403  0.00  0.00     0.012 A 
HETATM    4  C   UNK N   1      33.015  16.428   8.793  0.00  0.00    -0.030 A 
HETATM    5  C   UNK N   1      34.145  17.043   9.331  0.00  0.00     0.012 A 
HETATM    6  C   UNK N   1      35.299  16.341   9.497  0.00  0.00     0.030 A 
ENDROOT
BRANCH   4   7
HETATM    7  C   UNK N   1      32.054  17.332   8.177  0.00  0.00     0.156 A 
HETATM    8  C   UNK N   1      31.488  16.929   6.954  0.00  0.00     0.102 A 
HETATM    9  N   UNK N   1      30.181  17.065   7.111  0.00  0.00    -0.303 N 
HETATM   10  C   UNK N   1      29.056  16.652   6.475  0.00  0.00     0.058 A 
HETATM   11  C   UNK N   1      29.972  17.610   8.297  0.00  0.00     0.152 A 
HETATM   12  C   UNK N   1      27.903  16.850   7.246  0.00  0.00     0.038 A 
HETATM   13  C   UNK N   1      29.000  15.993   5.251  0.00  0.00     0.034 A 
HETATM   14  C   UNK N   1      26.671  16.397   6.840  0.00  0.00     0.058 A 
HETATM   15  S   UNK N   1      28.368  17.600   8.670  0.00  0.00    -0.052 SA
HETATM   16  C   UNK N   1      26.580  15.786   5.583  0.00  0.00     0.070 A 
HETATM   17  C   UNK N   1      27.738  15.588   4.786  0.00  0.00     0.039 A 
HETATM   18  N   UNK N   1      31.084  17.818   8.998  0.00  0.00    -0.357 N 
ATOM     19  HN  UNK N   1      31.184  18.238   9.923  1.00  0.00     0.162 HD
BRANCH  16  20
HETATM   20  O   UNK N   1      25.354  15.507   5.107  0.00  0.00    -0.349 OA
BRANCH  20  21
HETATM   21  C   UNK N   1      24.341  15.090   5.947  0.00  0.00     0.206 C 
BRANCH  21  22
HETATM   22  C   UNK N   1      23.112  16.022   5.850  0.00  0.00     0.299 C 
BRANCH  22  23
HETATM   23  N   UNK N   1      22.218  15.851   6.994  0.00  0.00     0.094 N 
HETATM   24  C   UNK N   1      21.138  16.835   6.909  0.00  0.00     0.298 C 
HETATM   25  C   UNK N   1      20.200  16.622   8.101  0.00  0.00     0.198 C 
HETATM   26  O   UNK N   1      19.619  15.343   8.008  0.00  0.00    -0.388 OA
HETATM   27  C   UNK N   1      20.657  14.399   8.156  0.00  0.00     0.198 C 
HETATM   28  C   UNK N   1      21.638  14.511   6.981  0.00  0.00     0.298 C 
ENDBRANCH  22  23
ENDBRANCH  21  22
ENDBRANCH  20  21
ENDBRANCH  16  20
ENDBRANCH   4   7
BRANCH   1  29
HETATM   29  N   UNK N   1      36.568  14.268   9.438  0.00  0.00    -0.309 N 
HETATM   30  C   UNK N   1      36.827  13.850  10.703  0.00  0.00     0.326 C 
HETATM   31  N   UNK N   1      35.863  13.987  11.657  0.00  0.00    -0.293 N 
HETATM   32  O   UNK N   1      37.912  13.358  10.969  0.00  0.00    -0.247 OA
HETATM   33  H   UNK N   1      35.011  14.386  11.367  0.00  0.00     0.172 HD
HETATM   34  H   UNK N   1      37.206  14.074   8.714  0.00  0.00     0.170 HD
BRANCH  31  35
HETATM   35  C   UNK N   1      35.959  13.622  13.002  0.00  0.00     0.132 A 
HETATM   36  C   UNK N   1      35.288  12.597  13.599  0.00  0.00     0.086 A 
HETATM   37  C   UNK N   1      35.825  12.577  14.864  0.00  0.00     0.087 A 
HETATM   38  O   UNK N   1      36.730  13.526  14.969  0.00  0.00    -0.240 OA
HETATM   39  N   UNK N   1      36.831  14.185  13.856  0.00  0.00    -0.245 N 
ATOM     40  HN  UNK N   1      37.449  14.973  13.666  1.00  0.00     0.196 HD
BRANCH  37  41
HETATM   41  C   UNK N   1      35.500  11.580  15.921  0.00  0.00     0.000 C 
HETATM   42  C   UNK N   1      35.232  12.290  17.231  0.00  0.00     0.021 C 
HETATM   43  C   UNK N   1      36.683  10.648  16.073  0.00  0.00     0.021 C 
HETATM   44  C   UNK N   1      34.275  10.757  15.547  0.00  0.00     0.021 C 
ENDBRANCH  37  41
ENDBRANCH  31  35
ENDBRANCH   1  29
TORSDOF 8
ENDMDL
MODEL 5
REMARK VINA RESULT:      -8.6      2.204     10.542
REMARK  8 active torsions:
REMARK  status: ('A' for Active; 'I' for Inactive)
REMARK    1  A    between atoms: C_2  and  C_5 
REMARK    2  A    between atoms: C_7  and  N_11 
REMARK       I    between atoms: N_11  and  C_12 
REMARK       I    between atoms: C_12  and  N_14 
REMARK    3  A    between atoms: N_14  and  C_15 
REMARK    4  A    between atoms: C_18  and  C_21 
REMARK    5  A    between atoms: C_27  and  O_30 
REMARK    6  A    between atoms: O_30  and  C_31 
REMARK    7  A    between atoms: C_31  and  C_32 
REMARK    8  A    between atoms: C_32  and  N_33 
ROOT
HETATM    1  C   UNK N   1      26.656  17.668   4.645  0.00  0.00     0.036 A 
HETATM    2  C   UNK N   1      27.037  16.873   3.561  0.00  0.00     0.030 A 
HETATM    3  C   UNK N   1      28.394  16.579   3.366  0.00  0.00     0.012 A 
HETATM    4  C   UNK N   1      29.364  17.143   4.214  0.00  0.00    -0.030 A 
HETATM    5  C   UNK N   1      28.957  17.935   5.286  0.00  0.00     0.012 A 
HETATM    6  C   UNK N   1      27.635  18.180   5.501  0.00  0.00     0.030 A 
ENDROOT
BRANCH   4   7
HETATM    7  C   UNK N   1      30.669  16.518   4.368  0.00  0.00     0.156 A 
HETATM    8  C   UNK N   1      31.713  17.325   4.855  0.00  0.00     0.102 A 
HETATM    9  N   UNK N   1      32.250  16.641   5.853  0.00  0.00    -0.303 N 
HETATM   10  C   UNK N   1      33.087  16.890   6.890  0.00  0.00     0.058 A 
HETATM   11  C   UNK N   1      31.651  15.463   5.901  0.00  0.00     0.152 A 
HETATM   12  C   UNK N   1      33.100  15.849   7.828  0.00  0.00     0.038 A 
HETATM   13  C   UNK N   1      33.790  18.071   7.114  0.00  0.00     0.034 A 
HETATM   14  C   UNK N   1      33.791  15.947   9.012  0.00  0.00     0.058 A 
HETATM   15  S   UNK N   1      32.094  14.639   7.257  0.00  0.00    -0.052 SA
HETATM   16  C   UNK N   1      34.556  17.101   9.231  0.00  0.00     0.070 A 
HETATM   17  C   UNK N   1      34.561  18.158   8.284  0.00  0.00     0.039 A 
HETATM   18  N   UNK N   1      30.681  15.314   5.003  0.00  0.00    -0.357 N 
ATOM     19  HN  UNK N   1      30.091  14.499   4.832  1.00  0.00     0.162 HD
BRANCH  16  20
HETATM   20  O   UNK N   1      35.373  17.120  10.298  0.00  0.00    -0.349 OA
BRANCH  20  21
HETATM   21  C   UNK N   1      36.079  15.995  10.675  0.00  0.00     0.206 C 
BRANCH  21  22
HETATM   22  C   UNK N   1      35.652  15.510  12.079  0.00  0.00     0.299 C 
BRANCH  22  23
HETATM   23  N   UNK N   1      36.449  14.366  12.516  0.00  0.00     0.094 N 
HETATM   24  C   UNK N   1      35.698  13.614  13.522  0.00  0.00     0.298 C 
HETATM   25  C   UNK N   1      36.540  12.407  13.947  0.00  0.00     0.198 C 
HETATM   26  O   UNK N   1      36.727  11.562  12.838  0.00  0.00    -0.388 OA
HETATM   27  C   UNK N   1      37.507  12.269  11.899  0.00  0.00     0.198 C 
HETATM   28  C   UNK N   1      36.730  13.488  11.383  0.00  0.00     0.298 C 
ENDBRANCH  22  23
ENDBRANCH  21  22
ENDBRANCH  20  21
ENDBRANCH  16  20
ENDBRANCH   4   7
BRANCH   1  29
HETATM   29  N   UNK N   1      25.299  18.026   4.848  0.00  0.00    -0.309 N 
HETATM   30  C   UNK N   1      24.456  17.164   5.473  0.00  0.00     0.326 C 
HETATM   31  N   UNK N   1      24.964  16.034   6.039  0.00  0.00    -0.293 N 
HETATM   32  O   UNK N   1      23.262  17.411   5.521  0.00  0.00    -0.247 OA
HETATM   33  H   UNK N   1      25.938  15.904   5.968  0.00  0.00     0.172 HD
HETATM   34  H   UNK N   1      24.968  18.899   4.534  0.00  0.00     0.170 HD
BRANCH  31  35
HETATM   35  C   UNK N   1      24.249  15.039   6.711  0.00  0.00     0.132 A 
HETATM   36  C   UNK N   1      24.744  14.213   7.674  0.00  0.00     0.086 A 
HETATM   37  C   UNK N   1      23.628  13.531   8.095  0.00  0.00     0.087 A 
HETATM   38  O   UNK N   1      22.581  13.943   7.413  0.00  0.00    -0.240 OA
HETATM   39  N   UNK N   1      22.926  14.856   6.558  0.00  0.00    -0.245 N 
ATOM     40  HN  UNK N   1      22.314  15.339   5.900  1.00  0.00     0.196 HD
BRANCH  37  41
HETATM   41  C   UNK N   1      23.592  12.545   9.210  0.00  0.00     0.000 C 
HETATM   42  C   UNK N   1      24.803  12.731  10.099  0.00  0.00     0.021 C 
HETATM   43  C   UNK N   1      23.603  11.153   8.613  0.00  0.00     0.021 C 
HETATM   44  C   UNK N   1      22.333  12.706  10.051  0.00  0.00     0.021 C 
ENDBRANCH  37  41
ENDBRANCH  31  35
ENDBRANCH   1  29
TORSDOF 8
ENDMDL
MODEL 6
REMARK VINA RESULT:      -8.5      3.976     11.690
REMARK  8 active torsions:
REMARK  status: ('A' for Active; 'I' for Inactive)
REMARK    1  A    between atoms: C_2  and  C_5 
REMARK    2  A    between atoms: C_7  and  N_11 
REMARK       I    between atoms: N_11  and  C_12 
REMARK       I    between atoms: C_12  and  N_14 
REMARK    3  A    between atoms: N_14  and  C_15 
REMARK    4  A    between atoms: C_18  and  C_21 
REMARK    5  A    between atoms: C_27  and  O_30 
REMARK    6  A    between atoms: O_30  and  C_31 
REMARK    7  A    between atoms: C_31  and  C_32 
REMARK    8  A    between atoms: C_32  and  N_33 
ROOT
HETATM    1  C   UNK N   1      26.546  20.068   4.435  0.00  0.00     0.036 A 
HETATM    2  C   UNK N   1      27.327  19.033   3.914  0.00  0.00     0.030 A 
HETATM    3  C   UNK N   1      28.216  18.351   4.756  0.00  0.00     0.012 A 
HETATM    4  C   UNK N   1      28.371  18.759   6.093  0.00  0.00    -0.030 A 
HETATM    5  C   UNK N   1      27.582  19.797   6.587  0.00  0.00     0.012 A 
HETATM    6  C   UNK N   1      26.684  20.426   5.779  0.00  0.00     0.030 A 
ENDROOT
BRANCH   4   7
HETATM    7  C   UNK N   1      28.874  17.834   7.098  0.00  0.00     0.156 A 
HETATM    8  C   UNK N   1      29.398  16.612   6.640  0.00  0.00     0.102 A 
HETATM    9  N   UNK N   1      30.583  16.499   7.217  0.00  0.00    -0.303 N 
HETATM   10  C   UNK N   1      31.698  15.743   7.056  0.00  0.00     0.058 A 
HETATM   11  C   UNK N   1      30.726  17.519   8.046  0.00  0.00     0.152 A 
HETATM   12  C   UNK N   1      32.791  16.244   7.775  0.00  0.00     0.038 A 
HETATM   13  C   UNK N   1      31.836  14.656   6.199  0.00  0.00     0.034 A 
HETATM   14  C   UNK N   1      34.047  15.697   7.662  0.00  0.00     0.058 A 
HETATM   15  S   UNK N   1      32.265  17.584   8.630  0.00  0.00    -0.052 SA
HETATM   16  C   UNK N   1      34.198  14.564   6.853  0.00  0.00     0.070 A 
HETATM   17  C   UNK N   1      33.096  14.039   6.127  0.00  0.00     0.039 A 
HETATM   18  N   UNK N   1      29.703  18.369   8.036  0.00  0.00    -0.357 N 
ATOM     19  HN  UNK N   1      29.572  19.214   8.593  1.00  0.00     0.162 HD
BRANCH  16  20
HETATM   20  O   UNK N   1      35.378  13.921   6.884  0.00  0.00    -0.349 OA
BRANCH  20  21
HETATM   21  C   UNK N   1      35.711  13.094   7.937  0.00  0.00     0.206 C 
BRANCH  21  22
HETATM   22  C   UNK N   1      36.835  13.710   8.801  0.00  0.00     0.299 C 
BRANCH  22  23
HETATM   23  N   UNK N   1      36.528  13.615  10.227  0.00  0.00     0.094 N 
HETATM   24  C   UNK N   1      36.291  14.958  10.757  0.00  0.00     0.298 C 
HETATM   25  C   UNK N   1      35.948  14.834  12.244  0.00  0.00     0.198 C 
HETATM   26  O   UNK N   1      34.752  14.105  12.381  0.00  0.00    -0.388 OA
HETATM   27  C   UNK N   1      35.005  12.793  11.930  0.00  0.00     0.198 C 
HETATM   28  C   UNK N   1      35.328  12.809  10.429  0.00  0.00     0.298 C 
ENDBRANCH  22  23
ENDBRANCH  21  22
ENDBRANCH  20  21
ENDBRANCH  16  20
ENDBRANCH   4   7
BRANCH   1  29
HETATM   29  N   UNK N   1      25.670  20.813   3.604  0.00  0.00    -0.309 N 
HETATM   30  C   UNK N   1      24.431  20.335   3.325  0.00  0.00     0.326 C 
HETATM   31  N   UNK N   1      23.987  19.224   3.977  0.00  0.00    -0.293 N 
HETATM   32  O   UNK N   1      23.733  20.904   2.501  0.00  0.00    -0.247 OA
HETATM   33  H   UNK N   1      24.601  18.823   4.633  0.00  0.00     0.172 HD
HETATM   34  H   UNK N   1      25.962  21.676   3.230  0.00  0.00     0.170 HD
BRANCH  31  35
HETATM   35  C   UNK N   1      22.751  18.594   3.810  0.00  0.00     0.132 A 
HETATM   36  C   UNK N   1      22.531  17.249   3.841  0.00  0.00     0.086 A 
HETATM   37  C   UNK N   1      21.162  17.162   3.763  0.00  0.00     0.087 A 
HETATM   38  O   UNK N   1      20.651  18.372   3.690  0.00  0.00    -0.240 OA
HETATM   39  N   UNK N   1      21.591  19.265   3.709  0.00  0.00    -0.245 N 
ATOM     40  HN  UNK N   1      21.474  20.277   3.658  1.00  0.00     0.196 HD
BRANCH  37  41
HETATM   41  C   UNK N   1      20.375  15.900   3.841  0.00  0.00     0.000 C 
HETATM   42  C   UNK N   1      21.236  14.792   4.409  0.00  0.00     0.021 C 
HETATM   43  C   UNK N   1      19.924  15.536   2.442  0.00  0.00     0.021 C 
HETATM   44  C   UNK N   1      19.145  16.070   4.722  0.00  0.00     0.021 C 
ENDBRANCH  37  41
ENDBRANCH  31  35
ENDBRANCH   1  29
TORSDOF 8
ENDMDL
MODEL 7
REMARK VINA RESULT:      -8.4      2.562      3.787
REMARK  8 active torsions:
REMARK  status: ('A' for Active; 'I' for Inactive)
REMARK    1  A    between atoms: C_2  and  C_5 
REMARK    2  A    between atoms: C_7  and  N_11 
REMARK       I    between atoms: N_11  and  C_12 
REMARK       I    between atoms: C_12  and  N_14 
REMARK    3  A    between atoms: N_14  and  C_15 
REMARK    4  A    between atoms: C_18  and  C_21 
REMARK    5  A    between atoms: C_27  and  O_30 
REMARK    6  A    between atoms: O_30  and  C_31 
REMARK    7  A    between atoms: C_31  and  C_32 
REMARK    8  A    between atoms: C_32  and  N_33 
ROOT
HETATM    1  C   UNK N   1      33.365  17.695   7.533  0.00  0.00     0.036 A 
HETATM    2  C   UNK N   1      33.838  17.324   6.272  0.00  0.00     0.030 A 
HETATM    3  C   UNK N   1      32.929  16.893   5.296  0.00  0.00     0.012 A 
HETATM    4  C   UNK N   1      31.565  16.766   5.613  0.00  0.00    -0.030 A 
HETATM    5  C   UNK N   1      31.120  17.140   6.880  0.00  0.00     0.012 A 
HETATM    6  C   UNK N   1      31.998  17.604   7.811  0.00  0.00     0.030 A 
ENDROOT
BRANCH   4   7
HETATM    7  C   UNK N   1      30.553  16.803   4.567  0.00  0.00     0.156 A 
HETATM    8  C   UNK N   1      29.515  15.857   4.646  0.00  0.00     0.102 A 
HETATM    9  N   UNK N   1      28.396  16.555   4.527  0.00  0.00    -0.303 N 
HETATM   10  C   UNK N   1      27.073  16.354   4.750  0.00  0.00     0.058 A 
HETATM   11  C   UNK N   1      28.728  17.811   4.286  0.00  0.00     0.152 A 
HETATM   12  C   UNK N   1      26.340  17.548   4.725  0.00  0.00     0.038 A 
HETATM   13  C   UNK N   1      26.471  15.146   5.087  0.00  0.00     0.034 A 
HETATM   14  C   UNK N   1      25.003  17.587   5.041  0.00  0.00     0.058 A 
HETATM   15  S   UNK N   1      27.404  18.788   4.356  0.00  0.00    -0.052 SA
HETATM   16  C   UNK N   1      24.361  16.374   5.322  0.00  0.00     0.070 A 
HETATM   17  C   UNK N   1      25.089  15.154   5.340  0.00  0.00     0.039 A 
HETATM   18  N   UNK N   1      30.040  18.031   4.278  0.00  0.00    -0.357 N 
ATOM     19  HN  UNK N   1      30.539  18.903   4.100  1.00  0.00     0.162 HD
BRANCH  16  20
HETATM   20  O   UNK N   1      23.023  16.385   5.451  0.00  0.00    -0.349 OA
BRANCH  20  21
HETATM   21  C   UNK N   1      22.247  15.378   4.913  0.00  0.00     0.206 C 
BRANCH  21  22
HETATM   22  C   UNK N   1      20.777  15.827   4.754  0.00  0.00     0.299 C 
BRANCH  22  23
HETATM   23  N   UNK N   1      20.334  15.732   3.365  0.00  0.00     0.094 N 
HETATM   24  C   UNK N   1      20.648  16.983   2.675  0.00  0.00     0.298 C 
HETATM   25  C   UNK N   1      20.200  16.853   1.216  0.00  0.00     0.198 C 
HETATM   26  O   UNK N   1      20.939  15.829   0.596  0.00  0.00    -0.388 OA
HETATM   27  C   UNK N   1      20.583  14.616   1.222  0.00  0.00     0.198 C 
HETATM   28  C   UNK N   1      21.026  14.635   2.692  0.00  0.00     0.298 C 
ENDBRANCH  22  23
ENDBRANCH  21  22
ENDBRANCH  20  21
ENDBRANCH  16  20
ENDBRANCH   4   7
BRANCH   1  29
HETATM   29  N   UNK N   1      34.258  18.091   8.562  0.00  0.00    -0.309 N 
HETATM   30  C   UNK N   1      34.732  17.170   9.440  0.00  0.00     0.326 C 
HETATM   31  N   UNK N   1      34.469  15.851   9.224  0.00  0.00    -0.293 N 
HETATM   32  O   UNK N   1      35.385  17.533  10.405  0.00  0.00    -0.247 OA
HETATM   33  H   UNK N   1      33.942  15.633   8.421  0.00  0.00     0.172 HD
HETATM   34  H   UNK N   1      34.533  19.033   8.639  0.00  0.00     0.170 HD
BRANCH  31  35
HETATM   35  C   UNK N   1      34.867  14.776  10.022  0.00  0.00     0.132 A 
HETATM   36  C   UNK N   1      35.990  14.025   9.845  0.00  0.00     0.086 A 
HETATM   37  C   UNK N   1      35.987  13.207  10.949  0.00  0.00     0.087 A 
HETATM   38  O   UNK N   1      34.934  13.477  11.690  0.00  0.00    -0.240 OA
HETATM   39  N   UNK N   1      34.228  14.422  11.150  0.00  0.00    -0.245 N 
ATOM     40  HN  UNK N   1      33.361  14.819  11.511  1.00  0.00     0.196 HD
BRANCH  37  41
HETATM   41  C   UNK N   1      37.055  12.230  11.299  0.00  0.00     0.000 C 
HETATM   42  C   UNK N   1      38.393  12.731  10.799  0.00  0.00     0.021 C 
HETATM   43  C   UNK N   1      36.722  10.908  10.641  0.00  0.00     0.021 C 
HETATM   44  C   UNK N   1      37.140  12.018  12.804  0.00  0.00     0.021 C 
ENDBRANCH  37  41
ENDBRANCH  31  35
ENDBRANCH   1  29
TORSDOF 8
ENDMDL
MODEL 8
REMARK VINA RESULT:      -8.4      2.450     10.630
REMARK  8 active torsions:
REMARK  status: ('A' for Active; 'I' for Inactive)
REMARK    1  A    between atoms: C_2  and  C_5 
REMARK    2  A    between atoms: C_7  and  N_11 
REMARK       I    between atoms: N_11  and  C_12 
REMARK       I    between atoms: C_12  and  N_14 
REMARK    3  A    between atoms: N_14  and  C_15 
REMARK    4  A    between atoms: C_18  and  C_21 
REMARK    5  A    between atoms: C_27  and  O_30 
REMARK    6  A    between atoms: O_30  and  C_31 
REMARK    7  A    between atoms: C_31  and  C_32 
REMARK    8  A    between atoms: C_32  and  N_33 
ROOT
HETATM    1  C   UNK N   1      27.734  17.306   5.864  0.00  0.00     0.036 A 
HETATM    2  C   UNK N   1      28.795  16.442   5.585  0.00  0.00     0.030 A 
HETATM    3  C   UNK N   1      29.971  16.529   6.343  0.00  0.00     0.012 A 
HETATM    4  C   UNK N   1      30.102  17.527   7.324  0.00  0.00    -0.030 A 
HETATM    5  C   UNK N   1      29.029  18.379   7.580  0.00  0.00     0.012 A 
HETATM    6  C   UNK N   1      27.870  18.261   6.875  0.00  0.00     0.030 A 
ENDROOT
BRANCH   4   7
HETATM    7  C   UNK N   1      31.041  17.369   8.425  0.00  0.00     0.156 A 
HETATM    8  C   UNK N   1      31.315  16.056   8.850  0.00  0.00     0.102 A 
HETATM    9  N   UNK N   1      32.636  15.964   8.875  0.00  0.00    -0.303 N 
HETATM   10  C   UNK N   1      33.561  14.974   8.941  0.00  0.00     0.058 A 
HETATM   11  C   UNK N   1      33.128  17.158   8.592  0.00  0.00     0.152 A 
HETATM   12  C   UNK N   1      34.852  15.429   8.643  0.00  0.00     0.038 A 
HETATM   13  C   UNK N   1      33.304  13.624   9.159  0.00  0.00     0.034 A 
HETATM   14  C   UNK N   1      35.919  14.569   8.539  0.00  0.00     0.058 A 
HETATM   15  S   UNK N   1      34.758  17.079   8.373  0.00  0.00    -0.052 SA
HETATM   16  C   UNK N   1      35.697  13.214   8.815  0.00  0.00     0.070 A 
HETATM   17  C   UNK N   1      34.395  12.741   9.130  0.00  0.00     0.039 A 
HETATM   18  N   UNK N   1      32.201  18.074   8.323  0.00  0.00    -0.357 N 
ATOM     19  HN  UNK N   1      32.328  19.061   8.096  1.00  0.00     0.162 HD
BRANCH  16  20
HETATM   20  O   UNK N   1      36.768  12.404   8.893  0.00  0.00    -0.349 OA
BRANCH  20  21
HETATM   21  C   UNK N   1      36.949  11.567   9.975  0.00  0.00     0.206 C 
BRANCH  21  22
HETATM   22  C   UNK N   1      37.791  12.248  11.077  0.00  0.00     0.299 C 
BRANCH  22  23
HETATM   23  N   UNK N   1      37.031  12.400  12.316  0.00  0.00     0.094 N 
HETATM   24  C   UNK N   1      36.580  13.787  12.435  0.00  0.00     0.298 C 
HETATM   25  C   UNK N   1      35.765  13.918  13.725  0.00  0.00     0.198 C 
HETATM   26  O   UNK N   1      34.620  13.106  13.631  0.00  0.00    -0.388 OA
HETATM   27  C   UNK N   1      35.059  11.766  13.583  0.00  0.00     0.198 C 
HETATM   28  C   UNK N   1      35.863  11.524  12.298  0.00  0.00     0.298 C 
ENDBRANCH  22  23
ENDBRANCH  21  22
ENDBRANCH  20  21
ENDBRANCH  16  20
ENDBRANCH   4   7
BRANCH   1  29
HETATM   29  N   UNK N   1      26.547  17.280   5.088  0.00  0.00    -0.309 N 
HETATM   30  C   UNK N   1      25.535  16.439   5.424  0.00  0.00     0.326 C 
HETATM   31  N   UNK N   1      25.610  15.747   6.595  0.00  0.00    -0.293 N 
HETATM   32  O   UNK N   1      24.576  16.315   4.678  0.00  0.00    -0.247 OA
HETATM   33  H   UNK N   1      26.408  15.903   7.149  0.00  0.00     0.172 HD
HETATM   34  H   UNK N   1      26.457  17.872   4.306  0.00  0.00     0.170 HD
BRANCH  31  35
HETATM   35  C   UNK N   1      24.671  14.839   7.092  0.00  0.00     0.132 A 
HETATM   36  C   UNK N   1      24.939  13.784   7.912  0.00  0.00     0.086 A 
HETATM   37  C   UNK N   1      23.687  13.303   8.209  0.00  0.00     0.087 A 
HETATM   38  O   UNK N   1      22.781  14.034   7.596  0.00  0.00    -0.240 OA
HETATM   39  N   UNK N   1      23.348  14.973   6.902  0.00  0.00    -0.245 N 
ATOM     40  HN  UNK N   1      22.881  15.673   6.327  1.00  0.00     0.196 HD
BRANCH  37  41
HETATM   41  C   UNK N   1      23.396  12.187   9.151  0.00  0.00     0.000 C 
HETATM   42  C   UNK N   1      24.415  12.179  10.269  0.00  0.00     0.021 C 
HETATM   43  C   UNK N   1      23.469  10.886   8.379  0.00  0.00     0.021 C 
HETATM   44  C   UNK N   1      22.004  12.319   9.753  0.00  0.00     0.021 C 
ENDBRANCH  37  41
ENDBRANCH  31  35
ENDBRANCH   1  29
TORSDOF 8
ENDMDL
MODEL 9
REMARK VINA RESULT:      -8.3      4.858      7.632
REMARK  8 active torsions:
REMARK  status: ('A' for Active; 'I' for Inactive)
REMARK    1  A    between atoms: C_2  and  C_5 
REMARK    2  A    between atoms: C_7  and  N_11 
REMARK       I    between atoms: N_11  and  C_12 
REMARK       I    between atoms: C_12  and  N_14 
REMARK    3  A    between atoms: N_14  and  C_15 
REMARK    4  A    between atoms: C_18  and  C_21 
REMARK    5  A    between atoms: C_27  and  O_30 
REMARK    6  A    between atoms: O_30  and  C_31 
REMARK    7  A    between atoms: C_31  and  C_32 
REMARK    8  A    between atoms: C_32  and  N_33 
ROOT
HETATM    1  C   UNK N   1      36.414  14.464  12.708  0.00  0.00     0.036 A 
HETATM    2  C   UNK N   1      36.767  13.193  12.248  0.00  0.00     0.030 A 
HETATM    3  C   UNK N   1      36.096  12.650  11.143  0.00  0.00     0.012 A 
HETATM    4  C   UNK N   1      35.028  13.351  10.555  0.00  0.00    -0.030 A 
HETATM    5  C   UNK N   1      34.694  14.616  11.037  0.00  0.00     0.012 A 
HETATM    6  C   UNK N   1      35.379  15.162  12.079  0.00  0.00     0.030 A 
ENDROOT
BRANCH   4   7
HETATM    7  C   UNK N   1      34.638  13.091   9.177  0.00  0.00     0.156 A 
HETATM    8  C   UNK N   1      33.304  13.365   8.827  0.00  0.00     0.102 A 
HETATM    9  N   UNK N   1      33.374  14.111   7.736  0.00  0.00    -0.303 N 
HETATM   10  C   UNK N   1      32.540  14.910   7.024  0.00  0.00     0.058 A 
HETATM   11  C   UNK N   1      34.646  14.196   7.387  0.00  0.00     0.152 A 
HETATM   12  C   UNK N   1      33.225  15.702   6.092  0.00  0.00     0.038 A 
HETATM   13  C   UNK N   1      31.172  15.059   7.229  0.00  0.00     0.034 A 
HETATM   14  C   UNK N   1      32.586  16.665   5.348  0.00  0.00     0.058 A 
HETATM   15  S   UNK N   1      34.847  15.296   6.178  0.00  0.00    -0.052 SA
HETATM   16  C   UNK N   1      31.198  16.790   5.492  0.00  0.00     0.070 A 
HETATM   17  C   UNK N   1      30.490  15.987   6.425  0.00  0.00     0.039 A 
HETATM   18  N   UNK N   1      35.477  13.575   8.221  0.00  0.00    -0.357 N 
ATOM     19  HN  UNK N   1      36.491  13.484   8.159  1.00  0.00     0.162 HD
BRANCH  16  20
HETATM   20  O   UNK N   1      30.548  17.600   4.639  0.00  0.00    -0.349 OA
BRANCH  20  21
HETATM   21  C   UNK N   1      29.563  17.112   3.805  0.00  0.00     0.206 C 
BRANCH  21  22
HETATM   22  C   UNK N   1      28.220  17.840   4.037  0.00  0.00     0.299 C 
BRANCH  22  23
HETATM   23  N   UNK N   1      28.321  18.824   5.113  0.00  0.00     0.094 N 
HETATM   24  C   UNK N   1      27.580  20.027   4.734  0.00  0.00     0.298 C 
HETATM   25  C   UNK N   1      27.678  21.034   5.884  0.00  0.00     0.198 C 
HETATM   26  O   UNK N   1      27.056  20.493   7.024  0.00  0.00    -0.388 OA
HETATM   27  C   UNK N   1      27.814  19.372   7.423  0.00  0.00     0.198 C 
HETATM   28  C   UNK N   1      27.749  18.284   6.343  0.00  0.00     0.298 C 
ENDBRANCH  22  23
ENDBRANCH  21  22
ENDBRANCH  20  21
ENDBRANCH  16  20
ENDBRANCH   4   7
BRANCH   1  29
HETATM   29  N   UNK N   1      37.037  15.027  13.851  0.00  0.00    -0.309 N 
HETATM   30  C   UNK N   1      36.742  14.551  15.088  0.00  0.00     0.326 C 
HETATM   31  N   UNK N   1      35.971  13.434  15.201  0.00  0.00    -0.293 N 
HETATM   32  O   UNK N   1      37.168  15.126  16.077  0.00  0.00    -0.247 OA
HETATM   33  H   UNK N   1      35.669  13.019  14.361  0.00  0.00     0.172 HD
HETATM   34  H   UNK N   1      37.684  15.762  13.747  0.00  0.00     0.170 HD
BRANCH  31  35
HETATM   35  C   UNK N   1      35.563  12.814  16.386  0.00  0.00     0.132 A 
HETATM   36  C   UNK N   1      35.734  11.499  16.697  0.00  0.00     0.086 A 
HETATM   37  C   UNK N   1      35.292  11.432  17.996  0.00  0.00     0.087 A 
HETATM   38  O   UNK N   1      34.898  12.626  18.385  0.00  0.00    -0.240 OA
HETATM   39  N   UNK N   1      35.044  13.488  17.426  0.00  0.00    -0.245 N 
ATOM     40  HN  UNK N   1      34.810  14.480  17.456  1.00  0.00     0.196 HD
BRANCH  37  41
HETATM   41  C   UNK N   1      35.337  10.220  18.859  0.00  0.00     0.000 C 
HETATM   42  C   UNK N   1      34.946  10.583  20.275  0.00  0.00     0.021 C 
HETATM   43  C   UNK N   1      36.751   9.677  18.840  0.00  0.00     0.021 C 
HETATM   44  C   UNK N   1      34.393   9.141  18.348  0.00  0.00     0.021 C 
ENDBRANCH  37  41
ENDBRANCH  31  35
ENDBRANCH   1  29
TORSDOF 8
ENDMDL
