MODEL 1
REMARK VINA RESULT:      -5.7      0.000      0.000
REMARK  3 active torsions:
REMARK  status: ('A' for Active; 'I' for Inactive)
REMARK    1  A    between atoms: C_2  and  C_10 
REMARK    2  A    between atoms: N_3  and  N_5 
REMARK       I    between atoms: N_5  and  C_6 
REMARK       I    between atoms: C_6  and  N_9 
REMARK    3  A    between atoms: N_11  and  N_13 
REMARK       I    between atoms: N_13  and  C_14 
REMARK       I    between atoms: C_14  and  N_17 
ROOT
HETATM    1  C   UNK N   1      31.461  17.146   6.750  0.00  0.00     0.071 C 
HETATM    2  C   UNK N   1      32.033  17.568   8.075  0.00  0.00     0.039 C 
HETATM    3  N   UNK N   1      31.302  18.181   8.940  0.00  0.00    -0.290 N 
ATOM      4  HN  UNK N   1      31.707  18.460   9.833  1.00  0.00     0.187 HD
ENDROOT
BRANCH   2   5
HETATM    5  C   UNK N   1      33.440  17.274   8.379  0.00  0.00     0.133 C 
HETATM    6  N   UNK N   1      33.845  17.364   9.591  0.00  0.00    -0.296 N 
ATOM      7  HN  UNK N   1      33.183  17.638  10.318  1.00  0.00     0.186 HD
BRANCH   6   8
HETATM    8  N   UNK N   1      35.144  17.103   9.935  0.00  0.00    -0.133 N 
HETATM    9  C   UNK N   1      35.425  16.024  10.806  0.00  0.00     0.684 C 
HETATM   10  N   UNK N   1      36.634  15.767  11.137  0.00  0.00    -0.234 N 
HETATM   11  N   UNK N   1      34.372  15.228  11.314  0.00  0.00    -0.234 N 
HETATM   12  H   UNK N   1      36.828  15.016  11.744  0.00  0.00     0.174 HD
ATOM     13  HN  UNK N   1      37.396  16.339  10.773  1.00  0.00     0.174 HD
HETATM   14  H   UNK N   1      33.441  15.424  11.061  0.00  0.00     0.174 HD
HETATM   15  H   UNK N   1      34.570  14.478  11.920  0.00  0.00     0.174 HD
HETATM   16  H   UNK N   1      35.874  17.660   9.579  0.00  0.00     0.205 HD
ENDBRANCH   6   8
ENDBRANCH   2   5
BRANCH   3  17
HETATM   17  N   UNK N   1      29.986  18.464   8.673  0.00  0.00    -0.133 N 
HETATM   18  C   UNK N   1      28.943  17.906   9.447  0.00  0.00     0.684 C 
HETATM   19  N   UNK N   1      27.726  18.190   9.172  0.00  0.00    -0.234 N 
HETATM   20  N   UNK N   1      29.238  17.038  10.522  0.00  0.00    -0.234 N 
HETATM   21  H   UNK N   1      26.998  17.803   9.709  0.00  0.00     0.174 HD
ATOM     22  HN  UNK N   1      27.511  18.816   8.397  1.00  0.00     0.174 HD
HETATM   23  H   UNK N   1      30.174  16.818  10.735  0.00  0.00     0.174 HD
HETATM   24  H   UNK N   1      28.508  16.652  11.058  0.00  0.00     0.174 HD
HETATM   25  H   UNK N   1      29.763  19.068   7.926  0.00  0.00     0.205 HD
ENDBRANCH   3  17
TORSDOF 3
ENDMDL
MODEL 2
REMARK VINA RESULT:      -5.6      0.451      5.690
REMARK  3 active torsions:
REMARK  status: ('A' for Active; 'I' for Inactive)
REMARK    1  A    between atoms: C_2  and  C_10 
REMARK    2  A    between atoms: N_3  and  N_5 
REMARK       I    between atoms: N_5  and  C_6 
REMARK       I    between atoms: C_6  and  N_9 
REMARK    3  A    between atoms: N_11  and  N_13 
REMARK       I    between atoms: N_13  and  C_14 
REMARK       I    between atoms: C_14  and  N_17 
ROOT
HETATM    1  C   UNK N   1      34.423  16.784   7.332  0.00  0.00     0.071 C 
HETATM    2  C   UNK N   1      33.518  17.369   8.380  0.00  0.00     0.039 C 
HETATM    3  N   UNK N   1      33.926  17.518   9.592  0.00  0.00    -0.290 N 
ATOM      4  HN  UNK N   1      33.299  17.916  10.290  1.00  0.00     0.187 HD
ENDROOT
BRANCH   2   5
HETATM    5  C   UNK N   1      32.154  17.773   8.011  0.00  0.00     0.133 C 
HETATM    6  N   UNK N   1      31.293  17.973   8.939  0.00  0.00    -0.296 N 
ATOM      7  HN  UNK N   1      31.573  17.848   9.912  1.00  0.00     0.186 HD
BRANCH   6   8
HETATM    8  N   UNK N   1      30.008  18.351   8.656  0.00  0.00    -0.133 N 
HETATM    9  C   UNK N   1      28.952  17.871   9.466  0.00  0.00     0.684 C 
HETATM   10  N   UNK N   1      27.745  18.215   9.215  0.00  0.00    -0.234 N 
HETATM   11  N   UNK N   1      29.226  17.011  10.555  0.00  0.00    -0.234 N 
HETATM   12  H   UNK N   1      27.011  17.881   9.779  0.00  0.00     0.174 HD
ATOM     13  HN  UNK N   1      27.544  18.835   8.430  1.00  0.00     0.174 HD
HETATM   14  H   UNK N   1      30.154  16.745  10.750  0.00  0.00     0.174 HD
HETATM   15  H   UNK N   1      28.490  16.679  11.117  0.00  0.00     0.174 HD
HETATM   16  H   UNK N   1      29.822  18.950   7.897  0.00  0.00     0.205 HD
ENDBRANCH   6   8
ENDBRANCH   2   5
BRANCH   3  17
HETATM   17  N   UNK N   1      35.197  17.145   9.954  0.00  0.00    -0.133 N 
HETATM   18  C   UNK N   1      35.425  16.028  10.790  0.00  0.00     0.684 C 
HETATM   19  N   UNK N   1      36.622  15.708  11.110  0.00  0.00    -0.234 N 
HETATM   20  N   UNK N   1      34.339  15.265  11.274  0.00  0.00    -0.234 N 
HETATM   21  H   UNK N   1      36.784  14.931  11.692  0.00  0.00     0.174 HD
ATOM     22  HN  UNK N   1      37.407  16.258  10.762  1.00  0.00     0.174 HD
HETATM   23  H   UNK N   1      33.417  15.510  11.029  0.00  0.00     0.174 HD
HETATM   24  H   UNK N   1      34.503  14.488  11.855  0.00  0.00     0.174 HD
HETATM   25  H   UNK N   1      35.966  17.667   9.626  0.00  0.00     0.205 HD
ENDBRANCH   3  17
TORSDOF 3
ENDMDL
MODEL 3
REMARK VINA RESULT:      -5.0      2.420      6.180
REMARK  3 active torsions:
REMARK  status: ('A' for Active; 'I' for Inactive)
REMARK    1  A    between atoms: C_2  and  C_10 
REMARK    2  A    between atoms: N_3  and  N_5 
REMARK       I    between atoms: N_5  and  C_6 
REMARK       I    between atoms: C_6  and  N_9 
REMARK    3  A    between atoms: N_11  and  N_13 
REMARK       I    between atoms: N_13  and  C_14 
REMARK       I    between atoms: C_14  and  N_17 
ROOT
HETATM    1  C   UNK N   1      34.285  18.347   7.977  0.00  0.00     0.071 C 
HETATM    2  C   UNK N   1      33.200  17.468   8.536  0.00  0.00     0.039 C 
HETATM    3  N   UNK N   1      33.408  16.757   9.589  0.00  0.00    -0.290 N 
ATOM      4  HN  UNK N   1      32.661  16.168   9.954  1.00  0.00     0.187 HD
ENDROOT
BRANCH   2   5
HETATM    5  C   UNK N   1      31.891  17.426   7.870  0.00  0.00     0.133 C 
HETATM    6  N   UNK N   1      31.845  17.237   6.603  0.00  0.00    -0.296 N 
ATOM      7  HN  UNK N   1      32.717  17.119   6.086  1.00  0.00     0.186 HD
BRANCH   6   8
HETATM    8  N   UNK N   1      30.655  17.188   5.929  0.00  0.00    -0.133 N 
HETATM    9  C   UNK N   1      30.627  17.516   4.552  0.00  0.00     0.684 C 
HETATM   10  N   UNK N   1      29.523  17.476   3.907  0.00  0.00    -0.234 N 
HETATM   11  N   UNK N   1      31.817  17.890   3.887  0.00  0.00    -0.234 N 
HETATM   12  H   UNK N   1      29.504  17.705   2.950  0.00  0.00     0.174 HD
ATOM     13  HN  UNK N   1      28.662  17.207   4.384  1.00  0.00     0.174 HD
HETATM   14  H   UNK N   1      32.668  17.923   4.381  0.00  0.00     0.174 HD
HETATM   15  H   UNK N   1      31.795  18.119   2.929  0.00  0.00     0.174 HD
HETATM   16  H   UNK N   1      29.829  16.927   6.396  0.00  0.00     0.205 HD
ENDBRANCH   6   8
ENDBRANCH   2   5
BRANCH   3  17
HETATM   17  N   UNK N   1      34.625  16.784  10.225  0.00  0.00    -0.133 N 
HETATM   18  C   UNK N   1      35.051  15.711  11.040  0.00  0.00     0.684 C 
HETATM   19  N   UNK N   1      36.191  15.767  11.619  0.00  0.00    -0.234 N 
HETATM   20  N   UNK N   1      34.225  14.579  11.219  0.00  0.00    -0.234 N 
HETATM   21  H   UNK N   1      36.490  15.022  12.188  0.00  0.00     0.174 HD
ATOM     22  HN  UNK N   1      36.788  16.584  11.491  1.00  0.00     0.174 HD
HETATM   23  H   UNK N   1      33.348  14.534  10.775  0.00  0.00     0.174 HD
HETATM   24  H   UNK N   1      34.527  13.834  11.789  0.00  0.00     0.174 HD
HETATM   25  H   UNK N   1      35.213  17.567  10.110  0.00  0.00     0.205 HD
ENDBRANCH   3  17
TORSDOF 3
ENDMDL
MODEL 4
REMARK VINA RESULT:      -5.0      1.728      6.112
REMARK  3 active torsions:
REMARK  status: ('A' for Active; 'I' for Inactive)
REMARK    1  A    between atoms: C_2  and  C_10 
REMARK    2  A    between atoms: N_3  and  N_5 
REMARK       I    between atoms: N_5  and  C_6 
REMARK       I    between atoms: C_6  and  N_9 
REMARK    3  A    between atoms: N_11  and  N_13 
REMARK       I    between atoms: N_13  and  C_14 
REMARK       I    between atoms: C_14  and  N_17 
ROOT
HETATM    1  C   UNK N   1      32.166  14.740   7.526  0.00  0.00     0.071 C 
HETATM    2  C   UNK N   1      31.835  15.982   8.307  0.00  0.00     0.039 C 
HETATM    3  N   UNK N   1      32.188  16.095   9.540  0.00  0.00    -0.290 N 
ATOM      4  HN  UNK N   1      31.955  16.944  10.054  1.00  0.00     0.187 HD
ENDROOT
BRANCH   2   5
HETATM    5  C   UNK N   1      31.102  17.073   7.650  0.00  0.00     0.133 C 
HETATM    6  N   UNK N   1      29.822  17.063   7.674  0.00  0.00    -0.296 N 
ATOM      7  HN  UNK N   1      29.339  16.300   8.148  1.00  0.00     0.186 HD
BRANCH   6   8
HETATM    8  N   UNK N   1      29.086  18.052   7.080  0.00  0.00    -0.133 N 
HETATM    9  C   UNK N   1      28.078  18.708   7.826  0.00  0.00     0.684 C 
HETATM   10  N   UNK N   1      27.381  19.635   7.284  0.00  0.00    -0.234 N 
HETATM   11  N   UNK N   1      27.838  18.342   9.171  0.00  0.00    -0.234 N 
HETATM   12  H   UNK N   1      26.680  20.091   7.805  0.00  0.00     0.174 HD
ATOM     13  HN  UNK N   1      27.552  19.902   6.315  1.00  0.00     0.174 HD
HETATM   14  H   UNK N   1      28.372  17.629   9.589  0.00  0.00     0.174 HD
HETATM   15  H   UNK N   1      27.136  18.800   9.688  0.00  0.00     0.174 HD
HETATM   16  H   UNK N   1      29.256  18.304   6.143  0.00  0.00     0.205 HD
ENDBRANCH   6   8
ENDBRANCH   2   5
BRANCH   3  17
HETATM   17  N   UNK N   1      32.873  15.086  10.170  0.00  0.00    -0.133 N 
HETATM   18  C   UNK N   1      34.135  15.314  10.764  0.00  0.00     0.684 C 
HETATM   19  N   UNK N   1      34.747  14.352  11.343  0.00  0.00    -0.234 N 
HETATM   20  N   UNK N   1      34.722  16.599  10.720  0.00  0.00    -0.234 N 
HETATM   21  H   UNK N   1      35.627  14.508  11.758  0.00  0.00     0.174 HD
ATOM     22  HN  UNK N   1      34.325  13.425  11.376  1.00  0.00     0.174 HD
HETATM   23  H   UNK N   1      34.253  17.340  10.275  0.00  0.00     0.174 HD
HETATM   24  H   UNK N   1      35.602  16.752  11.135  0.00  0.00     0.174 HD
HETATM   25  H   UNK N   1      32.477  14.184  10.209  0.00  0.00     0.205 HD
ENDBRANCH   3  17
TORSDOF 3
ENDMDL
MODEL 5
REMARK VINA RESULT:      -4.9      3.648      7.388
REMARK  3 active torsions:
REMARK  status: ('A' for Active; 'I' for Inactive)
REMARK    1  A    between atoms: C_2  and  C_10 
REMARK    2  A    between atoms: N_3  and  N_5 
REMARK       I    between atoms: N_5  and  C_6 
REMARK       I    between atoms: C_6  and  N_9 
REMARK    3  A    between atoms: N_11  and  N_13 
REMARK       I    between atoms: N_13  and  C_14 
REMARK       I    between atoms: C_14  and  N_17 
ROOT
HETATM    1  C   UNK N   1      34.912  13.376  11.606  0.00  0.00     0.071 C 
HETATM    2  C   UNK N   1      36.085  14.298  11.795  0.00  0.00     0.039 C 
HETATM    3  N   UNK N   1      37.112  13.922  12.474  0.00  0.00    -0.290 N 
ATOM      4  HN  UNK N   1      37.898  14.560  12.592  1.00  0.00     0.187 HD
ENDROOT
BRANCH   2   5
HETATM    5  C   UNK N   1      36.052  15.639  11.196  0.00  0.00     0.133 C 
HETATM    6  N   UNK N   1      34.929  16.119  10.810  0.00  0.00    -0.296 N 
ATOM      7  HN  UNK N   1      34.083  15.561  10.926  1.00  0.00     0.186 HD
BRANCH   6   8
HETATM    8  N   UNK N   1      34.836  17.362  10.245  0.00  0.00    -0.133 N 
HETATM    9  C   UNK N   1      34.607  17.475   8.853  0.00  0.00     0.684 C 
HETATM   10  N   UNK N   1      34.518  18.630   8.310  0.00  0.00    -0.234 N 
HETATM   11  N   UNK N   1      34.476  16.311   8.059  0.00  0.00    -0.234 N 
HETATM   12  H   UNK N   1      34.359  18.706   7.341  0.00  0.00     0.174 HD
ATOM     13  HN  UNK N   1      34.612  19.470   8.879  1.00  0.00     0.174 HD
HETATM   14  H   UNK N   1      34.544  15.422   8.474  0.00  0.00     0.174 HD
HETATM   15  H   UNK N   1      34.316  16.392   7.091  0.00  0.00     0.174 HD
HETATM   16  H   UNK N   1      34.928  18.169  10.802  0.00  0.00     0.205 HD
ENDBRANCH   6   8
ENDBRANCH   2   5
BRANCH   3  17
HETATM   17  N   UNK N   1      37.160  12.672  13.041  0.00  0.00    -0.133 N 
HETATM   18  C   UNK N   1      37.177  12.502  14.444  0.00  0.00     0.684 C 
HETATM   19  N   UNK N   1      37.222  11.324  14.940  0.00  0.00    -0.234 N 
HETATM   20  N   UNK N   1      37.144  13.627  15.300  0.00  0.00    -0.234 N 
HETATM   21  H   UNK N   1      37.234  11.203  15.917  0.00  0.00     0.174 HD
ATOM     22  HN  UNK N   1      37.246  10.512  14.325  1.00  0.00     0.174 HD
HETATM   23  H   UNK N   1      37.110  14.534  14.920  0.00  0.00     0.174 HD
HETATM   24  H   UNK N   1      37.156  13.502  16.276  0.00  0.00     0.174 HD
HETATM   25  H   UNK N   1      37.183  11.878  12.458  0.00  0.00     0.205 HD
ENDBRANCH   3  17
TORSDOF 3
ENDMDL
MODEL 6
REMARK VINA RESULT:      -4.9      7.831     12.077
REMARK  3 active torsions:
REMARK  status: ('A' for Active; 'I' for Inactive)
REMARK    1  A    between atoms: C_2  and  C_10 
REMARK    2  A    between atoms: N_3  and  N_5 
REMARK       I    between atoms: N_5  and  C_6 
REMARK       I    between atoms: C_6  and  N_9 
REMARK    3  A    between atoms: N_11  and  N_13 
REMARK       I    between atoms: N_13  and  C_14 
REMARK       I    between atoms: C_14  and  N_17 
ROOT
HETATM    1  C   UNK N   1      24.694  20.438   3.041  0.00  0.00     0.071 C 
HETATM    2  C   UNK N   1      24.368  19.457   4.133  0.00  0.00     0.039 C 
HETATM    3  N   UNK N   1      25.195  19.250   5.098  0.00  0.00    -0.290 N 
ATOM      4  HN  UNK N   1      24.957  18.582   5.830  1.00  0.00     0.187 HD
ENDROOT
BRANCH   2   5
HETATM    5  C   UNK N   1      23.090  18.732   4.094  0.00  0.00     0.133 C 
HETATM    6  N   UNK N   1      22.077  19.291   3.544  0.00  0.00    -0.296 N 
ATOM      7  HN  UNK N   1      22.178  20.225   3.146  1.00  0.00     0.186 HD
BRANCH   6   8
HETATM    8  N   UNK N   1      20.862  18.664   3.477  0.00  0.00    -0.133 N 
HETATM    9  C   UNK N   1      19.936  19.055   2.481  0.00  0.00     0.684 C 
HETATM   10  N   UNK N   1      18.796  18.479   2.405  0.00  0.00    -0.234 N 
HETATM   11  N   UNK N   1      20.267  20.082   1.567  0.00  0.00    -0.234 N 
HETATM   12  H   UNK N   1      18.152  18.752   1.711  0.00  0.00     0.174 HD
ATOM     13  HN  UNK N   1      18.553  17.738   3.063  1.00  0.00     0.174 HD
HETATM   14  H   UNK N   1      21.144  20.527   1.623  0.00  0.00     0.174 HD
HETATM   15  H   UNK N   1      19.621  20.352   0.874  0.00  0.00     0.174 HD
HETATM   16  H   UNK N   1      20.635  17.949   4.115  0.00  0.00     0.205 HD
ENDBRANCH   6   8
ENDBRANCH   2   5
BRANCH   3  17
HETATM   17  N   UNK N   1      26.393  19.918   5.151  0.00  0.00    -0.133 N 
HETATM   18  C   UNK N   1      26.764  20.672   6.288  0.00  0.00     0.684 C 
HETATM   19  N   UNK N   1      27.887  21.283   6.306  0.00  0.00    -0.234 N 
HETATM   20  N   UNK N   1      25.899  20.754   7.403  0.00  0.00    -0.234 N 
HETATM   21  H   UNK N   1      28.148  21.809   7.096  0.00  0.00     0.174 HD
ATOM     22  HN  UNK N   1      28.512  21.226   5.502  1.00  0.00     0.174 HD
HETATM   23  H   UNK N   1      25.034  20.284   7.392  0.00  0.00     0.174 HD
HETATM   24  H   UNK N   1      26.163  21.280   8.192  0.00  0.00     0.174 HD
HETATM   25  H   UNK N   1      27.007  19.872   4.382  0.00  0.00     0.205 HD
ENDBRANCH   3  17
TORSDOF 3
ENDMDL
MODEL 7
REMARK VINA RESULT:      -4.9      2.710      4.965
REMARK  3 active torsions:
REMARK  status: ('A' for Active; 'I' for Inactive)
REMARK    1  A    between atoms: C_2  and  C_10 
REMARK    2  A    between atoms: N_3  and  N_5 
REMARK       I    between atoms: N_5  and  C_6 
REMARK       I    between atoms: C_6  and  N_9 
REMARK    3  A    between atoms: N_11  and  N_13 
REMARK       I    between atoms: N_13  and  C_14 
REMARK       I    between atoms: C_14  and  N_17 
ROOT
HETATM    1  C   UNK N   1      36.051  15.003   9.627  0.00  0.00     0.071 C 
HETATM    2  C   UNK N   1      35.413  15.692  10.803  0.00  0.00     0.039 C 
HETATM    3  N   UNK N   1      34.886  16.859  10.673  0.00  0.00    -0.290 N 
ATOM      4  HN  UNK N   1      34.459  17.311  11.481  1.00  0.00     0.187 HD
ENDROOT
BRANCH   2   5
HETATM    5  C   UNK N   1      35.395  15.019  12.109  0.00  0.00     0.133 C 
HETATM    6  N   UNK N   1      36.503  14.827  12.724  0.00  0.00    -0.296 N 
ATOM      7  HN  UNK N   1      37.372  15.145  12.294  1.00  0.00     0.186 HD
BRANCH   6   8
HETATM    8  N   UNK N   1      36.548  14.206  13.943  0.00  0.00    -0.133 N 
HETATM    9  C   UNK N   1      37.041  12.883  14.027  0.00  0.00     0.684 C 
HETATM   10  N   UNK N   1      37.090  12.288  15.159  0.00  0.00    -0.234 N 
HETATM   11  N   UNK N   1      37.480  12.213  12.862  0.00  0.00    -0.234 N 
HETATM   12  H   UNK N   1      37.433  11.367  15.216  0.00  0.00     0.174 HD
ATOM     13  HN  UNK N   1      36.774  12.768  16.002  1.00  0.00     0.174 HD
HETATM   14  H   UNK N   1      37.444  12.668  11.989  0.00  0.00     0.174 HD
HETATM   15  H   UNK N   1      37.823  11.292  12.923  0.00  0.00     0.174 HD
HETATM   16  H   UNK N   1      36.241  14.677  14.752  0.00  0.00     0.205 HD
ENDBRANCH   6   8
ENDBRANCH   2   5
BRANCH   3  17
HETATM   17  N   UNK N   1      34.894  17.502   9.460  0.00  0.00    -0.133 N 
HETATM   18  C   UNK N   1      33.734  17.565   8.655  0.00  0.00     0.684 C 
HETATM   19  N   UNK N   1      33.775  18.173   7.530  0.00  0.00    -0.234 N 
HETATM   20  N   UNK N   1      32.532  16.961   9.087  0.00  0.00    -0.234 N 
HETATM   21  H   UNK N   1      32.968  18.218   6.967  0.00  0.00     0.174 HD
ATOM     22  HN  UNK N   1      34.641  18.609   7.217  1.00  0.00     0.174 HD
HETATM   23  H   UNK N   1      32.498  16.494   9.952  0.00  0.00     0.174 HD
HETATM   24  H   UNK N   1      31.727  17.008   8.522  0.00  0.00     0.174 HD
HETATM   25  H   UNK N   1      35.725  17.929   9.145  0.00  0.00     0.205 HD
ENDBRANCH   3  17
TORSDOF 3
ENDMDL
MODEL 8
REMARK VINA RESULT:      -4.8      2.047      3.310
REMARK  3 active torsions:
REMARK  status: ('A' for Active; 'I' for Inactive)
REMARK    1  A    between atoms: C_2  and  C_10 
REMARK    2  A    between atoms: N_3  and  N_5 
REMARK       I    between atoms: N_5  and  C_6 
REMARK       I    between atoms: C_6  and  N_9 
REMARK    3  A    between atoms: N_11  and  N_13 
REMARK       I    between atoms: N_13  and  C_14 
REMARK       I    between atoms: C_14  and  N_17 
ROOT
HETATM    1  C   UNK N   1      34.674  15.195   8.773  0.00  0.00     0.071 C 
HETATM    2  C   UNK N   1      34.540  16.404   9.656  0.00  0.00     0.039 C 
HETATM    3  N   UNK N   1      33.749  17.368   9.335  0.00  0.00    -0.290 N 
ATOM      4  HN  UNK N   1      33.671  18.180   9.946  1.00  0.00     0.187 HD
ENDROOT
BRANCH   2   5
HETATM    5  C   UNK N   1      35.323  16.480  10.898  0.00  0.00     0.133 C 
HETATM    6  N   UNK N   1      35.573  15.401  11.541  0.00  0.00    -0.296 N 
ATOM      7  HN  UNK N   1      35.224  14.514  11.178  1.00  0.00     0.186 HD
BRANCH   6   8
HETATM    8  N   UNK N   1      36.296  15.410  12.703  0.00  0.00    -0.133 N 
HETATM    9  C   UNK N   1      36.222  14.297  13.573  0.00  0.00     0.684 C 
HETATM   10  N   UNK N   1      36.892  14.290  14.663  0.00  0.00    -0.234 N 
HETATM   11  N   UNK N   1      35.407  13.189  13.241  0.00  0.00    -0.234 N 
HETATM   12  H   UNK N   1      36.839  13.514  15.267  0.00  0.00     0.174 HD
ATOM     13  HN  UNK N   1      37.481  15.086  14.905  1.00  0.00     0.174 HD
HETATM   14  H   UNK N   1      34.890  13.192  12.403  0.00  0.00     0.174 HD
HETATM   15  H   UNK N   1      35.356  12.416  13.848  0.00  0.00     0.174 HD
HETATM   16  H   UNK N   1      36.862  16.183  12.930  0.00  0.00     0.205 HD
ENDBRANCH   6   8
ENDBRANCH   2   5
BRANCH   3  17
HETATM   17  N   UNK N   1      33.010  17.314   8.179  0.00  0.00    -0.133 N 
HETATM   18  C   UNK N   1      31.607  17.487   8.195  0.00  0.00     0.684 C 
HETATM   19  N   UNK N   1      30.948  17.431   7.100  0.00  0.00    -0.234 N 
HETATM   20  N   UNK N   1      30.931  17.721   9.414  0.00  0.00    -0.234 N 
HETATM   21  H   UNK N   1      29.971  17.551   7.108  0.00  0.00     0.174 HD
ATOM     22  HN  UNK N   1      31.434  17.262   6.220  1.00  0.00     0.174 HD
HETATM   23  H   UNK N   1      31.436  17.765  10.257  0.00  0.00     0.174 HD
HETATM   24  H   UNK N   1      29.954  17.841   9.419  0.00  0.00     0.174 HD
HETATM   25  H   UNK N   1      33.467  17.151   7.321  0.00  0.00     0.205 HD
ENDBRANCH   3  17
TORSDOF 3
ENDMDL
MODEL 9
REMARK VINA RESULT:      -4.7      1.680      2.252
REMARK  3 active torsions:
REMARK  status: ('A' for Active; 'I' for Inactive)
REMARK    1  A    between atoms: C_2  and  C_10 
REMARK    2  A    between atoms: N_3  and  N_5 
REMARK       I    between atoms: N_5  and  C_6 
REMARK       I    between atoms: C_6  and  N_9 
REMARK    3  A    between atoms: N_11  and  N_13 
REMARK       I    between atoms: N_13  and  C_14 
REMARK       I    between atoms: C_14  and  N_17 
ROOT
HETATM    1  C   UNK N   1      31.328  17.200   5.342  0.00  0.00     0.071 C 
HETATM    2  C   UNK N   1      31.123  17.043   6.823  0.00  0.00     0.039 C 
HETATM    3  N   UNK N   1      30.044  17.465   7.385  0.00  0.00    -0.290 N 
ATOM      4  HN  UNK N   1      29.921  17.350   8.390  1.00  0.00     0.187 HD
ENDROOT
BRANCH   2   5
HETATM    5  C   UNK N   1      32.168  16.400   7.632  0.00  0.00     0.133 C 
HETATM    6  N   UNK N   1      32.423  16.864   8.799  0.00  0.00    -0.296 N 
ATOM      7  HN  UNK N   1      31.896  17.669   9.140  1.00  0.00     0.186 HD
BRANCH   6   8
HETATM    8  N   UNK N   1      33.385  16.307   9.597  0.00  0.00    -0.133 N 
HETATM    9  C   UNK N   1      34.650  16.934   9.696  0.00  0.00     0.684 C 
HETATM   10  N   UNK N   1      35.560  16.426  10.438  0.00  0.00    -0.234 N 
HETATM   11  N   UNK N   1      34.912  18.123   8.976  0.00  0.00    -0.234 N 
HETATM   12  H   UNK N   1      36.440  16.863  10.506  0.00  0.00     0.174 HD
ATOM     13  HN  UNK N   1      35.375  15.569  10.959  1.00  0.00     0.174 HD
HETATM   14  H   UNK N   1      34.214  18.516   8.404  0.00  0.00     0.174 HD
HETATM   15  H   UNK N   1      35.793  18.557   9.046  0.00  0.00     0.174 HD
HETATM   16  H   UNK N   1      33.198  15.480  10.097  0.00  0.00     0.205 HD
ENDBRANCH   6   8
ENDBRANCH   2   5
BRANCH   3  17
HETATM   17  N   UNK N   1      29.057  18.067   6.645  0.00  0.00    -0.133 N 
HETATM   18  C   UNK N   1      27.960  18.708   7.266  0.00  0.00     0.684 C 
HETATM   19  N   UNK N   1      27.058  19.260   6.547  0.00  0.00    -0.234 N 
HETATM   20  N   UNK N   1      27.858  18.741   8.675  0.00  0.00    -0.234 N 
HETATM   21  H   UNK N   1      26.293  19.707   6.977  0.00  0.00     0.174 HD
ATOM     22  HN  UNK N   1      27.130  19.237   5.531  1.00  0.00     0.174 HD
HETATM   23  H   UNK N   1      28.552  18.317   9.230  0.00  0.00     0.174 HD
HETATM   24  H   UNK N   1      27.092  19.189   9.102  0.00  0.00     0.174 HD
HETATM   25  H   UNK N   1      29.113  18.053   5.661  0.00  0.00     0.205 HD
ENDBRANCH   3  17
TORSDOF 3
ENDMDL
