MODEL 1
REMARK VINA RESULT:      -7.2      0.000      0.000
REMARK  6 active torsions:
REMARK  status: ('A' for Active; 'I' for Inactive)
REMARK    1  A    between atoms: N_3  and  C_15 
REMARK    2  A    between atoms: C_6  and  C_7 
REMARK    3  A    between atoms: C_7  and  C_8 
REMARK    4  A    between atoms: C_15  and  C_16 
REMARK    5  A    between atoms: C_16  and  C_17 
REMARK    6  A    between atoms: C_16  and  O_24 
ROOT
HETATM    1  C   UNK N   1      37.179  12.718  13.831  0.00  0.00     0.035 C 
HETATM    2  C   UNK N   1      37.312  12.512  12.319  0.00  0.00     0.273 C 
HETATM    3  N   UNK N   1      36.073  12.828  11.587  0.00  0.00     0.091 N 
HETATM    4  C   UNK N   1      34.983  11.946  12.030  0.00  0.00     0.273 C 
HETATM    5  C   UNK N   1      34.658  12.115  13.520  0.00  0.00     0.035 C 
HETATM    6  C   UNK N   1      35.935  12.011  14.342  0.00  0.00    -0.007 C 
ENDROOT
BRANCH   3   7
HETATM    7  C   UNK N   1      35.689  14.231  11.757  0.00  0.00     0.308 C 
BRANCH   7   8
HETATM    8  C   UNK N   1      36.019  15.046  10.514  0.00  0.00     0.179 C 
BRANCH   8   9
HETATM    9  C   UNK N   1      34.782  15.571   9.831  0.00  0.00    -0.028 A 
HETATM   10  C   UNK N   1      33.632  14.771   9.719  0.00  0.00     0.011 A 
HETATM   11  C   UNK N   1      32.478  15.273   9.113  0.00  0.00     0.024 A 
HETATM   12  C   UNK N   1      32.462  16.576   8.613  0.00  0.00     0.034 A 
HETATM   13  C   UNK N   1      33.601  17.379   8.717  0.00  0.00     0.024 A 
HETATM   14 Cl   UNK N   1      31.011  17.204   7.860  0.00  0.00    -0.084 Cl
HETATM   15  C   UNK N   1      34.757  16.881   9.329  0.00  0.00     0.011 A 
ENDBRANCH   8   9
BRANCH   8  16
HETATM   16  O   UNK N   1      36.878  16.088  10.874  0.00  0.00    -0.389 OA
HETATM   17  H   UNK N   1      36.600  16.796  11.475  0.00  0.00     0.210 HD
ENDBRANCH   8  16
ENDBRANCH   7   8
ENDBRANCH   3   7
BRANCH   6  18
HETATM   18  C   UNK N   1      36.037  11.040  15.514  0.00  0.00     0.043 C 
BRANCH  18  19
HETATM   19  C   UNK N   1      35.703  11.615  16.861  0.00  0.00    -0.058 A 
HETATM   20  C   UNK N   1      35.655  10.826  18.022  0.00  0.00     0.010 A 
HETATM   21  C   UNK N   1      35.310  11.397  19.250  0.00  0.00     0.043 A 
HETATM   22  C   UNK N   1      35.011  12.761  19.327  0.00  0.00     0.116 A 
HETATM   23  C   UNK N   1      35.064  13.553  18.176  0.00  0.00     0.043 A 
HETATM   24  F   UNK N   1      34.668  13.313  20.514  0.00  0.00    -0.206 F 
HETATM   25  C   UNK N   1      35.408  12.982  16.948  0.00  0.00     0.010 A 
ENDBRANCH  18  19
ENDBRANCH   6  18
TORSDOF 6
ENDMDL
MODEL 2
REMARK VINA RESULT:      -7.1      5.511      8.526
REMARK  6 active torsions:
REMARK  status: ('A' for Active; 'I' for Inactive)
REMARK    1  A    between atoms: N_3  and  C_15 
REMARK    2  A    between atoms: C_6  and  C_7 
REMARK    3  A    between atoms: C_7  and  C_8 
REMARK    4  A    between atoms: C_15  and  C_16 
REMARK    5  A    between atoms: C_16  and  C_17 
REMARK    6  A    between atoms: C_16  and  O_24 
ROOT
HETATM    1  C   UNK N   1      33.778  17.309   5.966  0.00  0.00     0.035 C 
HETATM    2  C   UNK N   1      32.953  16.111   5.488  0.00  0.00     0.273 C 
HETATM    3  N   UNK N   1      31.508  16.281   5.724  0.00  0.00     0.091 N 
HETATM    4  C   UNK N   1      31.242  16.419   7.163  0.00  0.00     0.273 C 
HETATM    5  C   UNK N   1      31.925  17.651   7.773  0.00  0.00     0.035 C 
HETATM    6  C   UNK N   1      33.399  17.663   7.394  0.00  0.00    -0.007 C 
ENDROOT
BRANCH   3   7
HETATM    7  C   UNK N   1      30.975  17.437   4.998  0.00  0.00     0.308 C 
BRANCH   7   8
HETATM    8  C   UNK N   1      29.480  17.287   4.749  0.00  0.00     0.179 C 
BRANCH   8   9
HETATM    9  C   UNK N   1      28.686  18.414   5.359  0.00  0.00    -0.028 A 
HETATM   10  C   UNK N   1      28.153  19.432   4.551  0.00  0.00     0.011 A 
HETATM   11  C   UNK N   1      27.391  20.459   5.116  0.00  0.00     0.024 A 
HETATM   12  C   UNK N   1      27.157  20.477   6.492  0.00  0.00     0.034 A 
HETATM   13  C   UNK N   1      27.684  19.469   7.304  0.00  0.00     0.024 A 
HETATM   14 Cl   UNK N   1      26.196  21.760   7.197  0.00  0.00    -0.084 Cl
HETATM   15  C   UNK N   1      28.442  18.438   6.740  0.00  0.00     0.011 A 
ENDBRANCH   8   9
BRANCH   8  16
HETATM   16  O   UNK N   1      29.260  17.201   3.372  0.00  0.00    -0.389 OA
HETATM   17  H   UNK N   1      28.971  16.376   2.951  0.00  0.00     0.210 HD
ENDBRANCH   8  16
ENDBRANCH   7   8
ENDBRANCH   3   7
BRANCH   6  18
HETATM   18  C   UNK N   1      34.483  17.791   8.461  0.00  0.00     0.043 C 
BRANCH  18  19
HETATM   19  C   UNK N   1      34.599  16.629   9.406  0.00  0.00    -0.058 A 
HETATM   20  C   UNK N   1      34.018  15.380   9.132  0.00  0.00     0.010 A 
HETATM   21  C   UNK N   1      34.126  14.335  10.053  0.00  0.00     0.043 A 
HETATM   22  C   UNK N   1      34.814  14.530  11.254  0.00  0.00     0.116 A 
HETATM   23  C   UNK N   1      35.400  15.768  11.529  0.00  0.00     0.043 A 
HETATM   24  F   UNK N   1      34.911  13.520  12.151  0.00  0.00    -0.206 F 
HETATM   25  C   UNK N   1      35.292  16.814  10.609  0.00  0.00     0.010 A 
ENDBRANCH  18  19
ENDBRANCH   6  18
TORSDOF 6
ENDMDL
MODEL 3
REMARK VINA RESULT:      -7.1      4.692      9.410
REMARK  6 active torsions:
REMARK  status: ('A' for Active; 'I' for Inactive)
REMARK    1  A    between atoms: N_3  and  C_15 
REMARK    2  A    between atoms: C_6  and  C_7 
REMARK    3  A    between atoms: C_7  and  C_8 
REMARK    4  A    between atoms: C_15  and  C_16 
REMARK    5  A    between atoms: C_16  and  C_17 
REMARK    6  A    between atoms: C_16  and  O_24 
ROOT
HETATM    1  C   UNK N   1      34.352  15.113   8.855  0.00  0.00     0.035 C 
HETATM    2  C   UNK N   1      35.552  14.235   9.220  0.00  0.00     0.273 C 
HETATM    3  N   UNK N   1      35.952  14.371  10.632  0.00  0.00     0.091 N 
HETATM    4  C   UNK N   1      36.353  15.757  10.913  0.00  0.00     0.273 C 
HETATM    5  C   UNK N   1      35.211  16.758  10.692  0.00  0.00     0.035 C 
HETATM    6  C   UNK N   1      34.595  16.540   9.317  0.00  0.00    -0.007 C 
ENDROOT
BRANCH   3   7
HETATM    7  C   UNK N   1      34.878  13.962  11.540  0.00  0.00     0.308 C 
BRANCH   7   8
HETATM    8  C   UNK N   1      35.139  12.572  12.107  0.00  0.00     0.179 C 
BRANCH   8   9
HETATM    9  C   UNK N   1      35.181  12.572  13.614  0.00  0.00    -0.028 A 
HETATM   10  C   UNK N   1      35.986  13.490  14.308  0.00  0.00     0.011 A 
HETATM   11  C   UNK N   1      35.999  13.506  15.705  0.00  0.00     0.024 A 
HETATM   12  C   UNK N   1      35.209  12.605  16.421  0.00  0.00     0.034 A 
HETATM   13  C   UNK N   1      34.406  11.686  15.740  0.00  0.00     0.024 A 
HETATM   14 Cl   UNK N   1      35.222  12.632  18.172  0.00  0.00    -0.084 Cl
HETATM   15  C   UNK N   1      34.387  11.671  14.341  0.00  0.00     0.011 A 
ENDBRANCH   8   9
BRANCH   8  16
HETATM   16  O   UNK N   1      34.158  11.700  11.629  0.00  0.00    -0.389 OA
HETATM   17  H   UNK N   1      33.366  11.486  12.147  0.00  0.00     0.210 HD
ENDBRANCH   8  16
ENDBRANCH   7   8
ENDBRANCH   3   7
BRANCH   6  18
HETATM   18  C   UNK N   1      34.443  17.696   8.333  0.00  0.00     0.043 C 
BRANCH  18  19
HETATM   19  C   UNK N   1      33.348  17.539   7.316  0.00  0.00    -0.058 A 
HETATM   20  C   UNK N   1      31.996  17.429   7.682  0.00  0.00     0.010 A 
HETATM   21  C   UNK N   1      31.012  17.254   6.706  0.00  0.00     0.043 A 
HETATM   22  C   UNK N   1      31.371  17.187   5.356  0.00  0.00     0.116 A 
HETATM   23  C   UNK N   1      32.714  17.303   4.985  0.00  0.00     0.043 A 
HETATM   24  F   UNK N   1      30.420  17.008   4.410  0.00  0.00    -0.206 F 
HETATM   25  C   UNK N   1      33.698  17.478   5.962  0.00  0.00     0.010 A 
ENDBRANCH  18  19
ENDBRANCH   6  18
TORSDOF 6
ENDMDL
MODEL 4
REMARK VINA RESULT:      -7.0      2.628      4.033
REMARK  6 active torsions:
REMARK  status: ('A' for Active; 'I' for Inactive)
REMARK    1  A    between atoms: N_3  and  C_15 
REMARK    2  A    between atoms: C_6  and  C_7 
REMARK    3  A    between atoms: C_7  and  C_8 
REMARK    4  A    between atoms: C_15  and  C_16 
REMARK    5  A    between atoms: C_16  and  C_17 
REMARK    6  A    between atoms: C_16  and  O_24 
ROOT
HETATM    1  C   UNK N   1      35.040  15.452  11.675  0.00  0.00     0.035 C 
HETATM    2  C   UNK N   1      35.321  16.493  10.587  0.00  0.00     0.273 C 
HETATM    3  N   UNK N   1      34.920  16.038   9.244  0.00  0.00     0.091 N 
HETATM    4  C   UNK N   1      35.677  14.834   8.870  0.00  0.00     0.273 C 
HETATM    5  C   UNK N   1      35.416  13.656   9.819  0.00  0.00     0.035 C 
HETATM    6  C   UNK N   1      35.605  14.104  11.261  0.00  0.00    -0.007 C 
ENDROOT
BRANCH   3   7
HETATM    7  C   UNK N   1      33.481  15.774   9.170  0.00  0.00     0.308 C 
BRANCH   7   8
HETATM    8  C   UNK N   1      32.720  17.007   8.700  0.00  0.00     0.179 C 
BRANCH   8   9
HETATM    9  C   UNK N   1      32.535  17.026   7.204  0.00  0.00    -0.028 A 
HETATM   10  C   UNK N   1      31.333  16.586   6.626  0.00  0.00     0.011 A 
HETATM   11  C   UNK N   1      31.154  16.634   5.241  0.00  0.00     0.024 A 
HETATM   12  C   UNK N   1      32.175  17.121   4.423  0.00  0.00     0.034 A 
HETATM   13  C   UNK N   1      33.376  17.559   4.988  0.00  0.00     0.024 A 
HETATM   14 Cl   UNK N   1      31.946  17.187   2.688  0.00  0.00    -0.084 Cl
HETATM   15  C   UNK N   1      33.555  17.517   6.375  0.00  0.00     0.011 A 
ENDBRANCH   8   9
BRANCH   8  16
HETATM   16  O   UNK N   1      31.491  17.055   9.362  0.00  0.00    -0.389 OA
HETATM   17  H   UNK N   1      31.052  16.254   9.687  0.00  0.00     0.210 HD
ENDBRANCH   8  16
ENDBRANCH   7   8
ENDBRANCH   3   7
BRANCH   6  18
HETATM   18  C   UNK N   1      36.532  13.343  12.204  0.00  0.00     0.043 C 
BRANCH  18  19
HETATM   19  C   UNK N   1      36.041  13.201  13.617  0.00  0.00    -0.058 A 
HETATM   20  C   UNK N   1      34.940  12.395  13.950  0.00  0.00     0.010 A 
HETATM   21  C   UNK N   1      34.498  12.315  15.273  0.00  0.00     0.043 A 
HETATM   22  C   UNK N   1      35.153  13.041  16.273  0.00  0.00     0.116 A 
HETATM   23  C   UNK N   1      36.253  13.839  15.949  0.00  0.00     0.043 A 
HETATM   24  F   UNK N   1      34.719  12.971  17.554  0.00  0.00    -0.206 F 
HETATM   25  C   UNK N   1      36.695  13.920  14.626  0.00  0.00     0.010 A 
ENDBRANCH  18  19
ENDBRANCH   6  18
TORSDOF 6
ENDMDL
MODEL 5
REMARK VINA RESULT:      -7.0      2.943      4.507
REMARK  6 active torsions:
REMARK  status: ('A' for Active; 'I' for Inactive)
REMARK    1  A    between atoms: N_3  and  C_15 
REMARK    2  A    between atoms: C_6  and  C_7 
REMARK    3  A    between atoms: C_7  and  C_8 
REMARK    4  A    between atoms: C_15  and  C_16 
REMARK    5  A    between atoms: C_16  and  C_17 
REMARK    6  A    between atoms: C_16  and  O_24 
ROOT
HETATM    1  C   UNK N   1      36.282  14.056   9.105  0.00  0.00     0.035 C 
HETATM    2  C   UNK N   1      34.977  13.836   8.335  0.00  0.00     0.273 C 
HETATM    3  N   UNK N   1      33.983  14.897   8.579  0.00  0.00     0.091 N 
HETATM    4  C   UNK N   1      33.622  14.935  10.004  0.00  0.00     0.273 C 
HETATM    5  C   UNK N   1      34.820  15.252  10.907  0.00  0.00     0.035 C 
HETATM    6  C   UNK N   1      35.980  14.325  10.569  0.00  0.00    -0.007 C 
ENDROOT
BRANCH   3   7
HETATM    7  C   UNK N   1      34.476  16.208   8.148  0.00  0.00     0.308 C 
BRANCH   7   8
HETATM    8  C   UNK N   1      33.669  16.737   6.969  0.00  0.00     0.179 C 
BRANCH   8   9
HETATM    9  C   UNK N   1      32.277  17.151   7.372  0.00  0.00    -0.028 A 
HETATM   10  C   UNK N   1      31.158  16.682   6.664  0.00  0.00     0.011 A 
HETATM   11  C   UNK N   1      29.868  17.044   7.059  0.00  0.00     0.024 A 
HETATM   12  C   UNK N   1      29.684  17.879   8.163  0.00  0.00     0.034 A 
HETATM   13  C   UNK N   1      30.791  18.353   8.873  0.00  0.00     0.024 A 
HETATM   14 Cl   UNK N   1      28.066  18.325   8.661  0.00  0.00    -0.084 Cl
HETATM   15  C   UNK N   1      32.084  17.987   8.482  0.00  0.00     0.011 A 
ENDBRANCH   8   9
BRANCH   8  16
HETATM   16  O   UNK N   1      34.365  17.800   6.389  0.00  0.00    -0.389 OA
HETATM   17  H   UNK N   1      34.581  18.604   6.888  0.00  0.00     0.210 HD
ENDBRANCH   8  16
ENDBRANCH   7   8
ENDBRANCH   3   7
BRANCH   6  18
HETATM   18  C   UNK N   1      36.671  13.505  11.654  0.00  0.00     0.043 C 
BRANCH  18  19
HETATM   19  C   UNK N   1      35.762  12.669  12.510  0.00  0.00    -0.058 A 
HETATM   20  C   UNK N   1      35.105  11.530  12.015  0.00  0.00     0.010 A 
HETATM   21  C   UNK N   1      34.244  10.799  12.837  0.00  0.00     0.043 A 
HETATM   22  C   UNK N   1      34.032  11.201  14.159  0.00  0.00     0.116 A 
HETATM   23  C   UNK N   1      34.687  12.329  14.659  0.00  0.00     0.043 A 
HETATM   24  F   UNK N   1      33.190  10.498  14.954  0.00  0.00    -0.206 F 
HETATM   25  C   UNK N   1      35.548  13.061  13.837  0.00  0.00     0.010 A 
ENDBRANCH  18  19
ENDBRANCH   6  18
TORSDOF 6
ENDMDL
MODEL 6
REMARK VINA RESULT:      -7.0      5.888     10.577
REMARK  6 active torsions:
REMARK  status: ('A' for Active; 'I' for Inactive)
REMARK    1  A    between atoms: N_3  and  C_15 
REMARK    2  A    between atoms: C_6  and  C_7 
REMARK    3  A    between atoms: C_7  and  C_8 
REMARK    4  A    between atoms: C_15  and  C_16 
REMARK    5  A    between atoms: C_16  and  C_17 
REMARK    6  A    between atoms: C_16  and  O_24 
ROOT
HETATM    1  C   UNK N   1      31.996  16.370   6.004  0.00  0.00     0.035 C 
HETATM    2  C   UNK N   1      32.989  17.522   6.189  0.00  0.00     0.273 C 
HETATM    3  N   UNK N   1      33.351  17.744   7.599  0.00  0.00     0.091 N 
HETATM    4  C   UNK N   1      32.157  18.098   8.380  0.00  0.00     0.273 C 
HETATM    5  C   UNK N   1      31.100  16.986   8.378  0.00  0.00     0.035 C 
HETATM    6  C   UNK N   1      30.818  16.545   6.948  0.00  0.00    -0.007 C 
ENDROOT
BRANCH   3   7
HETATM    7  C   UNK N   1      34.004  16.568   8.181  0.00  0.00     0.308 C 
BRANCH   7   8
HETATM    8  C   UNK N   1      34.556  16.875   9.567  0.00  0.00     0.179 C 
BRANCH   8   9
HETATM    9  C   UNK N   1      35.307  15.707  10.153  0.00  0.00    -0.028 A 
HETATM   10  C   UNK N   1      35.899  14.745   9.318  0.00  0.00     0.011 A 
HETATM   11  C   UNK N   1      36.619  13.680   9.864  0.00  0.00     0.024 A 
HETATM   12  C   UNK N   1      36.754  13.566  11.249  0.00  0.00     0.034 A 
HETATM   13  C   UNK N   1      36.167  14.517  12.089  0.00  0.00     0.024 A 
HETATM   14 Cl   UNK N   1      37.664  12.235  11.932  0.00  0.00    -0.084 Cl
HETATM   15  C   UNK N   1      35.449  15.587  11.544  0.00  0.00     0.011 A 
ENDBRANCH   8   9
BRANCH   8  16
HETATM   16  O   UNK N   1      35.369  18.009   9.486  0.00  0.00    -0.389 OA
HETATM   17  H   UNK N   1      35.496  18.603  10.242  0.00  0.00     0.210 HD
ENDBRANCH   8  16
ENDBRANCH   7   8
ENDBRANCH   3   7
BRANCH   6  18
HETATM   18  C   UNK N   1      29.393  16.508   6.404  0.00  0.00     0.043 C 
BRANCH  18  19
HETATM   19  C   UNK N   1      28.773  17.848   6.128  0.00  0.00    -0.058 A 
HETATM   20  C   UNK N   1      28.717  18.397   4.836  0.00  0.00     0.010 A 
HETATM   21  C   UNK N   1      28.158  19.660   4.629  0.00  0.00     0.043 A 
HETATM   22  C   UNK N   1      27.650  20.385   5.711  0.00  0.00     0.116 A 
HETATM   23  C   UNK N   1      27.696  19.842   6.998  0.00  0.00     0.043 A 
HETATM   24  F   UNK N   1      27.116  21.613   5.512  0.00  0.00    -0.206 F 
HETATM   25  C   UNK N   1      28.256  18.579   7.206  0.00  0.00     0.010 A 
ENDBRANCH  18  19
ENDBRANCH   6  18
TORSDOF 6
ENDMDL
MODEL 7
REMARK VINA RESULT:      -6.9      2.019      3.053
REMARK  6 active torsions:
REMARK  status: ('A' for Active; 'I' for Inactive)
REMARK    1  A    between atoms: N_3  and  C_15 
REMARK    2  A    between atoms: C_6  and  C_7 
REMARK    3  A    between atoms: C_7  and  C_8 
REMARK    4  A    between atoms: C_15  and  C_16 
REMARK    5  A    between atoms: C_16  and  C_17 
REMARK    6  A    between atoms: C_16  and  O_24 
ROOT
HETATM    1  C   UNK N   1      35.327  14.435  12.436  0.00  0.00     0.035 C 
HETATM    2  C   UNK N   1      35.730  15.658  11.606  0.00  0.00     0.273 C 
HETATM    3  N   UNK N   1      36.027  15.323  10.202  0.00  0.00     0.091 N 
HETATM    4  C   UNK N   1      37.156  14.384  10.132  0.00  0.00     0.273 C 
HETATM    5  C   UNK N   1      36.861  13.054  10.838  0.00  0.00     0.035 C 
HETATM    6  C   UNK N   1      36.341  13.321  12.244  0.00  0.00    -0.007 C 
ENDROOT
BRANCH   3   7
HETATM    7  C   UNK N   1      34.858  14.759   9.523  0.00  0.00     0.308 C 
BRANCH   7   8
HETATM    8  C   UNK N   1      33.676  15.719   9.574  0.00  0.00     0.179 C 
BRANCH   8   9
HETATM    9  C   UNK N   1      33.283  16.211   8.204  0.00  0.00    -0.028 A 
HETATM   10  C   UNK N   1      31.945  16.155   7.780  0.00  0.00     0.011 A 
HETATM   11  C   UNK N   1      31.580  16.641   6.522  0.00  0.00     0.024 A 
HETATM   12  C   UNK N   1      32.548  17.186   5.677  0.00  0.00     0.034 A 
HETATM   13  C   UNK N   1      33.882  17.244   6.088  0.00  0.00     0.024 A 
HETATM   14 Cl   UNK N   1      32.087  17.801   4.103  0.00  0.00    -0.084 Cl
HETATM   15  C   UNK N   1      34.249  16.763   7.350  0.00  0.00     0.011 A 
ENDBRANCH   8   9
BRANCH   8  16
HETATM   16  O   UNK N   1      32.607  15.082  10.208  0.00  0.00    -0.389 OA
HETATM   17  H   UNK N   1      32.269  15.381  11.066  0.00  0.00     0.210 HD
ENDBRANCH   8  16
ENDBRANCH   7   8
ENDBRANCH   3   7
BRANCH   6  18
HETATM   18  C   UNK N   1      36.985  12.658  13.458  0.00  0.00     0.043 C 
BRANCH  18  19
HETATM   19  C   UNK N   1      36.471  13.118  14.793  0.00  0.00    -0.058 A 
HETATM   20  C   UNK N   1      37.001  14.238  15.454  0.00  0.00     0.010 A 
HETATM   21  C   UNK N   1      36.514  14.614  16.708  0.00  0.00     0.043 A 
HETATM   22  C   UNK N   1      35.494  13.872  17.312  0.00  0.00     0.116 A 
HETATM   23  C   UNK N   1      34.958  12.761  16.656  0.00  0.00     0.043 A 
HETATM   24  F   UNK N   1      35.028  14.230  18.532  0.00  0.00    -0.206 F 
HETATM   25  C   UNK N   1      35.445  12.385  15.402  0.00  0.00     0.010 A 
ENDBRANCH  18  19
ENDBRANCH   6  18
TORSDOF 6
ENDMDL
MODEL 8
REMARK VINA RESULT:      -6.9     19.081     22.737
REMARK  6 active torsions:
REMARK  status: ('A' for Active; 'I' for Inactive)
REMARK    1  A    between atoms: N_3  and  C_15 
REMARK    2  A    between atoms: C_6  and  C_7 
REMARK    3  A    between atoms: C_7  and  C_8 
REMARK    4  A    between atoms: C_15  and  C_16 
REMARK    5  A    between atoms: C_16  and  C_17 
REMARK    6  A    between atoms: C_16  and  O_24 
ROOT
HETATM    1  C   UNK N   1      29.560  25.474  -5.209  0.00  0.00     0.035 C 
HETATM    2  C   UNK N   1      29.818  25.305  -3.709  0.00  0.00     0.273 C 
HETATM    3  N   UNK N   1      29.231  24.068  -3.164  0.00  0.00     0.091 N 
HETATM    4  C   UNK N   1      27.770  24.084  -3.333  0.00  0.00     0.273 C 
HETATM    5  C   UNK N   1      27.348  24.147  -4.806  0.00  0.00     0.035 C 
HETATM    6  C   UNK N   1      28.082  25.284  -5.505  0.00  0.00    -0.007 C 
ENDROOT
BRANCH   3   7
HETATM    7  C   UNK N   1      29.800  22.875  -3.796  0.00  0.00     0.308 C 
BRANCH   7   8
HETATM    8  C   UNK N   1      30.766  22.164  -2.857  0.00  0.00     0.179 C 
BRANCH   8   9
HETATM    9  C   UNK N   1      32.139  22.012  -3.460  0.00  0.00    -0.028 A 
HETATM   10  C   UNK N   1      33.028  21.037  -2.978  0.00  0.00     0.011 A 
HETATM   11  C   UNK N   1      34.288  20.880  -3.560  0.00  0.00     0.024 A 
HETATM   12  C   UNK N   1      34.671  21.694  -4.627  0.00  0.00     0.034 A 
HETATM   13  C   UNK N   1      33.795  22.669  -5.112  0.00  0.00     0.024 A 
HETATM   14 Cl   UNK N   1      36.249  21.489  -5.360  0.00  0.00    -0.084 Cl
HETATM   15  C   UNK N   1      32.530  22.825  -4.535  0.00  0.00     0.011 A 
ENDBRANCH   8   9
BRANCH   8  16
HETATM   16  O   UNK N   1      30.819  22.867  -1.650  0.00  0.00    -0.389 OA
HETATM   17  H   UNK N   1      30.638  23.819  -1.604  0.00  0.00     0.210 HD
ENDBRANCH   8  16
ENDBRANCH   7   8
ENDBRANCH   3   7
BRANCH   6  18
HETATM   18  C   UNK N   1      27.318  26.345  -6.292  0.00  0.00     0.043 C 
BRANCH  18  19
HETATM   19  C   UNK N   1      27.037  27.620  -5.550  0.00  0.00    -0.058 A 
HETATM   20  C   UNK N   1      27.679  28.829  -5.867  0.00  0.00     0.010 A 
HETATM   21  C   UNK N   1      27.410  29.986  -5.131  0.00  0.00     0.043 A 
HETATM   22  C   UNK N   1      26.497  29.944  -4.073  0.00  0.00     0.116 A 
HETATM   23  C   UNK N   1      25.849  28.746  -3.757  0.00  0.00     0.043 A 
HETATM   24  F   UNK N   1      26.242  31.062  -3.354  0.00  0.00    -0.206 F 
HETATM   25  C   UNK N   1      26.119  27.589  -4.492  0.00  0.00     0.010 A 
ENDBRANCH  18  19
ENDBRANCH   6  18
TORSDOF 6
ENDMDL
MODEL 9
REMARK VINA RESULT:      -6.7      4.414      9.059
REMARK  6 active torsions:
REMARK  status: ('A' for Active; 'I' for Inactive)
REMARK    1  A    between atoms: N_3  and  C_15 
REMARK    2  A    between atoms: C_6  and  C_7 
REMARK    3  A    between atoms: C_7  and  C_8 
REMARK    4  A    between atoms: C_15  and  C_16 
REMARK    5  A    between atoms: C_16  and  C_17 
REMARK    6  A    between atoms: C_16  and  O_24 
ROOT
HETATM    1  C   UNK N   1      32.852  15.206   9.372  0.00  0.00     0.035 C 
HETATM    2  C   UNK N   1      33.676  13.956   9.051  0.00  0.00     0.273 C 
HETATM    3  N   UNK N   1      34.960  13.916   9.774  0.00  0.00     0.091 N 
HETATM    4  C   UNK N   1      35.791  15.068   9.395  0.00  0.00     0.273 C 
HETATM    5  C   UNK N   1      35.137  16.409   9.754  0.00  0.00     0.035 C 
HETATM    6  C   UNK N   1      33.713  16.448   9.218  0.00  0.00    -0.007 C 
ENDROOT
BRANCH   3   7
HETATM    7  C   UNK N   1      34.762  13.891  11.225  0.00  0.00     0.308 C 
BRANCH   7   8
HETATM    8  C   UNK N   1      36.023  13.429  11.944  0.00  0.00     0.179 C 
BRANCH   8   9
HETATM    9  C   UNK N   1      35.812  13.285  13.430  0.00  0.00    -0.028 A 
HETATM   10  C   UNK N   1      36.575  14.038  14.337  0.00  0.00     0.011 A 
HETATM   11  C   UNK N   1      36.355  13.924  15.712  0.00  0.00     0.024 A 
HETATM   12  C   UNK N   1      35.373  13.057  16.192  0.00  0.00     0.034 A 
HETATM   13  C   UNK N   1      34.609  12.301  15.298  0.00  0.00     0.024 A 
HETATM   14 Cl   UNK N   1      35.094  12.921  17.916  0.00  0.00    -0.084 Cl
HETATM   15  C   UNK N   1      34.824  12.418  13.920  0.00  0.00     0.011 A 
ENDBRANCH   8   9
BRANCH   8  16
HETATM   16  O   UNK N   1      36.450  12.226  11.375  0.00  0.00    -0.389 OA
HETATM   17  H   UNK N   1      36.615  11.436  11.913  0.00  0.00     0.210 HD
ENDBRANCH   8  16
ENDBRANCH   7   8
ENDBRANCH   3   7
BRANCH   6  18
HETATM   18  C   UNK N   1      33.235  17.604   8.343  0.00  0.00     0.043 C 
BRANCH  18  19
HETATM   19  C   UNK N   1      31.760  17.631   8.059  0.00  0.00    -0.058 A 
HETATM   20  C   UNK N   1      30.837  18.214   8.943  0.00  0.00     0.010 A 
HETATM   21  C   UNK N   1      29.471  18.190   8.654  0.00  0.00     0.043 A 
HETATM   22  C   UNK N   1      29.015  17.584   7.479  0.00  0.00     0.116 A 
HETATM   23  C   UNK N   1      29.929  17.008   6.592  0.00  0.00     0.043 A 
HETATM   24  F   UNK N   1      27.691  17.552   7.202  0.00  0.00    -0.206 F 
HETATM   25  C   UNK N   1      31.296  17.030   6.882  0.00  0.00     0.010 A 
ENDBRANCH  18  19
ENDBRANCH   6  18
TORSDOF 6
ENDMDL
