MODEL 1
REMARK VINA RESULT:      -9.0      0.000      0.000
REMARK  6 active torsions:
REMARK  status: ('A' for Active; 'I' for Inactive)
REMARK    1  A    between atoms: C_2  and  C_4 
REMARK    2  A    between atoms: C_2  and  O_32 
REMARK    3  A    between atoms: C_9  and  C_10 
REMARK    4  A    between atoms: C_17  and  C_20 
REMARK    5  A    between atoms: C_21  and  C_22 
REMARK    6  A    between atoms: C_25  and  C_28 
ROOT
HETATM    1  C   UNK N   1      32.605  16.927   7.456  0.00  0.00    -0.023 A 
HETATM    2  C   UNK N   1      33.503  18.019   7.660  0.00  0.00     0.014 A 
HETATM    3  C   UNK N   1      34.511  17.940   8.652  0.00  0.00     0.033 A 
HETATM    4  C   UNK N   1      34.572  16.762   9.403  0.00  0.00     0.060 A 
HETATM    5  C   UNK N   1      33.766  15.713   9.127  0.00  0.00     0.061 A 
HETATM    6  C   UNK N   1      32.803  15.752   8.172  0.00  0.00     0.044 A 
HETATM    7  N   UNK N   1      33.938  14.748  10.028  0.00  0.00    -0.341 N 
HETATM    8  C   UNK N   1      34.858  15.255  10.862  0.00  0.00     0.106 A 
HETATM    9  N   UNK N   1      35.290  16.499  10.500  0.00  0.00    -0.341 N 
ATOM     10  HN  UNK N   1      35.990  17.085  10.955  1.00  0.00     0.167 HD
HETATM   11  H   UNK N   1      33.495  13.869  10.071  0.00  0.00     0.167 HD
ENDROOT
BRANCH   8  12
HETATM   12  C   UNK N   1      35.218  14.573  12.087  0.00  0.00     0.049 C 
HETATM   13  C   UNK N   1      34.871  13.319  12.311  0.00  0.00     0.015 C 
BRANCH  13  14
HETATM   14  C   UNK N   1      35.203  12.709  13.587  0.00  0.00    -0.036 A 
HETATM   15  C   UNK N   1      34.600  11.493  13.878  0.00  0.00     0.012 A 
HETATM   16  C   UNK N   1      34.698  10.956  15.153  0.00  0.00     0.017 A 
HETATM   17  C   UNK N   1      35.421  11.620  16.148  0.00  0.00     0.048 A 
HETATM   18  C   UNK N   1      36.077  12.824  15.847  0.00  0.00     0.017 A 
HETATM   19  C   UNK N   1      35.948  13.383  14.571  0.00  0.00     0.012 A 
BRANCH  17  20
HETATM   20  C   UNK N   1      35.454  11.067  17.536  0.00  0.00     0.417 C 
HETATM   21  F   UNK N   1      35.266  12.084  18.450  0.00  0.00    -0.166 F 
HETATM   22  F   UNK N   1      34.449  10.127  17.679  0.00  0.00    -0.166 F 
HETATM   23  F   UNK N   1      36.669  10.450  17.787  0.00  0.00    -0.166 F 
ENDBRANCH  17  20
ENDBRANCH  13  14
ENDBRANCH   8  12
BRANCH   1  24
HETATM   24  C   UNK N   1      31.347  17.108   6.682  0.00  0.00    -0.017 A 
HETATM   25  C   UNK N   1      31.438  17.034   5.283  0.00  0.00     0.013 A 
HETATM   26  C   UNK N   1      30.333  17.269   4.471  0.00  0.00     0.001 A 
HETATM   27  C   UNK N   1      29.112  17.607   5.038  0.00  0.00     0.001 A 
HETATM   28  C   UNK N   1      28.992  17.717   6.418  0.00  0.00     0.011 A 
HETATM   29  C   UNK N   1      30.075  17.477   7.280  0.00  0.00    -0.014 A 
BRANCH  29  30
HETATM   30  C   UNK N   1      29.813  17.720   8.782  0.00  0.00     0.078 C 
HETATM   31  C   UNK N   1      28.323  17.672   9.102  0.00  0.00     0.051 C 
HETATM   32  C   UNK N   1      30.435  19.024   9.263  0.00  0.00     0.051 C 
BRANCH  30  33
HETATM   33  O   UNK N   1      30.398  16.712   9.551  0.00  0.00    -0.386 OA
HETATM   34  H   UNK N   1      31.306  16.416   9.377  0.00  0.00     0.211 HD
ENDBRANCH  30  33
ENDBRANCH  29  30
ENDBRANCH   1  24
TORSDOF 6
ENDMDL
MODEL 2
REMARK VINA RESULT:      -9.0      1.668      2.956
REMARK  6 active torsions:
REMARK  status: ('A' for Active; 'I' for Inactive)
REMARK    1  A    between atoms: C_2  and  C_4 
REMARK    2  A    between atoms: C_2  and  O_32 
REMARK    3  A    between atoms: C_9  and  C_10 
REMARK    4  A    between atoms: C_17  and  C_20 
REMARK    5  A    between atoms: C_21  and  C_22 
REMARK    6  A    between atoms: C_25  and  C_28 
ROOT
HETATM    1  C   UNK N   1      33.369  16.270   8.873  0.00  0.00    -0.023 A 
HETATM    2  C   UNK N   1      34.399  17.192   9.231  0.00  0.00     0.014 A 
HETATM    3  C   UNK N   1      35.313  16.877  10.266  0.00  0.00     0.033 A 
HETATM    4  C   UNK N   1      35.149  15.643  10.903  0.00  0.00     0.060 A 
HETATM    5  C   UNK N   1      34.221  14.755  10.482  0.00  0.00     0.061 A 
HETATM    6  C   UNK N   1      33.343  15.021   9.482  0.00  0.00     0.044 A 
HETATM    7  N   UNK N   1      34.188  13.700  11.294  0.00  0.00    -0.341 N 
HETATM    8  C   UNK N   1      35.111  13.989  12.224  0.00  0.00     0.106 A 
HETATM    9  N   UNK N   1      35.742  15.181  12.008  0.00  0.00    -0.341 N 
ATOM     10  HN  UNK N   1      36.487  15.612  12.557  1.00  0.00     0.167 HD
HETATM   11  H   UNK N   1      33.620  12.899  11.228  0.00  0.00     0.167 HD
ENDROOT
BRANCH   8  12
HETATM   12  C   UNK N   1      35.281  13.158  13.397  0.00  0.00     0.049 C 
HETATM   13  C   UNK N   1      35.554  13.675  14.581  0.00  0.00     0.015 C 
BRANCH  13  14
HETATM   14  C   UNK N   1      35.781  12.786  15.707  0.00  0.00    -0.036 A 
HETATM   15  C   UNK N   1      36.433  11.589  15.441  0.00  0.00     0.012 A 
HETATM   16  C   UNK N   1      36.497  10.602  16.413  0.00  0.00     0.017 A 
HETATM   17  C   UNK N   1      35.928  10.809  17.673  0.00  0.00     0.048 A 
HETATM   18  C   UNK N   1      35.313  12.037  17.966  0.00  0.00     0.017 A 
HETATM   19  C   UNK N   1      35.218  13.018  16.974  0.00  0.00     0.012 A 
BRANCH  17  20
HETATM   20  C   UNK N   1      35.940   9.708  18.683  0.00  0.00     0.417 C 
HETATM   21  F   UNK N   1      34.879   9.860  19.554  0.00  0.00    -0.166 F 
HETATM   22  F   UNK N   1      35.834   8.490  18.035  0.00  0.00    -0.166 F 
HETATM   23  F   UNK N   1      37.123   9.719  19.403  0.00  0.00    -0.166 F 
ENDBRANCH  17  20
ENDBRANCH  13  14
ENDBRANCH   8  12
BRANCH   1  24
HETATM   24  C   UNK N   1      32.207  16.705   8.050  0.00  0.00    -0.017 A 
HETATM   25  C   UNK N   1      30.970  16.828   8.703  0.00  0.00     0.013 A 
HETATM   26  C   UNK N   1      29.811  17.149   8.004  0.00  0.00     0.001 A 
HETATM   27  C   UNK N   1      29.856  17.335   6.628  0.00  0.00     0.001 A 
HETATM   28  C   UNK N   1      31.058  17.193   5.946  0.00  0.00     0.011 A 
HETATM   29  C   UNK N   1      32.257  16.882   6.609  0.00  0.00    -0.014 A 
BRANCH  29  30
HETATM   30  C   UNK N   1      33.495  16.674   5.709  0.00  0.00     0.078 C 
HETATM   31  C   UNK N   1      33.177  16.970   4.247  0.00  0.00     0.051 C 
HETATM   32  C   UNK N   1      34.085  15.280   5.870  0.00  0.00     0.051 C 
BRANCH  30  33
HETATM   33  O   UNK N   1      34.513  17.562   6.063  0.00  0.00    -0.386 OA
HETATM   34  H   UNK N   1      35.316  17.248   6.507  0.00  0.00     0.211 HD
ENDBRANCH  30  33
ENDBRANCH  29  30
ENDBRANCH   1  24
TORSDOF 6
ENDMDL
MODEL 3
REMARK VINA RESULT:      -9.0      1.107      2.298
REMARK  6 active torsions:
REMARK  status: ('A' for Active; 'I' for Inactive)
REMARK    1  A    between atoms: C_2  and  C_4 
REMARK    2  A    between atoms: C_2  and  O_32 
REMARK    3  A    between atoms: C_9  and  C_10 
REMARK    4  A    between atoms: C_17  and  C_20 
REMARK    5  A    between atoms: C_21  and  C_22 
REMARK    6  A    between atoms: C_25  and  C_28 
ROOT
HETATM    1  C   UNK N   1      32.228  17.022   7.711  0.00  0.00    -0.023 A 
HETATM    2  C   UNK N   1      33.341  17.917   7.715  0.00  0.00     0.014 A 
HETATM    3  C   UNK N   1      34.435  17.695   8.586  0.00  0.00     0.033 A 
HETATM    4  C   UNK N   1      34.362  16.577   9.423  0.00  0.00     0.060 A 
HETATM    5  C   UNK N   1      33.337  15.700   9.334  0.00  0.00     0.061 A 
HETATM    6  C   UNK N   1      32.284  15.877   8.497  0.00  0.00     0.044 A 
HETATM    7  N   UNK N   1      33.434  14.776  10.288  0.00  0.00    -0.341 N 
HETATM    8  C   UNK N   1      34.536  15.135  10.963  0.00  0.00     0.106 A 
HETATM    9  N   UNK N   1      35.151  16.240  10.448  0.00  0.00    -0.341 N 
ATOM     10  HN  UNK N   1      36.006  16.697  10.768  1.00  0.00     0.167 HD
HETATM   11  H   UNK N   1      32.837  14.011  10.457  0.00  0.00     0.167 HD
ENDROOT
BRANCH   8  12
HETATM   12  C   UNK N   1      34.914  14.470  12.192  0.00  0.00     0.049 C 
HETATM   13  C   UNK N   1      34.859  13.156  12.316  0.00  0.00     0.015 C 
BRANCH  13  14
HETATM   14  C   UNK N   1      35.185  12.550  13.595  0.00  0.00    -0.036 A 
HETATM   15  C   UNK N   1      34.457  11.426  13.962  0.00  0.00     0.012 A 
HETATM   16  C   UNK N   1      34.560  10.921  15.250  0.00  0.00     0.017 A 
HETATM   17  C   UNK N   1      35.413  11.522  16.180  0.00  0.00     0.048 A 
HETATM   18  C   UNK N   1      36.191  12.627  15.800  0.00  0.00     0.017 A 
HETATM   19  C   UNK N   1      36.060  13.157  14.513  0.00  0.00     0.012 A 
BRANCH  17  20
HETATM   20  C   UNK N   1      35.456  11.012  17.584  0.00  0.00     0.417 C 
HETATM   21  F   UNK N   1      35.291  12.060  18.468  0.00  0.00    -0.166 F 
HETATM   22  F   UNK N   1      34.442  10.089  17.768  0.00  0.00    -0.166 F 
HETATM   23  F   UNK N   1      36.667  10.390  17.840  0.00  0.00    -0.166 F 
ENDBRANCH  17  20
ENDBRANCH  13  14
ENDBRANCH   8  12
BRANCH   1  24
HETATM   24  C   UNK N   1      30.939  17.409   7.075  0.00  0.00    -0.017 A 
HETATM   25  C   UNK N   1      29.910  17.843   7.927  0.00  0.00     0.013 A 
HETATM   26  C   UNK N   1      28.645  18.149   7.436  0.00  0.00     0.001 A 
HETATM   27  C   UNK N   1      28.369  18.006   6.083  0.00  0.00     0.001 A 
HETATM   28  C   UNK N   1      29.355  17.552   5.215  0.00  0.00     0.011 A 
HETATM   29  C   UNK N   1      30.651  17.243   5.661  0.00  0.00    -0.014 A 
BRANCH  29  30
HETATM   30  C   UNK N   1      31.615  16.669   4.599  0.00  0.00     0.078 C 
HETATM   31  C   UNK N   1      32.750  17.641   4.295  0.00  0.00     0.051 C 
HETATM   32  C   UNK N   1      30.882  16.268   3.327  0.00  0.00     0.051 C 
BRANCH  30  33
HETATM   33  O   UNK N   1      32.227  15.506   5.069  0.00  0.00    -0.386 OA
HETATM   34  H   UNK N   1      33.073  15.546   5.544  0.00  0.00     0.211 HD
ENDBRANCH  30  33
ENDBRANCH  29  30
ENDBRANCH   1  24
TORSDOF 6
ENDMDL
MODEL 4
REMARK VINA RESULT:      -8.3      5.907     10.696
REMARK  6 active torsions:
REMARK  status: ('A' for Active; 'I' for Inactive)
REMARK    1  A    between atoms: C_2  and  C_4 
REMARK    2  A    between atoms: C_2  and  O_32 
REMARK    3  A    between atoms: C_9  and  C_10 
REMARK    4  A    between atoms: C_17  and  C_20 
REMARK    5  A    between atoms: C_21  and  C_22 
REMARK    6  A    between atoms: C_25  and  C_28 
ROOT
HETATM    1  C   UNK N   1      35.880  13.915  11.920  0.00  0.00    -0.023 A 
HETATM    2  C   UNK N   1      36.634  15.102  11.674  0.00  0.00     0.014 A 
HETATM    3  C   UNK N   1      36.069  16.170  10.936  0.00  0.00     0.033 A 
HETATM    4  C   UNK N   1      34.762  15.997  10.471  0.00  0.00     0.060 A 
HETATM    5  C   UNK N   1      34.042  14.900  10.795  0.00  0.00     0.061 A 
HETATM    6  C   UNK N   1      34.550  13.869  11.515  0.00  0.00     0.044 A 
HETATM    7  N   UNK N   1      32.869  14.913  10.164  0.00  0.00    -0.341 N 
HETATM    8  C   UNK N   1      32.914  16.041   9.439  0.00  0.00     0.106 A 
HETATM    9  N   UNK N   1      34.067  16.752   9.613  0.00  0.00    -0.341 N 
ATOM     10  HN  UNK N   1      34.332  17.643   9.193  1.00  0.00     0.167 HD
HETATM   11  H   UNK N   1      32.142  14.251  10.217  0.00  0.00     0.167 HD
ENDROOT
BRANCH   8  12
HETATM   12  C   UNK N   1      31.880  16.355   8.475  0.00  0.00     0.049 C 
HETATM   13  C   UNK N   1      31.116  17.425   8.601  0.00  0.00     0.015 C 
BRANCH  13  14
HETATM   14  C   UNK N   1      30.051  17.652   7.639  0.00  0.00    -0.036 A 
HETATM   15  C   UNK N   1      30.262  17.188   6.348  0.00  0.00     0.012 A 
HETATM   16  C   UNK N   1      29.393  17.550   5.329  0.00  0.00     0.017 A 
HETATM   17  C   UNK N   1      28.289  18.365   5.595  0.00  0.00     0.048 A 
HETATM   18  C   UNK N   1      28.041  18.795   6.909  0.00  0.00     0.017 A 
HETATM   19  C   UNK N   1      28.937  18.459   7.928  0.00  0.00     0.012 A 
BRANCH  17  20
HETATM   20  C   UNK N   1      27.405  18.807   4.474  0.00  0.00     0.417 C 
HETATM   21  F   UNK N   1      27.803  20.051   4.027  0.00  0.00    -0.166 F 
HETATM   22  F   UNK N   1      27.490  17.895   3.437  0.00  0.00    -0.166 F 
HETATM   23  F   UNK N   1      26.086  18.876   4.890  0.00  0.00    -0.166 F 
ENDBRANCH  17  20
ENDBRANCH  13  14
ENDBRANCH   8  12
BRANCH   1  24
HETATM   24  C   UNK N   1      36.547  12.667  12.379  0.00  0.00    -0.017 A 
HETATM   25  C   UNK N   1      37.025  11.794  11.387  0.00  0.00     0.013 A 
HETATM   26  C   UNK N   1      37.590  10.566  11.715  0.00  0.00     0.001 A 
HETATM   27  C   UNK N   1      37.672  10.169  13.043  0.00  0.00     0.001 A 
HETATM   28  C   UNK N   1      37.183  10.995  14.048  0.00  0.00     0.011 A 
HETATM   29  C   UNK N   1      36.615  12.249  13.768  0.00  0.00    -0.014 A 
BRANCH  29  30
HETATM   30  C   UNK N   1      36.040  13.017  14.978  0.00  0.00     0.078 C 
HETATM   31  C   UNK N   1      36.813  14.306  15.238  0.00  0.00     0.051 C 
HETATM   32  C   UNK N   1      35.985  12.150  16.227  0.00  0.00     0.051 C 
BRANCH  30  33
HETATM   33  O   UNK N   1      34.723  13.409  14.728  0.00  0.00    -0.386 OA
HETATM   34  H   UNK N   1      33.979  12.960  15.160  0.00  0.00     0.211 HD
ENDBRANCH  30  33
ENDBRANCH  29  30
ENDBRANCH   1  24
TORSDOF 6
ENDMDL
MODEL 5
REMARK VINA RESULT:      -8.3      5.482     10.931
REMARK  6 active torsions:
REMARK  status: ('A' for Active; 'I' for Inactive)
REMARK    1  A    between atoms: C_2  and  C_4 
REMARK    2  A    between atoms: C_2  and  O_32 
REMARK    3  A    between atoms: C_9  and  C_10 
REMARK    4  A    between atoms: C_17  and  C_20 
REMARK    5  A    between atoms: C_21  and  C_22 
REMARK    6  A    between atoms: C_25  and  C_28 
ROOT
HETATM    1  C   UNK N   1      36.457  12.214  14.469  0.00  0.00    -0.023 A 
HETATM    2  C   UNK N   1      36.878  13.499  14.929  0.00  0.00     0.014 A 
HETATM    3  C   UNK N   1      36.504  14.669  14.225  0.00  0.00     0.033 A 
HETATM    4  C   UNK N   1      35.722  14.497  13.079  0.00  0.00     0.060 A 
HETATM    5  C   UNK N   1      35.266  13.277  12.718  0.00  0.00     0.061 A 
HETATM    6  C   UNK N   1      35.592  12.140  13.383  0.00  0.00     0.044 A 
HETATM    7  N   UNK N   1      34.628  13.347  11.552  0.00  0.00    -0.341 N 
HETATM    8  C   UNK N   1      34.729  14.642  11.215  0.00  0.00     0.106 A 
HETATM    9  N   UNK N   1      35.389  15.394  12.145  0.00  0.00    -0.341 N 
ATOM     10  HN  UNK N   1      35.580  16.396  12.130  1.00  0.00     0.167 HD
HETATM   11  H   UNK N   1      34.186  12.621  11.055  0.00  0.00     0.167 HD
ENDROOT
BRANCH   8  12
HETATM   12  C   UNK N   1      34.293  15.117   9.919  0.00  0.00     0.049 C 
HETATM   13  C   UNK N   1      34.002  16.388   9.707  0.00  0.00     0.015 C 
BRANCH  13  14
HETATM   14  C   UNK N   1      33.505  16.793   8.403  0.00  0.00    -0.036 A 
HETATM   15  C   UNK N   1      32.127  16.824   8.239  0.00  0.00     0.012 A 
HETATM   16  C   UNK N   1      31.581  16.992   6.974  0.00  0.00     0.017 A 
HETATM   17  C   UNK N   1      32.411  17.154   5.861  0.00  0.00     0.048 A 
HETATM   18  C   UNK N   1      33.805  17.176   6.027  0.00  0.00     0.017 A 
HETATM   19  C   UNK N   1      34.354  16.970   7.297  0.00  0.00     0.012 A 
BRANCH  17  20
HETATM   20  C   UNK N   1      31.809  17.258   4.496  0.00  0.00     0.417 C 
HETATM   21  F   UNK N   1      30.611  17.940   4.565  0.00  0.00    -0.166 F 
HETATM   22  F   UNK N   1      32.680  17.938   3.663  0.00  0.00    -0.166 F 
HETATM   23  F   UNK N   1      31.585  15.999   3.964  0.00  0.00    -0.166 F 
ENDBRANCH  17  20
ENDBRANCH  13  14
ENDBRANCH   8  12
BRANCH   1  24
HETATM   24  C   UNK N   1      37.105  10.972  14.972  0.00  0.00    -0.017 A 
HETATM   25  C   UNK N   1      38.250  10.526  14.293  0.00  0.00     0.013 A 
HETATM   26  C   UNK N   1      38.878   9.334  14.638  0.00  0.00     0.001 A 
HETATM   27  C   UNK N   1      38.363   8.544  15.656  0.00  0.00     0.001 A 
HETATM   28  C   UNK N   1      37.215   8.940  16.332  0.00  0.00     0.011 A 
HETATM   29  C   UNK N   1      36.552  10.142  16.028  0.00  0.00    -0.014 A 
BRANCH  29  30
HETATM   30  C   UNK N   1      35.243  10.408  16.803  0.00  0.00     0.078 C 
HETATM   31  C   UNK N   1      35.312  11.720  17.579  0.00  0.00     0.051 C 
HETATM   32  C   UNK N   1      34.880   9.248  17.720  0.00  0.00     0.051 C 
BRANCH  30  33
HETATM   33  O   UNK N   1      34.170  10.546  15.920  0.00  0.00    -0.386 OA
HETATM   34  H   UNK N   1      34.160  10.076  15.072  0.00  0.00     0.211 HD
ENDBRANCH  30  33
ENDBRANCH  29  30
ENDBRANCH   1  24
TORSDOF 6
ENDMDL
MODEL 6
REMARK VINA RESULT:      -8.2      1.664      2.554
REMARK  6 active torsions:
REMARK  status: ('A' for Active; 'I' for Inactive)
REMARK    1  A    between atoms: C_2  and  C_4 
REMARK    2  A    between atoms: C_2  and  O_32 
REMARK    3  A    between atoms: C_9  and  C_10 
REMARK    4  A    between atoms: C_17  and  C_20 
REMARK    5  A    between atoms: C_21  and  C_22 
REMARK    6  A    between atoms: C_25  and  C_28 
ROOT
HETATM    1  C   UNK N   1      33.847  14.633   8.165  0.00  0.00    -0.023 A 
HETATM    2  C   UNK N   1      34.861  15.633   8.268  0.00  0.00     0.014 A 
HETATM    3  C   UNK N   1      35.671  15.714   9.426  0.00  0.00     0.033 A 
HETATM    4  C   UNK N   1      35.423  14.784  10.440  0.00  0.00     0.060 A 
HETATM    5  C   UNK N   1      34.516  13.795  10.277  0.00  0.00     0.061 A 
HETATM    6  C   UNK N   1      33.738  13.680   9.172  0.00  0.00     0.044 A 
HETATM    7  N   UNK N   1      34.386  13.096  11.403  0.00  0.00    -0.341 N 
HETATM    8  C   UNK N   1      35.229  13.705  12.251  0.00  0.00     0.106 A 
HETATM    9  N   UNK N   1      35.904  14.750  11.687  0.00  0.00    -0.341 N 
ATOM     10  HN  UNK N   1      36.606  15.355  12.114  1.00  0.00     0.167 HD
HETATM   11  H   UNK N   1      33.808  12.317  11.573  0.00  0.00     0.167 HD
ENDROOT
BRANCH   8  12
HETATM   12  C   UNK N   1      35.275  13.345  13.652  0.00  0.00     0.049 C 
HETATM   13  C   UNK N   1      34.843  12.173  14.082  0.00  0.00     0.015 C 
BRANCH  13  14
HETATM   14  C   UNK N   1      34.852  11.893  15.508  0.00  0.00    -0.036 A 
HETATM   15  C   UNK N   1      35.035  12.976  16.359  0.00  0.00     0.012 A 
HETATM   16  C   UNK N   1      35.267  12.766  17.710  0.00  0.00     0.017 A 
HETATM   17  C   UNK N   1      35.296  11.469  18.231  0.00  0.00     0.048 A 
HETATM   18  C   UNK N   1      35.060  10.373  17.385  0.00  0.00     0.017 A 
HETATM   19  C   UNK N   1      34.862  10.583  16.017  0.00  0.00     0.012 A 
BRANCH  17  20
HETATM   20  C   UNK N   1      35.622  11.255  19.674  0.00  0.00     0.417 C 
HETATM   21  F   UNK N   1      35.818  12.473  20.294  0.00  0.00    -0.166 F 
HETATM   22  F   UNK N   1      34.575  10.589  20.286  0.00  0.00    -0.166 F 
HETATM   23  F   UNK N   1      36.768  10.489  19.807  0.00  0.00    -0.166 F 
ENDBRANCH  17  20
ENDBRANCH  13  14
ENDBRANCH   8  12
BRANCH   1  24
HETATM   24  C   UNK N   1      32.774  14.736   7.139  0.00  0.00    -0.017 A 
HETATM   25  C   UNK N   1      32.917  13.954   5.981  0.00  0.00     0.013 A 
HETATM   26  C   UNK N   1      32.009  14.042   4.931  0.00  0.00     0.001 A 
HETATM   27  C   UNK N   1      30.946  14.932   5.002  0.00  0.00     0.001 A 
HETATM   28  C   UNK N   1      30.789  15.742   6.120  0.00  0.00     0.011 A 
HETATM   29  C   UNK N   1      31.672  15.680   7.211  0.00  0.00    -0.014 A 
BRANCH  29  30
HETATM   30  C   UNK N   1      31.421  16.699   8.344  0.00  0.00     0.078 C 
HETATM   31  C   UNK N   1      29.993  17.235   8.305  0.00  0.00     0.051 C 
HETATM   32  C   UNK N   1      32.433  17.835   8.321  0.00  0.00     0.051 C 
BRANCH  30  33
HETATM   33  O   UNK N   1      31.562  16.089   9.592  0.00  0.00    -0.386 OA
HETATM   34  H   UNK N   1      30.803  15.993  10.188  0.00  0.00     0.211 HD
ENDBRANCH  30  33
ENDBRANCH  29  30
ENDBRANCH   1  24
TORSDOF 6
ENDMDL
MODEL 7
REMARK VINA RESULT:      -8.1      7.869     12.342
REMARK  6 active torsions:
REMARK  status: ('A' for Active; 'I' for Inactive)
REMARK    1  A    between atoms: C_2  and  C_4 
REMARK    2  A    between atoms: C_2  and  O_32 
REMARK    3  A    between atoms: C_9  and  C_10 
REMARK    4  A    between atoms: C_17  and  C_20 
REMARK    5  A    between atoms: C_21  and  C_22 
REMARK    6  A    between atoms: C_25  and  C_28 
ROOT
HETATM    1  C   UNK N   1      32.798  16.213   6.227  0.00  0.00    -0.023 A 
HETATM    2  C   UNK N   1      33.260  16.875   5.049  0.00  0.00     0.014 A 
HETATM    3  C   UNK N   1      32.353  17.582   4.223  0.00  0.00     0.033 A 
HETATM    4  C   UNK N   1      31.012  17.590   4.617  0.00  0.00     0.060 A 
HETATM    5  C   UNK N   1      30.619  17.029   5.783  0.00  0.00     0.061 A 
HETATM    6  C   UNK N   1      31.468  16.361   6.603  0.00  0.00     0.044 A 
HETATM    7  N   UNK N   1      29.294  17.077   5.897  0.00  0.00    -0.341 N 
HETATM    8  C   UNK N   1      28.901  17.667   4.757  0.00  0.00     0.106 A 
HETATM    9  N   UNK N   1      29.939  18.016   3.941  0.00  0.00    -0.341 N 
ATOM     10  HN  UNK N   1      29.904  18.487   3.038  1.00  0.00     0.167 HD
HETATM   11  H   UNK N   1      28.735  16.755   6.641  0.00  0.00     0.167 HD
ENDROOT
BRANCH   8  12
HETATM   12  C   UNK N   1      27.499  17.771   4.411  0.00  0.00     0.049 C 
HETATM   13  C   UNK N   1      26.986  18.884   3.917  0.00  0.00     0.015 C 
BRANCH  13  14
HETATM   14  C   UNK N   1      25.560  18.950   3.651  0.00  0.00    -0.036 A 
HETATM   15  C   UNK N   1      25.071  20.144   3.138  0.00  0.00     0.012 A 
HETATM   16  C   UNK N   1      23.703  20.359   3.059  0.00  0.00     0.017 A 
HETATM   17  C   UNK N   1      22.806  19.370   3.472  0.00  0.00     0.048 A 
HETATM   18  C   UNK N   1      23.293  18.140   3.943  0.00  0.00     0.017 A 
HETATM   19  C   UNK N   1      24.672  17.938   4.056  0.00  0.00     0.012 A 
BRANCH  17  20
HETATM   20  C   UNK N   1      21.337  19.644   3.451  0.00  0.00     0.417 C 
HETATM   21  F   UNK N   1      20.685  18.651   2.746  0.00  0.00    -0.166 F 
HETATM   22  F   UNK N   1      20.859  19.679   4.748  0.00  0.00    -0.166 F 
HETATM   23  F   UNK N   1      21.078  20.867   2.854  0.00  0.00    -0.166 F 
ENDBRANCH  17  20
ENDBRANCH  13  14
ENDBRANCH   8  12
BRANCH   1  24
HETATM   24  C   UNK N   1      33.641  15.195   6.912  0.00  0.00    -0.017 A 
HETATM   25  C   UNK N   1      33.693  13.914   6.337  0.00  0.00     0.013 A 
HETATM   26  C   UNK N   1      34.388  12.874   6.946  0.00  0.00     0.001 A 
HETATM   27  C   UNK N   1      35.030  13.083   8.159  0.00  0.00     0.001 A 
HETATM   28  C   UNK N   1      34.976  14.330   8.771  0.00  0.00     0.011 A 
HETATM   29  C   UNK N   1      34.298  15.414   8.188  0.00  0.00    -0.014 A 
BRANCH  29  30
HETATM   30  C   UNK N   1      34.252  16.712   9.024  0.00  0.00     0.078 C 
HETATM   31  C   UNK N   1      34.676  17.921   8.196  0.00  0.00     0.051 C 
HETATM   32  C   UNK N   1      35.083  16.599  10.294  0.00  0.00     0.051 C 
BRANCH  30  33
HETATM   33  O   UNK N   1      32.948  16.979   9.443  0.00  0.00    -0.386 OA
HETATM   34  H   UNK N   1      32.567  16.519  10.208  0.00  0.00     0.211 HD
ENDBRANCH  30  33
ENDBRANCH  29  30
ENDBRANCH   1  24
TORSDOF 6
ENDMDL
MODEL 8
REMARK VINA RESULT:      -8.1      5.676     10.541
REMARK  6 active torsions:
REMARK  status: ('A' for Active; 'I' for Inactive)
REMARK    1  A    between atoms: C_2  and  C_4 
REMARK    2  A    between atoms: C_2  and  O_32 
REMARK    3  A    between atoms: C_9  and  C_10 
REMARK    4  A    between atoms: C_17  and  C_20 
REMARK    5  A    between atoms: C_21  and  C_22 
REMARK    6  A    between atoms: C_25  and  C_28 
ROOT
HETATM    1  C   UNK N   1      36.001  14.348  11.982  0.00  0.00    -0.023 A 
HETATM    2  C   UNK N   1      36.934  13.916  10.992  0.00  0.00     0.014 A 
HETATM    3  C   UNK N   1      36.756  14.278   9.634  0.00  0.00     0.033 A 
HETATM    4  C   UNK N   1      35.637  15.059   9.328  0.00  0.00     0.060 A 
HETATM    5  C   UNK N   1      34.821  15.525  10.299  0.00  0.00     0.061 A 
HETATM    6  C   UNK N   1      34.977  15.211  11.610  0.00  0.00     0.044 A 
HETATM    7  N   UNK N   1      33.780  16.160   9.764  0.00  0.00    -0.341 N 
HETATM    8  C   UNK N   1      33.987  16.046   8.443  0.00  0.00     0.106 A 
HETATM    9  N   UNK N   1      35.138  15.382   8.130  0.00  0.00    -0.341 N 
ATOM     10  HN  UNK N   1      35.525  15.183   7.207  1.00  0.00     0.167 HD
HETATM   11  H   UNK N   1      33.035  16.607  10.228  0.00  0.00     0.167 HD
ENDROOT
BRANCH   8  12
HETATM   12  C   UNK N   1      32.988  16.476   7.487  0.00  0.00     0.049 C 
HETATM   13  C   UNK N   1      31.822  16.962   7.872  0.00  0.00     0.015 C 
BRANCH  13  14
HETATM   14  C   UNK N   1      30.834  17.313   6.867  0.00  0.00    -0.036 A 
HETATM   15  C   UNK N   1      29.557  17.618   7.320  0.00  0.00     0.012 A 
HETATM   16  C   UNK N   1      28.513  17.754   6.418  0.00  0.00     0.017 A 
HETATM   17  C   UNK N   1      28.738  17.608   5.046  0.00  0.00     0.048 A 
HETATM   18  C   UNK N   1      30.037  17.350   4.577  0.00  0.00     0.017 A 
HETATM   19  C   UNK N   1      31.082  17.178   5.489  0.00  0.00     0.012 A 
BRANCH  17  20
HETATM   20  C   UNK N   1      27.590  17.682   4.093  0.00  0.00     0.417 C 
HETATM   21  F   UNK N   1      27.461  18.972   3.616  0.00  0.00    -0.166 F 
HETATM   22  F   UNK N   1      27.816  16.819   3.035  0.00  0.00    -0.166 F 
HETATM   23  F   UNK N   1      26.412  17.310   4.719  0.00  0.00    -0.166 F 
ENDBRANCH  17  20
ENDBRANCH  13  14
ENDBRANCH   8  12
BRANCH   1  24
HETATM   24  C   UNK N   1      35.966  13.712  13.328  0.00  0.00    -0.017 A 
HETATM   25  C   UNK N   1      36.560  14.419  14.386  0.00  0.00     0.013 A 
HETATM   26  C   UNK N   1      36.649  13.873  15.662  0.00  0.00     0.001 A 
HETATM   27  C   UNK N   1      36.166  12.594  15.908  0.00  0.00     0.001 A 
HETATM   28  C   UNK N   1      35.598  11.854  14.878  0.00  0.00     0.011 A 
HETATM   29  C   UNK N   1      35.474  12.368  13.575  0.00  0.00    -0.014 A 
BRANCH  29  30
HETATM   30  C   UNK N   1      34.900  11.400  12.517  0.00  0.00     0.078 C 
HETATM   31  C   UNK N   1      33.935  10.399  13.144  0.00  0.00     0.051 C 
HETATM   32  C   UNK N   1      36.000  10.688  11.743  0.00  0.00     0.051 C 
BRANCH  30  33
HETATM   33  O   UNK N   1      34.156  12.100  11.566  0.00  0.00    -0.386 OA
HETATM   34  H   UNK N   1      33.198  12.213  11.668  0.00  0.00     0.211 HD
ENDBRANCH  30  33
ENDBRANCH  29  30
ENDBRANCH   1  24
TORSDOF 6
ENDMDL
MODEL 9
REMARK VINA RESULT:      -7.9      3.618      5.504
REMARK  6 active torsions:
REMARK  status: ('A' for Active; 'I' for Inactive)
REMARK    1  A    between atoms: C_2  and  C_4 
REMARK    2  A    between atoms: C_2  and  O_32 
REMARK    3  A    between atoms: C_9  and  C_10 
REMARK    4  A    between atoms: C_17  and  C_20 
REMARK    5  A    between atoms: C_21  and  C_22 
REMARK    6  A    between atoms: C_25  and  C_28 
ROOT
HETATM    1  C   UNK N   1      28.132  17.901   6.499  0.00  0.00    -0.023 A 
HETATM    2  C   UNK N   1      28.033  18.689   7.685  0.00  0.00     0.014 A 
HETATM    3  C   UNK N   1      29.082  18.685   8.637  0.00  0.00     0.033 A 
HETATM    4  C   UNK N   1      30.190  17.880   8.356  0.00  0.00     0.060 A 
HETATM    5  C   UNK N   1      30.294  17.214   7.184  0.00  0.00     0.061 A 
HETATM    6  C   UNK N   1      29.314  17.214   6.245  0.00  0.00     0.044 A 
HETATM    7  N   UNK N   1      31.381  16.446   7.182  0.00  0.00    -0.341 N 
HETATM    8  C   UNK N   1      31.918  16.657   8.394  0.00  0.00     0.106 A 
HETATM    9  N   UNK N   1      31.216  17.554   9.148  0.00  0.00    -0.341 N 
ATOM     10  HN  UNK N   1      31.426  17.893  10.087  1.00  0.00     0.167 HD
HETATM   11  H   UNK N   1      31.713  15.862   6.462  0.00  0.00     0.167 HD
ENDROOT
BRANCH   8  12
HETATM   12  C   UNK N   1      33.047  15.880   8.860  0.00  0.00     0.049 C 
HETATM   13  C   UNK N   1      34.008  16.421   9.587  0.00  0.00     0.015 C 
BRANCH  13  14
HETATM   14  C   UNK N   1      35.150  15.607   9.970  0.00  0.00    -0.036 A 
HETATM   15  C   UNK N   1      35.803  14.924   8.952  0.00  0.00     0.012 A 
HETATM   16  C   UNK N   1      36.759  13.968   9.260  0.00  0.00     0.017 A 
HETATM   17  C   UNK N   1      37.090  13.700  10.592  0.00  0.00     0.048 A 
HETATM   18  C   UNK N   1      36.471  14.424  11.623  0.00  0.00     0.017 A 
HETATM   19  C   UNK N   1      35.482  15.363  11.314  0.00  0.00     0.012 A 
BRANCH  17  20
HETATM   20  C   UNK N   1      38.068  12.615  10.910  0.00  0.00     0.417 C 
HETATM   21  F   UNK N   1      37.956  12.259  12.239  0.00  0.00    -0.166 F 
HETATM   22  F   UNK N   1      37.805  11.514  10.113  0.00  0.00    -0.166 F 
HETATM   23  F   UNK N   1      39.363  13.037  10.661  0.00  0.00    -0.166 F 
ENDBRANCH  17  20
ENDBRANCH  13  14
ENDBRANCH   8  12
BRANCH   1  24
HETATM   24  C   UNK N   1      26.930  17.618   5.668  0.00  0.00    -0.017 A 
HETATM   25  C   UNK N   1      26.370  16.334   5.768  0.00  0.00     0.013 A 
HETATM   26  C   UNK N   1      25.296  15.948   4.972  0.00  0.00     0.001 A 
HETATM   27  C   UNK N   1      24.769  16.830   4.038  0.00  0.00     0.001 A 
HETATM   28  C   UNK N   1      25.317  18.099   3.892  0.00  0.00     0.011 A 
HETATM   29  C   UNK N   1      26.393  18.538   4.681  0.00  0.00    -0.014 A 
BRANCH  29  30
HETATM   30  C   UNK N   1      26.950  19.940   4.347  0.00  0.00     0.078 C 
HETATM   31  C   UNK N   1      26.789  20.897   5.523  0.00  0.00     0.051 C 
HETATM   32  C   UNK N   1      26.324  20.513   3.084  0.00  0.00     0.051 C 
BRANCH  30  33
HETATM   33  O   UNK N   1      28.322  19.875   4.097  0.00  0.00    -0.386 OA
HETATM   34  H   UNK N   1      28.840  20.682   3.948  0.00  0.00     0.211 HD
ENDBRANCH  30  33
ENDBRANCH  29  30
ENDBRANCH   1  24
TORSDOF 6
ENDMDL
