MODEL 1
REMARK VINA RESULT:      -6.4      0.000      0.000
REMARK  3 active torsions:
REMARK  status: ('A' for Active; 'I' for Inactive)
REMARK    1  A    between atoms: C_8  and  N_11 
REMARK    2  A    between atoms: C_12  and  C_17 
REMARK    3  A    between atoms: C_17  and  N_18 
ROOT
HETATM    1  C   UNK N   1      27.778  19.162   4.200  0.00  0.00     0.050 A 
HETATM    2  C   UNK N   1      26.976  20.305   4.168  0.00  0.00     0.119 A 
HETATM    3  C   UNK N   1      26.552  20.894   5.361  0.00  0.00     0.085 A 
HETATM    4  C   UNK N   1      26.944  20.357   6.590  0.00  0.00     0.126 A 
HETATM    5  C   UNK N   1      27.768  19.222   6.631  0.00  0.00    -0.013 A 
HETATM    6  C   UNK N   1      28.170  18.614   5.423  0.00  0.00    -0.044 A 
HETATM    7  C   UNK N   1      29.011  17.383   5.442  0.00  0.00     0.065 C 
HETATM    8  C   UNK N   1      30.025  17.464   6.572  0.00  0.00     0.097 C 
HETATM    9  C   UNK N   1      29.223  17.509   7.880  0.00  0.00     0.031 C 
HETATM   10  C   UNK N   1      28.244  18.691   7.963  0.00  0.00     0.044 C 
HETATM   11  F   UNK N   1      26.534  20.949   7.739  0.00  0.00    -0.205 F 
HETATM   12  F   UNK N   1      26.613  20.844   2.979  0.00  0.00    -0.206 F 
ENDROOT
BRANCH   8  13
HETATM   13  N   UNK N   1      31.016  16.360   6.474  0.00  0.00    -0.320 N 
HETATM   14  C   UNK N   1      32.269  16.415   6.986  0.00  0.00     0.047 A 
HETATM   15  C   UNK N   1      32.920  15.224   6.746  0.00  0.00     0.117 A 
HETATM   16  N   UNK N   1      32.077  14.410   6.082  0.00  0.00    -0.341 N 
HETATM   17  C   UNK N   1      30.937  15.111   5.930  0.00  0.00     0.178 A 
HETATM   18  H   UNK N   1      32.255  13.493   5.772  0.00  0.00     0.167 HD
HETATM   19  S   UNK N   1      29.782  14.547   5.286  0.00  0.00    -0.040 SA
BRANCH  14  20
HETATM   20  C   UNK N   1      32.875  17.572   7.715  0.00  0.00     0.170 C 
BRANCH  20  21
HETATM   21  N   UNK N   1      33.156  17.202   9.092  0.00  0.00    -0.425 N 
HETATM   22  H   UNK N   1      33.671  17.475   9.930  0.00  0.00     0.150 HD
HETATM   23  H   UNK N   1      32.644  16.345   9.300  0.00  0.00     0.150 HD
ENDBRANCH  20  21
ENDBRANCH  14  20
ENDBRANCH   8  13
TORSDOF 3
ENDMDL
MODEL 2
REMARK VINA RESULT:      -6.3     11.901     14.493
REMARK  3 active torsions:
REMARK  status: ('A' for Active; 'I' for Inactive)
REMARK    1  A    between atoms: C_8  and  N_11 
REMARK    2  A    between atoms: C_12  and  C_17 
REMARK    3  A    between atoms: C_17  and  N_18 
ROOT
HETATM    1  C   UNK N   1      30.505  23.346  -4.697  0.00  0.00     0.050 A 
HETATM    2  C   UNK N   1      31.154  22.804  -3.585  0.00  0.00     0.119 A 
HETATM    3  C   UNK N   1      30.488  22.719  -2.360  0.00  0.00     0.085 A 
HETATM    4  C   UNK N   1      29.164  23.154  -2.247  0.00  0.00     0.126 A 
HETATM    5  C   UNK N   1      28.498  23.678  -3.365  0.00  0.00    -0.013 A 
HETATM    6  C   UNK N   1      29.185  23.789  -4.591  0.00  0.00    -0.044 A 
HETATM    7  C   UNK N   1      28.511  24.381  -5.783  0.00  0.00     0.065 C 
HETATM    8  C   UNK N   1      27.052  23.957  -5.818  0.00  0.00     0.097 C 
HETATM    9  C   UNK N   1      26.393  24.542  -4.561  0.00  0.00     0.031 C 
HETATM   10  C   UNK N   1      27.046  24.079  -3.249  0.00  0.00     0.044 C 
HETATM   11  F   UNK N   1      28.528  23.051  -1.053  0.00  0.00    -0.205 F 
HETATM   12  F   UNK N   1      32.429  22.360  -3.695  0.00  0.00    -0.206 F 
ENDROOT
BRANCH   8  13
HETATM   13  N   UNK N   1      26.418  24.346  -7.105  0.00  0.00    -0.320 N 
HETATM   14  C   UNK N   1      25.731  23.494  -7.903  0.00  0.00     0.047 A 
HETATM   15  C   UNK N   1      25.254  24.173  -9.004  0.00  0.00     0.117 A 
HETATM   16  N   UNK N   1      25.637  25.461  -8.902  0.00  0.00    -0.341 N 
HETATM   17  C   UNK N   1      26.335  25.544  -7.753  0.00  0.00     0.178 A 
HETATM   18  H   UNK N   1      25.448  26.190  -9.536  0.00  0.00     0.167 HD
HETATM   19  S   UNK N   1      26.883  26.790  -7.290  0.00  0.00    -0.040 SA
BRANCH  14  20
HETATM   20  C   UNK N   1      25.498  22.039  -7.648  0.00  0.00     0.170 C 
BRANCH  20  21
HETATM   21  N   UNK N   1      24.079  21.784  -7.469  0.00  0.00    -0.425 N 
HETATM   22  H   UNK N   1      23.171  22.232  -7.343  0.00  0.00     0.150 HD
HETATM   23  H   UNK N   1      23.936  20.775  -7.468  0.00  0.00     0.150 HD
ENDBRANCH  20  21
ENDBRANCH  14  20
ENDBRANCH   8  13
TORSDOF 3
ENDMDL
MODEL 3
REMARK VINA RESULT:      -6.3     14.491     16.678
REMARK  3 active torsions:
REMARK  status: ('A' for Active; 'I' for Inactive)
REMARK    1  A    between atoms: C_8  and  N_11 
REMARK    2  A    between atoms: C_12  and  C_17 
REMARK    3  A    between atoms: C_17  and  N_18 
ROOT
HETATM    1  C   UNK N   1      35.335  13.028  19.145  0.00  0.00     0.050 A 
HETATM    2  C   UNK N   1      35.270  13.908  18.063  0.00  0.00     0.119 A 
HETATM    3  C   UNK N   1      35.148  13.411  16.763  0.00  0.00     0.085 A 
HETATM    4  C   UNK N   1      35.070  12.033  16.542  0.00  0.00     0.126 A 
HETATM    5  C   UNK N   1      35.112  11.143  17.625  0.00  0.00    -0.013 A 
HETATM    6  C   UNK N   1      35.264  11.649  18.932  0.00  0.00    -0.044 A 
HETATM    7  C   UNK N   1      35.353  10.720  20.096  0.00  0.00     0.065 C 
HETATM    8  C   UNK N   1      34.415   9.541  19.892  0.00  0.00     0.097 C 
HETATM    9  C   UNK N   1      34.914   8.792  18.648  0.00  0.00     0.031 C 
HETATM   10  C   UNK N   1      34.956   9.660  17.380  0.00  0.00     0.044 C 
HETATM   11  F   UNK N   1      34.940  11.567  15.274  0.00  0.00    -0.205 F 
HETATM   12  F   UNK N   1      35.321  15.245  18.275  0.00  0.00    -0.206 F 
ENDROOT
BRANCH   8  13
HETATM   13  N   UNK N   1      34.318   8.722  21.128  0.00  0.00    -0.320 N 
HETATM   14  C   UNK N   1      33.404   8.926  22.106  0.00  0.00     0.047 A 
HETATM   15  C   UNK N   1      33.568   7.984  23.099  0.00  0.00     0.117 A 
HETATM   16  N   UNK N   1      34.588   7.177  22.747  0.00  0.00    -0.341 N 
HETATM   17  C   UNK N   1      35.024   7.637  21.558  0.00  0.00     0.178 A 
HETATM   18  H   UNK N   1      34.942   6.410  23.253  0.00  0.00     0.167 HD
HETATM   19  S   UNK N   1      36.098   6.997  20.849  0.00  0.00    -0.040 SA
BRANCH  14  20
HETATM   20  C   UNK N   1      32.357   9.995  22.128  0.00  0.00     0.170 C 
BRANCH  20  21
HETATM   21  N   UNK N   1      32.874  11.187  22.780  0.00  0.00    -0.425 N 
HETATM   22  H   UNK N   1      32.746  12.194  22.876  0.00  0.00     0.150 HD
HETATM   23  H   UNK N   1      33.663  10.911  23.363  0.00  0.00     0.150 HD
ENDBRANCH  20  21
ENDBRANCH  14  20
ENDBRANCH   8  13
TORSDOF 3
ENDMDL
MODEL 4
REMARK VINA RESULT:      -6.3      4.345      7.306
REMARK  3 active torsions:
REMARK  status: ('A' for Active; 'I' for Inactive)
REMARK    1  A    between atoms: C_8  and  N_11 
REMARK    2  A    between atoms: C_12  and  C_17 
REMARK    3  A    between atoms: C_17  and  N_18 
ROOT
HETATM    1  C   UNK N   1      33.433  14.000   9.285  0.00  0.00     0.050 A 
HETATM    2  C   UNK N   1      34.402  13.704  10.247  0.00  0.00     0.119 A 
HETATM    3  C   UNK N   1      35.272  14.701  10.693  0.00  0.00     0.085 A 
HETATM    4  C   UNK N   1      35.165  16.003  10.195  0.00  0.00     0.126 A 
HETATM    5  C   UNK N   1      34.181  16.314   9.245  0.00  0.00    -0.013 A 
HETATM    6  C   UNK N   1      33.323  15.297   8.778  0.00  0.00    -0.044 A 
HETATM    7  C   UNK N   1      32.296  15.594   7.738  0.00  0.00     0.065 C 
HETATM    8  C   UNK N   1      31.704  16.975   7.973  0.00  0.00     0.097 C 
HETATM    9  C   UNK N   1      32.852  17.980   7.807  0.00  0.00     0.031 C 
HETATM   10  C   UNK N   1      34.028  17.739   8.767  0.00  0.00     0.044 C 
HETATM   11  F   UNK N   1      36.011  16.962  10.648  0.00  0.00    -0.205 F 
HETATM   12  F   UNK N   1      34.494  12.449  10.750  0.00  0.00    -0.206 F 
ENDROOT
BRANCH   8  13
HETATM   13  N   UNK N   1      30.529  17.204   7.093  0.00  0.00    -0.320 N 
HETATM   14  C   UNK N   1      29.274  17.438   7.544  0.00  0.00     0.047 A 
HETATM   15  C   UNK N   1      28.425  17.631   6.476  0.00  0.00     0.117 A 
HETATM   16  N   UNK N   1      29.144  17.522   5.342  0.00  0.00    -0.341 N 
HETATM   17  C   UNK N   1      30.407  17.267   5.735  0.00  0.00     0.178 A 
HETATM   18  H   UNK N   1      28.817  17.611   4.418  0.00  0.00     0.167 HD
HETATM   19  S   UNK N   1      31.478  17.117   4.788  0.00  0.00    -0.040 SA
BRANCH  14  20
HETATM   20  C   UNK N   1      28.847  17.496   8.977  0.00  0.00     0.170 C 
BRANCH  20  21
HETATM   21  N   UNK N   1      27.727  18.409   9.128  0.00  0.00    -0.425 N 
HETATM   22  H   UNK N   1      27.437  19.296   9.541  0.00  0.00     0.150 HD
HETATM   23  H   UNK N   1      26.928  18.014   8.632  0.00  0.00     0.150 HD
ENDBRANCH  20  21
ENDBRANCH  14  20
ENDBRANCH   8  13
TORSDOF 3
ENDMDL
MODEL 5
REMARK VINA RESULT:      -6.3      4.792      6.518
REMARK  3 active torsions:
REMARK  status: ('A' for Active; 'I' for Inactive)
REMARK    1  A    between atoms: C_8  and  N_11 
REMARK    2  A    between atoms: C_12  and  C_17 
REMARK    3  A    between atoms: C_17  and  N_18 
ROOT
HETATM    1  C   UNK N   1      21.531  17.901   4.181  0.00  0.00     0.050 A 
HETATM    2  C   UNK N   1      20.288  18.113   3.579  0.00  0.00     0.119 A 
HETATM    3  C   UNK N   1      20.096  19.215   2.743  0.00  0.00     0.085 A 
HETATM    4  C   UNK N   1      21.149  20.098   2.488  0.00  0.00     0.126 A 
HETATM    5  C   UNK N   1      22.407  19.879   3.071  0.00  0.00    -0.013 A 
HETATM    6  C   UNK N   1      22.587  18.782   3.936  0.00  0.00    -0.044 A 
HETATM    7  C   UNK N   1      23.903  18.552   4.600  0.00  0.00     0.065 C 
HETATM    8  C   UNK N   1      25.034  18.902   3.645  0.00  0.00     0.097 C 
HETATM    9  C   UNK N   1      24.909  20.403   3.346  0.00  0.00     0.031 C 
HETATM   10  C   UNK N   1      23.556  20.798   2.732  0.00  0.00     0.044 C 
HETATM   11  F   UNK N   1      20.948  21.156   1.663  0.00  0.00    -0.205 F 
HETATM   12  F   UNK N   1      19.271  17.247   3.805  0.00  0.00    -0.206 F 
ENDROOT
BRANCH   8  13
HETATM   13  N   UNK N   1      26.346  18.474   4.198  0.00  0.00    -0.320 N 
HETATM   14  C   UNK N   1      27.070  19.197   5.085  0.00  0.00     0.047 A 
HETATM   15  C   UNK N   1      28.220  18.511   5.413  0.00  0.00     0.117 A 
HETATM   16  N   UNK N   1      28.223  17.347   4.734  0.00  0.00    -0.341 N 
HETATM   17  C   UNK N   1      27.087  17.344   4.010  0.00  0.00     0.178 A 
HETATM   18  H   UNK N   1      28.913  16.645   4.760  0.00  0.00     0.167 HD
HETATM   19  S   UNK N   1      26.727  16.232   3.173  0.00  0.00    -0.040 SA
BRANCH  14  20
HETATM   20  C   UNK N   1      26.698  20.531   5.650  0.00  0.00     0.170 C 
BRANCH  20  21
HETATM   21  N   UNK N   1      26.376  20.404   7.061  0.00  0.00    -0.425 N 
HETATM   22  H   UNK N   1      26.744  20.112   7.967  0.00  0.00     0.150 HD
HETATM   23  H   UNK N   1      25.419  20.729   7.198  0.00  0.00     0.150 HD
ENDBRANCH  20  21
ENDBRANCH  14  20
ENDBRANCH   8  13
TORSDOF 3
ENDMDL
MODEL 6
REMARK VINA RESULT:      -6.2      8.251      9.854
REMARK  3 active torsions:
REMARK  status: ('A' for Active; 'I' for Inactive)
REMARK    1  A    between atoms: C_8  and  N_11 
REMARK    2  A    between atoms: C_12  and  C_17 
REMARK    3  A    between atoms: C_17  and  N_18 
ROOT
HETATM    1  C   UNK N   1      21.167  12.660   9.881  0.00  0.00     0.050 A 
HETATM    2  C   UNK N   1      21.401  12.261  11.200  0.00  0.00     0.119 A 
HETATM    3  C   UNK N   1      22.708  12.060  11.647  0.00  0.00     0.085 A 
HETATM    4  C   UNK N   1      23.788  12.277  10.787  0.00  0.00     0.126 A 
HETATM    5  C   UNK N   1      23.563  12.699   9.468  0.00  0.00    -0.013 A 
HETATM    6  C   UNK N   1      22.241  12.872   9.013  0.00  0.00    -0.044 A 
HETATM    7  C   UNK N   1      21.975  13.281   7.603  0.00  0.00     0.065 C 
HETATM    8  C   UNK N   1      23.024  14.282   7.146  0.00  0.00     0.097 C 
HETATM    9  C   UNK N   1      24.374  13.551   7.182  0.00  0.00     0.031 C 
HETATM   10  C   UNK N   1      24.740  12.998   8.569  0.00  0.00     0.044 C 
HETATM   11  F   UNK N   1      25.052  12.089  11.243  0.00  0.00    -0.205 F 
HETATM   12  F   UNK N   1      20.358  12.073  12.044  0.00  0.00    -0.206 F 
ENDROOT
BRANCH   8  13
HETATM   13  N   UNK N   1      22.657  14.871   5.831  0.00  0.00    -0.320 N 
HETATM   14  C   UNK N   1      21.987  16.038   5.681  0.00  0.00     0.047 A 
HETATM   15  C   UNK N   1      21.827  16.311   4.340  0.00  0.00     0.117 A 
HETATM   16  N   UNK N   1      22.401  15.315   3.636  0.00  0.00    -0.341 N 
HETATM   17  C   UNK N   1      22.895  14.460   4.552  0.00  0.00     0.178 A 
HETATM   18  H   UNK N   1      22.449  15.229   2.657  0.00  0.00     0.167 HD
HETATM   19  S   UNK N   1      23.615  13.275   4.170  0.00  0.00    -0.040 SA
BRANCH  14  20
HETATM   20  C   UNK N   1      21.495  16.922   6.783  0.00  0.00     0.170 C 
BRANCH  20  21
HETATM   21  N   UNK N   1      21.339  18.283   6.298  0.00  0.00    -0.425 N 
HETATM   22  H   UNK N   1      21.612  18.931   5.559  0.00  0.00     0.150 HD
HETATM   23  H   UNK N   1      20.723  18.779   6.941  0.00  0.00     0.150 HD
ENDBRANCH  20  21
ENDBRANCH  14  20
ENDBRANCH   8  13
TORSDOF 3
ENDMDL
MODEL 7
REMARK VINA RESULT:      -6.2     12.053     13.248
REMARK  3 active torsions:
REMARK  status: ('A' for Active; 'I' for Inactive)
REMARK    1  A    between atoms: C_8  and  N_11 
REMARK    2  A    between atoms: C_12  and  C_17 
REMARK    3  A    between atoms: C_17  and  N_18 
ROOT
HETATM    1  C   UNK N   1      37.092  14.631  15.414  0.00  0.00     0.050 A 
HETATM    2  C   UNK N   1      37.138  15.630  16.389  0.00  0.00     0.119 A 
HETATM    3  C   UNK N   1      36.428  15.475  17.582  0.00  0.00     0.085 A 
HETATM    4  C   UNK N   1      35.688  14.312  17.816  0.00  0.00     0.126 A 
HETATM    5  C   UNK N   1      35.656  13.294  16.851  0.00  0.00    -0.013 A 
HETATM    6  C   UNK N   1      36.350  13.468  15.636  0.00  0.00    -0.044 A 
HETATM    7  C   UNK N   1      36.296  12.418  14.578  0.00  0.00     0.065 C 
HETATM    8  C   UNK N   1      36.309  11.038  15.217  0.00  0.00     0.097 C 
HETATM    9  C   UNK N   1      35.030  10.930  16.058  0.00  0.00     0.031 C 
HETATM   10  C   UNK N   1      34.911  12.012  17.143  0.00  0.00     0.044 C 
HETATM   11  F   UNK N   1      35.016  14.172  18.985  0.00  0.00    -0.205 F 
HETATM   12  F   UNK N   1      37.872  16.748  16.178  0.00  0.00    -0.206 F 
ENDROOT
BRANCH   8  13
HETATM   13  N   UNK N   1      36.482   9.980  14.187  0.00  0.00    -0.320 N 
HETATM   14  C   UNK N   1      35.530   9.629  13.290  0.00  0.00     0.047 A 
HETATM   15  C   UNK N   1      36.013   8.637  12.464  0.00  0.00     0.117 A 
HETATM   16  N   UNK N   1      37.278   8.359  12.837  0.00  0.00    -0.341 N 
HETATM   17  C   UNK N   1      37.541   9.179  13.874  0.00  0.00     0.178 A 
HETATM   18  H   UNK N   1      37.884   7.696  12.437  0.00  0.00     0.167 HD
HETATM   19  S   UNK N   1      38.824   9.189  14.523  0.00  0.00    -0.040 SA
BRANCH  14  20
HETATM   20  C   UNK N   1      34.160  10.220  13.180  0.00  0.00     0.170 C 
BRANCH  20  21
HETATM   21  N   UNK N   1      34.072  11.060  11.997  0.00  0.00    -0.425 N 
HETATM   22  H   UNK N   1      33.738  11.094  11.034  0.00  0.00     0.150 HD
HETATM   23  H   UNK N   1      34.511  11.955  12.212  0.00  0.00     0.150 HD
ENDBRANCH  20  21
ENDBRANCH  14  20
ENDBRANCH   8  13
TORSDOF 3
ENDMDL
MODEL 8
REMARK VINA RESULT:      -6.2      3.566      5.476
REMARK  3 active torsions:
REMARK  status: ('A' for Active; 'I' for Inactive)
REMARK    1  A    between atoms: C_8  and  N_11 
REMARK    2  A    between atoms: C_12  and  C_17 
REMARK    3  A    between atoms: C_17  and  N_18 
ROOT
HETATM    1  C   UNK N   1      30.313  16.792   7.218  0.00  0.00     0.050 A 
HETATM    2  C   UNK N   1      29.621  17.220   6.083  0.00  0.00     0.119 A 
HETATM    3  C   UNK N   1      30.322  17.550   4.920  0.00  0.00     0.085 A 
HETATM    4  C   UNK N   1      31.714  17.433   4.880  0.00  0.00     0.126 A 
HETATM    5  C   UNK N   1      32.414  16.981   6.009  0.00  0.00    -0.013 A 
HETATM    6  C   UNK N   1      31.705  16.678   7.189  0.00  0.00    -0.044 A 
HETATM    7  C   UNK N   1      32.431  16.236   8.414  0.00  0.00     0.065 C 
HETATM    8  C   UNK N   1      33.597  15.338   8.031  0.00  0.00     0.097 C 
HETATM    9  C   UNK N   1      34.556  16.195   7.193  0.00  0.00     0.031 C 
HETATM   10  C   UNK N   1      33.911  16.791   5.932  0.00  0.00     0.044 C 
HETATM   11  F   UNK N   1      32.377  17.745   3.739  0.00  0.00    -0.205 F 
HETATM   12  F   UNK N   1      28.270  17.313   6.110  0.00  0.00    -0.206 F 
ENDROOT
BRANCH   8  13
HETATM   13  N   UNK N   1      34.198  14.707   9.235  0.00  0.00    -0.320 N 
HETATM   14  C   UNK N   1      34.157  13.379   9.499  0.00  0.00     0.047 A 
HETATM   15  C   UNK N   1      34.824  13.120  10.677  0.00  0.00     0.117 A 
HETATM   16  N   UNK N   1      35.293  14.287  11.160  0.00  0.00    -0.341 N 
HETATM   17  C   UNK N   1      34.907  15.229  10.278  0.00  0.00     0.178 A 
HETATM   18  H   UNK N   1      35.810  14.424  11.987  0.00  0.00     0.167 HD
HETATM   19  S   UNK N   1      35.257  16.613  10.447  0.00  0.00    -0.040 SA
BRANCH  14  20
HETATM   20  C   UNK N   1      33.506  12.330   8.654  0.00  0.00     0.170 C 
BRANCH  20  21
HETATM   21  N   UNK N   1      32.493  11.628   9.424  0.00  0.00    -0.425 N 
HETATM   22  H   UNK N   1      31.639  11.073   9.349  0.00  0.00     0.150 HD
HETATM   23  H   UNK N   1      32.721  11.726  10.412  0.00  0.00     0.150 HD
ENDBRANCH  20  21
ENDBRANCH  14  20
ENDBRANCH   8  13
TORSDOF 3
ENDMDL
MODEL 9
REMARK VINA RESULT:      -6.2     11.735     13.753
REMARK  3 active torsions:
REMARK  status: ('A' for Active; 'I' for Inactive)
REMARK    1  A    between atoms: C_8  and  N_11 
REMARK    2  A    between atoms: C_12  and  C_17 
REMARK    3  A    between atoms: C_17  and  N_18 
ROOT
HETATM    1  C   UNK N   1      31.507  22.227  -2.804  0.00  0.00     0.050 A 
HETATM    2  C   UNK N   1      32.439  21.225  -3.082  0.00  0.00     0.119 A 
HETATM    3  C   UNK N   1      32.342  20.491  -4.267  0.00  0.00     0.085 A 
HETATM    4  C   UNK N   1      31.329  20.770  -5.188  0.00  0.00     0.126 A 
HETATM    5  C   UNK N   1      30.402  21.791  -4.926  0.00  0.00    -0.013 A 
HETATM    6  C   UNK N   1      30.486  22.509  -3.716  0.00  0.00    -0.044 A 
HETATM    7  C   UNK N   1      29.488  23.570  -3.396  0.00  0.00     0.065 C 
HETATM    8  C   UNK N   1      29.125  24.338  -4.658  0.00  0.00     0.097 C 
HETATM    9  C   UNK N   1      28.461  23.332  -5.609  0.00  0.00     0.031 C 
HETATM   10  C   UNK N   1      29.354  22.131  -5.959  0.00  0.00     0.044 C 
HETATM   11  F   UNK N   1      31.258  20.056  -6.339  0.00  0.00    -0.205 F 
HETATM   12  F   UNK N   1      33.437  20.967  -2.204  0.00  0.00    -0.206 F 
ENDROOT
BRANCH   8  13
HETATM   13  N   UNK N   1      28.309  25.536  -4.332  0.00  0.00    -0.320 N 
HETATM   14  C   UNK N   1      26.965  25.520  -4.170  0.00  0.00     0.047 A 
HETATM   15  C   UNK N   1      26.520  26.785  -3.853  0.00  0.00     0.117 A 
HETATM   16  N   UNK N   1      27.587  27.607  -3.812  0.00  0.00    -0.341 N 
HETATM   17  C   UNK N   1      28.653  26.836  -4.101  0.00  0.00     0.178 A 
HETATM   18  H   UNK N   1      27.589  28.571  -3.612  0.00  0.00     0.167 HD
HETATM   19  S   UNK N   1      29.988  27.369  -4.121  0.00  0.00    -0.040 SA
BRANCH  14  20
HETATM   20  C   UNK N   1      26.074  24.324  -4.295  0.00  0.00     0.170 C 
BRANCH  20  21
HETATM   21  N   UNK N   1      25.144  24.509  -5.396  0.00  0.00    -0.425 N 
HETATM   22  H   UNK N   1      25.079  24.678  -6.400  0.00  0.00     0.150 HD
HETATM   23  H   UNK N   1      24.197  24.443  -5.024  0.00  0.00     0.150 HD
ENDBRANCH  20  21
ENDBRANCH  14  20
ENDBRANCH   8  13
TORSDOF 3
ENDMDL
