REMARK  9 active torsions:
REMARK  status: ('A' for Active; 'I' for Inactive)
REMARK    1  A    between atoms: C_2  and  C_3 
REMARK    2  A    between atoms: C_2  and  O_32 
REMARK    3  A    between atoms: C_3  and  O_5 
REMARK    4  A    between atoms: O_5  and  C_6 
REMARK    5  A    between atoms: C_7  and  C_28 
REMARK       I    between atoms: C_11  and  N_14 
REMARK    6  A    between atoms: N_14  and  C_15 
REMARK    7  A    between atoms: S_21  and  C_18 
REMARK    8  A    between atoms: S_21  and  N_22 
REMARK    9  A    between atoms: S_21  and  C_25 
ROOT
HETATM    1  C   UNK N   1      -1.895   9.356  -0.063  0.00  0.00     0.174 A 
HETATM    2  C   UNK N   1      -2.046  10.752  -0.001  0.00  0.00     0.115 A 
HETATM    3  C   UNK N   1      -0.891  11.538   0.106  0.00  0.00     0.126 A 
HETATM    4  N   UNK N   1       0.342  10.958   0.139  0.00  0.00    -0.201 N 
ATOM      5  HN  UNK N   1       1.176  11.541   0.207  1.00  0.00     0.183 HD
HETATM    6  C   UNK N   1       0.466   9.610   0.083  0.00  0.00     0.684 A 
HETATM    7  N   UNK N   1      -0.642   8.830  -0.031  0.00  0.00    -0.169 N 
ATOM      8  HN  UNK N   1      -0.529   7.818  -0.093  1.00  0.00     0.186 HD
HETATM    9  N   UNK N   1       1.755   9.002   0.126  0.00  0.00    -0.192 N 
HETATM   10  H   UNK N   1       2.565   9.557   0.054  0.00  0.00     0.184 HD
ENDROOT
BRANCH   9  11
HETATM   11  C   UNK N   1       1.868   7.596   0.273  0.00  0.00     0.049 A 
HETATM   12  C   UNK N   1       2.642   6.874  -0.634  0.00  0.00     0.031 A 
HETATM   13  C   UNK N   1       2.535   5.484  -0.683  0.00  0.00     0.024 A 
HETATM   14  C   UNK N   1       1.660   4.801   0.183  0.00  0.00     0.038 A 
HETATM   15  C   UNK N   1       0.955   5.519   1.154  0.00  0.00     0.024 A 
HETATM   16  C   UNK N   1       1.054   6.911   1.192  0.00  0.00     0.031 A 
BRANCH  14  17
HETATM   17  S   UNK N   1       1.292   3.055  -0.110  0.00  0.00     0.054 S 
HETATM   18  O   UNK N   1       2.198   2.789  -1.320  0.00  0.00    -0.245 OA
BRANCH  17  19
HETATM   19  N   UNK N   1       0.211   3.742  -1.054  0.00  0.00    -0.356 N 
HETATM   20  H   UNK N   1       0.245   4.534  -1.638  0.00  0.00     0.166 HD
ATOM     21  HN  UNK N   1      -0.693   3.271  -1.054  1.00  0.00     0.166 HD
ENDBRANCH  17  19
BRANCH  17  22
HETATM   22  C   UNK N   1       0.077   1.722  -0.379  0.00  0.00     0.092 A 
HETATM   23  C   UNK N   1       0.559   0.452   0.289  0.00  0.00     0.020 A 
HETATM   24  C   UNK N   1      -0.539   1.273   0.928  0.00  0.00     0.020 A 
ENDBRANCH  17  22
ENDBRANCH  14  17
ENDBRANCH   9  11
BRANCH   1  25
HETATM   25  O   UNK N   1      -2.983   8.541  -0.088  0.00  0.00    -0.327 OA
BRANCH  25  26
HETATM   26  C   UNK N   1      -3.006   7.175  -0.337  0.00  0.00     0.154 C 
HETATM   27  C   UNK N   1      -1.996   6.416   0.509  0.00  0.00     0.042 C 
BRANCH  26  28
HETATM   28  C   UNK N   1      -4.387   6.624   0.017  0.00  0.00     0.143 C 
HETATM   29  C   UNK N   1      -5.501   7.384  -0.677  0.00  0.00     0.042 C 
BRANCH  28  30
HETATM   30  O   UNK N   1      -4.473   5.271  -0.319  0.00  0.00    -0.393 OA
HETATM   31  H   UNK N   1      -5.317   4.853  -0.553  0.00  0.00     0.210 HD
ENDBRANCH  28  30
ENDBRANCH  26  28
ENDBRANCH  25  26
ENDBRANCH   1  25
BRANCH   2  32
HETATM   32  C   UNK N   1      -3.397  11.431  -0.027  0.00  0.00     0.422 C 
HETATM   33  F   UNK N   1      -3.668  11.944   1.227  0.00  0.00    -0.166 F 
HETATM   34  F   UNK N   1      -3.378  12.466  -0.944  0.00  0.00    -0.166 F 
HETATM   35  F   UNK N   1      -4.419  10.569  -0.383  0.00  0.00    -0.166 F 
ENDBRANCH   2  32
TORSDOF 9
