REMARK  6 active torsions:
REMARK  status: ('A' for Active; 'I' for Inactive)
REMARK    1  A    between atoms: C_2  and  C_4 
REMARK    2  A    between atoms: C_2  and  O_32 
REMARK    3  A    between atoms: C_9  and  C_10 
REMARK    4  A    between atoms: C_17  and  C_20 
REMARK    5  A    between atoms: C_21  and  C_22 
REMARK    6  A    between atoms: C_25  and  C_28 
ROOT
HETATM    1  C   UNK N   1       4.996   1.584  -0.201  0.00  0.00    -0.023 A 
HETATM    2  C   UNK N   1       5.028   0.310   0.443  0.00  0.00     0.014 A 
HETATM    3  C   UNK N   1       3.832  -0.421   0.643  0.00  0.00     0.033 A 
HETATM    4  C   UNK N   1       2.647   0.165   0.188  0.00  0.00     0.060 A 
HETATM    5  C   UNK N   1       2.659   1.331  -0.496  0.00  0.00     0.061 A 
HETATM    6  C   UNK N   1       3.791   2.045  -0.719  0.00  0.00     0.044 A 
HETATM    7  N   UNK N   1       1.415   1.737  -0.741  0.00  0.00    -0.341 N 
HETATM    8  C   UNK N   1       0.656   0.790  -0.169  0.00  0.00     0.106 A 
HETATM    9  N   UNK N   1       1.383  -0.213   0.406  0.00  0.00    -0.341 N 
ATOM     10  HN  UNK N   1       1.044  -1.048   0.884  1.00  0.00     0.167 HD
HETATM   11  H   UNK N   1       1.122   2.542  -1.227  0.00  0.00     0.167 HD
ENDROOT
BRANCH   8  12
HETATM   12  C   UNK N   1      -0.781   0.936  -0.073  0.00  0.00     0.049 C 
HETATM   13  C   UNK N   1      -1.533   0.028   0.523  0.00  0.00     0.015 C 
BRANCH  13  14
HETATM   14  C   UNK N   1      -2.976   0.196   0.529  0.00  0.00    -0.036 A 
HETATM   15  C   UNK N   1      -3.741  -0.935   0.276  0.00  0.00     0.012 A 
HETATM   16  C   UNK N   1      -5.105  -0.816   0.055  0.00  0.00     0.017 A 
HETATM   17  C   UNK N   1      -5.725   0.436   0.107  0.00  0.00     0.048 A 
HETATM   18  C   UNK N   1      -4.966   1.577   0.414  0.00  0.00     0.017 A 
HETATM   19  C   UNK N   1      -3.585   1.461   0.601  0.00  0.00     0.012 A 
BRANCH  17  20
HETATM   20  C   UNK N   1      -7.181   0.557  -0.207  0.00  0.00     0.417 C 
HETATM   21  F   UNK N   1      -7.867   0.985   0.912  0.00  0.00    -0.166 F 
HETATM   22  F   UNK N   1      -7.354   1.470  -1.232  0.00  0.00    -0.166 F 
HETATM   23  F   UNK N   1      -7.695  -0.663  -0.615  0.00  0.00    -0.166 F 
ENDBRANCH  17  20
ENDBRANCH  13  14
ENDBRANCH   8  12
BRANCH   1  24
HETATM   24  C   UNK N   1       6.157   2.512  -0.117  0.00  0.00    -0.017 A 
HETATM   25  C   UNK N   1       7.425   1.937   0.068  0.00  0.00     0.013 A 
HETATM   26  C   UNK N   1       8.559   2.724   0.239  0.00  0.00     0.001 A 
HETATM   27  C   UNK N   1       8.451   4.108   0.252  0.00  0.00     0.001 A 
HETATM   28  C   UNK N   1       7.208   4.711   0.100  0.00  0.00     0.011 A 
HETATM   29  C   UNK N   1       6.036   3.959  -0.088  0.00  0.00    -0.014 A 
BRANCH  29  30
HETATM   30  C   UNK N   1       4.719   4.763  -0.157  0.00  0.00     0.078 C 
HETATM   31  C   UNK N   1       3.743   4.327   0.931  0.00  0.00     0.051 C 
HETATM   32  C   UNK N   1       4.076   4.682  -1.534  0.00  0.00     0.051 C 
BRANCH  30  33
HETATM   33  O   UNK N   1       4.960   6.119   0.072  0.00  0.00    -0.386 OA
HETATM   34  H   UNK N   1       5.860   6.445   0.231  0.00  0.00     0.211 HD
ENDBRANCH  30  33
ENDBRANCH  29  30
ENDBRANCH   1  24
TORSDOF 6
