REMARK  1 active torsions:
REMARK  status: ('A' for Active; 'I' for Inactive)
REMARK       I    between atoms: C_8  and  N_9 
REMARK       I    between atoms: N_9  and  C_10 
REMARK       I    between atoms: C_10  and  N_12 
REMARK    1  A    between atoms: N_12  and  C_13 
ROOT
HETATM    1  C   UNK N   1       4.284  -2.019  -0.000  0.00  0.00     0.169 C 
HETATM    2  N   UNK N   1       3.889  -3.400  -0.000  0.00  0.00    -0.213 N 
HETATM    3  C   UNK N   1       4.874  -4.453   0.000  0.00  0.00     0.244 A 
HETATM    4  C   UNK N   1       3.935  -5.622   0.000  0.00  0.00     0.254 A 
HETATM    5  O   UNK N   1       4.289  -6.790   0.000  0.00  0.00    -0.271 OA
HETATM    6  N   UNK N   1       2.642  -5.250   0.000  0.00  0.00    -0.158 N 
ATOM      7  HN  UNK N   1       1.842  -5.882   0.000  1.00  0.00     0.187 HD
HETATM    8  C   UNK N   1       2.583  -3.978  -0.000  0.00  0.00     0.687 A 
HETATM    9  N   UNK N   1       1.307  -3.311  -0.000  0.00  0.00    -0.141 N 
HETATM   10  C   UNK N   1       1.011  -1.984   0.000  0.00  0.00     0.339 C 
HETATM   11  O   UNK N   1       1.894  -1.150   0.000  0.00  0.00    -0.246 OA
HETATM   12  N   UNK N   1      -0.295  -1.592  -0.000  0.00  0.00    -0.308 N 
HETATM   13  H   UNK N   1       0.526  -3.910  -0.000  0.00  0.00     0.189 HD
HETATM   14  H   UNK N   1      -0.982  -2.298  -0.000  0.00  0.00     0.170 HD
ENDROOT
BRANCH  12  15
HETATM   15  C   UNK N   1      -0.744  -0.234  -0.000  0.00  0.00     0.037 A 
HETATM   16  C   UNK N   1      -2.119   0.037  -0.000  0.00  0.00     0.053 A 
HETATM   17  C   UNK N   1      -2.577   1.362  -0.000  0.00  0.00     0.036 A 
HETATM   18  C   UNK N   1      -1.666   2.421   0.000  0.00  0.00     0.024 A 
HETATM   19 Cl   UNK N   1      -4.294   1.701  -0.000  0.00  0.00    -0.084 Cl
HETATM   20  C   UNK N   1      -0.297   2.162   0.000  0.00  0.00     0.004 A 
HETATM   21  C   UNK N   1       0.160   0.845  -0.000  0.00  0.00     0.029 A 
ENDBRANCH  12  15
TORSDOF 1
