REMARK  6 active torsions:
REMARK  status: ('A' for Active; 'I' for Inactive)
REMARK    1  A    between atoms: C_3  and  N_20 
REMARK    2  A    between atoms: C_7  and  C_8 
REMARK    3  A    between atoms: C_8  and  C_9 
REMARK    4  A    between atoms: N_20  and  C_21 
REMARK    5  A    between atoms: C_21  and  C_22 
REMARK    6  A    between atoms: C_25  and  C_29 
ROOT
HETATM    1  C   UNK N   1      -1.966   1.580  -0.782  0.00  0.00     0.012 A 
HETATM    2  C   UNK N   1      -1.244   2.696  -1.207  0.00  0.00     0.049 A 
HETATM    3  C   UNK N   1      -0.132   3.105  -0.468  0.00  0.00     0.101 A 
HETATM    4  N   UNK N   1       0.186   2.468   0.694  0.00  0.00    -0.352 N 
ATOM      5  HN  UNK N   1       0.980   2.800   1.241  1.00  0.00     0.166 HD
HETATM    6  C   UNK N   1      -0.525   1.405   1.141  0.00  0.00     0.097 A 
HETATM    7  C   UNK N   1      -1.578   0.906   0.378  0.00  0.00    -0.038 A 
ENDROOT
BRANCH   3   8
HETATM    8  N   UNK N   1       0.776   4.027  -1.025  0.00  0.00    -0.372 N 
HETATM    9  H   UNK N   1       0.467   4.776  -1.585  0.00  0.00     0.161 HD
BRANCH   8  10
HETATM   10  C   UNK N   1       2.176   3.831  -0.741  0.00  0.00     0.161 C 
BRANCH  10  11
HETATM   11  C   UNK N   1       2.924   5.063  -0.392  0.00  0.00    -0.025 A 
HETATM   12  C   UNK N   1       2.373   6.343  -0.501  0.00  0.00     0.012 A 
HETATM   13  C   UNK N   1       3.164   7.457  -0.217  0.00  0.00     0.035 A 
HETATM   14  C   UNK N   1       4.497   7.273   0.178  0.00  0.00     0.116 A 
HETATM   15  N   UNK N   1       5.002   6.014   0.294  0.00  0.00    -0.361 N 
HETATM   16  C   UNK N   1       4.250   4.921   0.015  0.00  0.00     0.097 A 
ATOM     17  HN  UNK N   1       5.968   5.891   0.598  1.00  0.00     0.165 HD
BRANCH  14  18
HETATM   18  C   UNK N   1       5.375   8.454   0.439  0.00  0.00     0.432 C 
HETATM   19  F   UNK N   1       5.482   9.203  -0.717  0.00  0.00    -0.165 F 
HETATM   20  F   UNK N   1       6.639   8.041   0.823  0.00  0.00    -0.165 F 
HETATM   21  F   UNK N   1       4.831   9.232   1.443  0.00  0.00    -0.165 F 
ENDBRANCH  14  18
ENDBRANCH  10  11
ENDBRANCH   8  10
ENDBRANCH   3   8
BRANCH   7  22
HETATM   22  C   UNK N   1      -2.189  -0.410   0.713  0.00  0.00     0.081 C 
BRANCH  22  23
HETATM   23  C   UNK N   1      -1.277  -1.588   0.414  0.00  0.00    -0.024 A 
HETATM   24  C   UNK N   1      -1.733  -2.902   0.334  0.00  0.00     0.098 A 
HETATM   25  N   UNK N   1      -0.701  -3.736   0.045  0.00  0.00    -0.351 N 
HETATM   26  C   UNK N   1       0.391  -2.958  -0.052  0.00  0.00     0.116 A 
HETATM   27  H   UNK N   1      -0.744  -4.713  -0.070  0.00  0.00     0.166 HD
HETATM   28  C   UNK N   1       0.090  -1.647   0.162  0.00  0.00     0.018 A 
HETATM   29  N   UNK N   1       1.648  -3.389  -0.322  0.00  0.00    -0.350 N 
HETATM   30  C   UNK N   1       1.099  -0.684   0.110  0.00  0.00     0.041 A 
HETATM   31  C   UNK N   1       2.409  -1.108  -0.159  0.00  0.00     0.050 A 
HETATM   32  C   UNK N   1       2.667  -2.478  -0.375  0.00  0.00     0.113 A 
HETATM   33 Cl   UNK N   1       3.715   0.058  -0.207  0.00  0.00    -0.083 Cl
ATOM     34  HN  UNK N   1       1.831  -4.379  -0.482  1.00  0.00     0.166 HD
ENDBRANCH  22  23
ENDBRANCH   7  22
TORSDOF 6
