REMARK  0 active torsions:
REMARK  status: ('A' for Active; 'I' for Inactive)
ROOT
HETATM    1  C   UNK N   1      -4.118  -5.027   0.438  0.00  0.00     0.001 A 
HETATM    2  C   UNK N   1      -5.137  -4.051   0.517  0.00  0.00     0.001 A 
HETATM    3  C   UNK N   1       4.219  -4.950   0.037  0.00  0.00     0.001 A 
HETATM    4  C   UNK N   1       5.219  -3.952   0.070  0.00  0.00     0.001 A 
HETATM    5  C   UNK N   1      -5.251   4.260   0.022  0.00  0.00     0.001 A 
HETATM    6  C   UNK N   1      -4.275   5.283   0.023  0.00  0.00     0.001 A 
HETATM    7  C   UNK N   1       4.985   4.325  -0.258  0.00  0.00     0.001 A 
HETATM    8  C   UNK N   1       3.966   5.304  -0.222  0.00  0.00     0.001 A 
HETATM    9  C   UNK N   1      -2.785  -4.647   0.196  0.00  0.00     0.016 A 
HETATM   10  C   UNK N   1      -4.832  -2.687   0.354  0.00  0.00     0.016 A 
HETATM   11  C   UNK N   1       2.863  -4.596  -0.083  0.00  0.00     0.016 A 
HETATM   12  C   UNK N   1       4.871  -2.592  -0.019  0.00  0.00     0.016 A 
HETATM   13  C   UNK N   1      -4.866   2.907  -0.006  0.00  0.00     0.016 A 
HETATM   14  C   UNK N   1      -2.906   4.959  -0.009  0.00  0.00     0.016 A 
HETATM   15  C   UNK N   1       4.658   2.956  -0.247  0.00  0.00     0.016 A 
HETATM   16  C   UNK N   1       2.612   4.921  -0.177  0.00  0.00     0.016 A 
HETATM   17  C   UNK N   1      -2.517  -3.290   0.036  0.00  0.00     0.022 A 
HETATM   18  C   UNK N   1      -3.503  -2.347   0.111  0.00  0.00     0.022 A 
HETATM   19  C   UNK N   1       2.551  -3.241  -0.170  0.00  0.00     0.022 A 
HETATM   20  C   UNK N   1       3.520  -2.277  -0.140  0.00  0.00     0.022 A 
HETATM   21  C   UNK N   1      -3.503   2.620  -0.037  0.00  0.00     0.022 A 
HETATM   22  C   UNK N   1      -2.561   3.611  -0.040  0.00  0.00     0.022 A 
HETATM   23  C   UNK N   1       3.309   2.614  -0.204  0.00  0.00     0.022 A 
HETATM   24  C   UNK N   1       2.326   3.558  -0.170  0.00  0.00     0.022 A 
HETATM   25  C   UNK N   1      -1.256  -2.574  -0.177  0.00  0.00     0.119 A 
HETATM   26  C   UNK N   1      -2.838  -1.070  -0.053  0.00  0.00     0.119 A 
HETATM   27  C   UNK N   1       1.263  -2.550  -0.262  0.00  0.00     0.119 A 
HETATM   28  C   UNK N   1      -2.783   1.344  -0.064  0.00  0.00     0.119 A 
HETATM   29  C   UNK N   1       2.815  -1.012  -0.213  0.00  0.00     0.119 A 
HETATM   30  C   UNK N   1      -1.281   2.934  -0.075  0.00  0.00     0.119 A 
HETATM   31  C   UNK N   1       2.684   1.388  -0.183  0.00  0.00     0.119 A 
HETATM   32  C   UNK N   1       1.127   2.886  -0.131  0.00  0.00     0.119 A 
HETATM   33  N   UNK N   1      -1.445  -1.297  -0.217  0.00  0.00    -0.327 N 
ATOM     34  HN  UNK N   1      -0.727  -0.583  -0.341  1.00  0.00     0.169 HD
HETATM   35  N   UNK N   1       1.420  -1.269  -0.277  0.00  0.00    -0.327 N 
ATOM     36  HN  UNK N   1       0.678  -0.570  -0.326  1.00  0.00     0.169 HD
HETATM   37  N   UNK N   1      -1.503   1.530  -0.083  0.00  0.00    -0.327 N 
ATOM     38  HN  UNK N   1      -0.786   0.805  -0.101  1.00  0.00     0.169 HD
HETATM   39  N   UNK N   1       1.335   1.543  -0.138  0.00  0.00    -0.327 N 
HETATM   40  N   UNK N   1       0.009  -3.213  -0.251  0.00  0.00    -0.327 N 
HETATM   41  N   UNK N   1      -3.424   0.075   0.002  0.00  0.00    -0.327 N 
ATOM     42  HN  UNK N   1      -4.439   0.073   0.101  1.00  0.00     0.169 HD
HETATM   43  N   UNK N   1       3.374   0.147  -0.180  0.00  0.00    -0.327 N 
ATOM     44  HN  UNK N   1       4.393   0.177  -0.148  1.00  0.00     0.169 HD
HETATM   45  N   UNK N   1      -0.137   3.527  -0.092  0.00  0.00    -0.327 N 
ATOM     46  HN  UNK N   1      -0.141   4.547  -0.077  1.00  0.00     0.169 HD
HETATM   47  H   UNK N   1       0.653   0.833  -0.116  0.00  0.00     0.169 HD
HETATM   48  H   UNK N   1       0.017  -4.196  -0.298  0.00  0.00     0.169 HD
ENDROOT
TORSDOF 0
