MODEL 1
REMARK VINA RESULT:      -6.3      0.000      0.000
REMARK  7 active torsions:
REMARK  status: ('A' for Active; 'I' for Inactive)
REMARK    1  A    between atoms: O_2  and  C_3 
REMARK    2  A    between atoms: C_3  and  C_4 
REMARK    3  A    between atoms: C_4  and  C_5 
REMARK    4  A    between atoms: C_5  and  C_6 
REMARK       I    between atoms: C_6  and  N_8 
REMARK    5  A    between atoms: N_8  and  C_9 
REMARK    6  A    between atoms: C_9  and  C_10 
REMARK    7  A    between atoms: C_13  and  C_16 
ROOT
HETATM    1  C   UNK N   1      29.594  17.521   6.483  0.00  0.00    -0.041 A 
HETATM    2  C   UNK N   1      29.100  18.078   7.668  0.00  0.00     0.009 A 
HETATM    3  C   UNK N   1      28.159  19.114   7.614  0.00  0.00     0.017 A 
HETATM    4  C   UNK N   1      27.709  19.596   6.375  0.00  0.00     0.047 A 
HETATM    5  C   UNK N   1      28.195  19.019   5.194  0.00  0.00     0.017 A 
HETATM    6  C   UNK N   1      29.140  17.994   5.249  0.00  0.00     0.009 A 
ENDROOT
BRANCH   1   7
HETATM    7  C   UNK N   1      30.690  16.513   6.511  0.00  0.00     0.161 C 
BRANCH   7   8
HETATM    8  N   UNK N   1      31.835  16.927   5.739  0.00  0.00    -0.357 N 
HETATM    9  C   UNK N   1      32.913  17.502   6.329  0.00  0.00     0.217 C 
HETATM   10  O   UNK N   1      33.906  17.746   5.666  0.00  0.00    -0.274 OA
HETATM   11  H   UNK N   1      31.836  16.788   4.764  0.00  0.00     0.162 HD
BRANCH   9  12
HETATM   12  C   UNK N   1      32.885  17.870   7.787  0.00  0.00     0.105 C 
BRANCH  12  13
HETATM   13  C   UNK N   1      34.276  18.166   8.316  0.00  0.00     0.035 C 
BRANCH  13  14
HETATM   14  C   UNK N   1      34.834  16.976   9.075  0.00  0.00     0.167 C 
BRANCH  14  15
HETATM   15  O   UNK N   1      35.526  17.415  10.203  0.00  0.00    -0.396 OA
HETATM   16  C   UNK N   1      35.360  16.394  11.139  0.00  0.00     0.201 C 
ENDBRANCH  14  15
ENDBRANCH  13  14
ENDBRANCH  12  13
ENDBRANCH   9  12
ENDBRANCH   7   8
ENDBRANCH   1   7
BRANCH   4  17
HETATM   17  C   UNK N   1      26.747  20.748   6.321  0.00  0.00     0.417 C 
HETATM   18  F   UNK N   1      26.215  20.978   7.576  0.00  0.00    -0.166 F 
HETATM   19  F   UNK N   1      25.711  20.492   5.437  0.00  0.00    -0.166 F 
HETATM   20  F   UNK N   1      27.417  21.882   5.898  0.00  0.00    -0.166 F 
ENDBRANCH   4  17
TORSDOF 7
ENDMDL
MODEL 2
REMARK VINA RESULT:      -5.9      1.721      2.641
REMARK  7 active torsions:
REMARK  status: ('A' for Active; 'I' for Inactive)
REMARK    1  A    between atoms: O_2  and  C_3 
REMARK    2  A    between atoms: C_3  and  C_4 
REMARK    3  A    between atoms: C_4  and  C_5 
REMARK    4  A    between atoms: C_5  and  C_6 
REMARK       I    between atoms: C_6  and  N_8 
REMARK    5  A    between atoms: N_8  and  C_9 
REMARK    6  A    between atoms: C_9  and  C_10 
REMARK    7  A    between atoms: C_13  and  C_16 
ROOT
HETATM    1  C   UNK N   1      28.571  17.513   4.695  0.00  0.00    -0.041 A 
HETATM    2  C   UNK N   1      28.758  17.744   6.063  0.00  0.00     0.009 A 
HETATM    3  C   UNK N   1      28.231  18.899   6.654  0.00  0.00     0.017 A 
HETATM    4  C   UNK N   1      27.516  19.827   5.880  0.00  0.00     0.047 A 
HETATM    5  C   UNK N   1      27.318  19.577   4.516  0.00  0.00     0.017 A 
HETATM    6  C   UNK N   1      27.852  18.431   3.925  0.00  0.00     0.009 A 
ENDROOT
BRANCH   1   7
HETATM    7  C   UNK N   1      29.233  16.363   4.017  0.00  0.00     0.161 C 
BRANCH   7   8
HETATM    8  N   UNK N   1      30.203  16.788   3.039  0.00  0.00    -0.357 N 
HETATM    9  C   UNK N   1      31.531  16.787   3.316  0.00  0.00     0.217 C 
HETATM   10  O   UNK N   1      32.332  17.052   2.437  0.00  0.00    -0.274 OA
HETATM   11  H   UNK N   1      29.896  17.085   2.151  0.00  0.00     0.162 HD
BRANCH   9  12
HETATM   12  C   UNK N   1      32.024  16.491   4.706  0.00  0.00     0.105 C 
BRANCH  12  13
HETATM   13  C   UNK N   1      33.214  17.358   5.073  0.00  0.00     0.035 C 
BRANCH  13  14
HETATM   14  C   UNK N   1      33.462  17.338   6.570  0.00  0.00     0.167 C 
BRANCH  14  15
HETATM   15  O   UNK N   1      34.488  18.225   6.893  0.00  0.00    -0.396 OA
HETATM   16  C   UNK N   1      34.553  18.197   8.286  0.00  0.00     0.201 C 
ENDBRANCH  14  15
ENDBRANCH  13  14
ENDBRANCH  12  13
ENDBRANCH   9  12
ENDBRANCH   7   8
ENDBRANCH   1   7
BRANCH   4  17
HETATM   17  C   UNK N   1      27.006  21.094   6.505  0.00  0.00     0.417 C 
HETATM   18  F   UNK N   1      25.950  21.593   5.766  0.00  0.00    -0.166 F 
HETATM   19  F   UNK N   1      28.002  22.055   6.567  0.00  0.00    -0.166 F 
HETATM   20  F   UNK N   1      26.572  20.825   7.791  0.00  0.00    -0.166 F 
ENDBRANCH   4  17
TORSDOF 7
ENDMDL
MODEL 3
REMARK VINA RESULT:      -5.9      4.799      7.754
REMARK  7 active torsions:
REMARK  status: ('A' for Active; 'I' for Inactive)
REMARK    1  A    between atoms: O_2  and  C_3 
REMARK    2  A    between atoms: C_3  and  C_4 
REMARK    3  A    between atoms: C_4  and  C_5 
REMARK    4  A    between atoms: C_5  and  C_6 
REMARK       I    between atoms: C_6  and  N_8 
REMARK    5  A    between atoms: N_8  and  C_9 
REMARK    6  A    between atoms: C_9  and  C_10 
REMARK    7  A    between atoms: C_13  and  C_16 
ROOT
HETATM    1  C   UNK N   1      29.492  17.573   7.112  0.00  0.00    -0.041 A 
HETATM    2  C   UNK N   1      30.446  17.118   6.195  0.00  0.00     0.009 A 
HETATM    3  C   UNK N   1      31.807  17.159   6.525  0.00  0.00     0.017 A 
HETATM    4  C   UNK N   1      32.218  17.655   7.773  0.00  0.00     0.047 A 
HETATM    5  C   UNK N   1      31.253  18.091   8.691  0.00  0.00     0.017 A 
HETATM    6  C   UNK N   1      29.898  18.059   8.357  0.00  0.00     0.009 A 
ENDROOT
BRANCH   1   7
HETATM    7  C   UNK N   1      28.054  17.664   6.735  0.00  0.00     0.161 C 
BRANCH   7   8
HETATM    8  N   UNK N   1      27.469  18.929   7.106  0.00  0.00    -0.357 N 
HETATM    9  C   UNK N   1      27.221  19.889   6.180  0.00  0.00     0.217 C 
HETATM   10  O   UNK N   1      26.632  20.905   6.506  0.00  0.00    -0.274 OA
HETATM   11  H   UNK N   1      27.244  19.099   8.050  0.00  0.00     0.162 HD
BRANCH   9  12
HETATM   12  C   UNK N   1      27.692  19.727   4.761  0.00  0.00     0.105 C 
BRANCH  12  13
HETATM   13  C   UNK N   1      26.530  19.537   3.804  0.00  0.00     0.035 C 
BRANCH  13  14
HETATM   14  C   UNK N   1      26.317  20.774   2.953  0.00  0.00     0.167 C 
BRANCH  14  15
HETATM   15  O   UNK N   1      25.135  20.650   2.223  0.00  0.00    -0.396 OA
HETATM   16  C   UNK N   1      24.169  20.310   3.169  0.00  0.00     0.201 C 
ENDBRANCH  14  15
ENDBRANCH  13  14
ENDBRANCH  12  13
ENDBRANCH   9  12
ENDBRANCH   7   8
ENDBRANCH   1   7
BRANCH   4  17
HETATM   17  C   UNK N   1      33.680  17.755   8.098  0.00  0.00     0.417 C 
HETATM   18  F   UNK N   1      34.038  19.079   8.266  0.00  0.00    -0.166 F 
HETATM   19  F   UNK N   1      34.454  17.209   7.085  0.00  0.00    -0.166 F 
HETATM   20  F   UNK N   1      33.935  17.063   9.268  0.00  0.00    -0.166 F 
ENDBRANCH   4  17
TORSDOF 7
ENDMDL
MODEL 4
REMARK VINA RESULT:      -5.8     10.186     11.725
REMARK  7 active torsions:
REMARK  status: ('A' for Active; 'I' for Inactive)
REMARK    1  A    between atoms: O_2  and  C_3 
REMARK    2  A    between atoms: C_3  and  C_4 
REMARK    3  A    between atoms: C_4  and  C_5 
REMARK    4  A    between atoms: C_5  and  C_6 
REMARK       I    between atoms: C_6  and  N_8 
REMARK    5  A    between atoms: N_8  and  C_9 
REMARK    6  A    between atoms: C_9  and  C_10 
REMARK    7  A    between atoms: C_13  and  C_16 
ROOT
HETATM    1  C   UNK N   1      21.005  14.630   8.340  0.00  0.00    -0.041 A 
HETATM    2  C   UNK N   1      20.378  14.177   9.506  0.00  0.00     0.009 A 
HETATM    3  C   UNK N   1      21.052  13.300  10.367  0.00  0.00     0.017 A 
HETATM    4  C   UNK N   1      22.355  12.874  10.063  0.00  0.00     0.047 A 
HETATM    5  C   UNK N   1      22.981  13.348   8.903  0.00  0.00     0.017 A 
HETATM    6  C   UNK N   1      22.305  14.213   8.041  0.00  0.00     0.009 A 
ENDROOT
BRANCH   1   7
HETATM    7  C   UNK N   1      20.264  15.454   7.345  0.00  0.00     0.161 C 
BRANCH   7   8
HETATM    8  N   UNK N   1      20.289  16.858   7.669  0.00  0.00    -0.357 N 
HETATM    9  C   UNK N   1      20.968  17.747   6.900  0.00  0.00     0.217 C 
HETATM   10  O   UNK N   1      20.885  18.939   7.139  0.00  0.00    -0.274 OA
HETATM   11  H   UNK N   1      19.803  17.180   8.463  0.00  0.00     0.162 HD
BRANCH   9  12
HETATM   12  C   UNK N   1      21.846  17.274   5.774  0.00  0.00     0.105 C 
BRANCH  12  13
HETATM   13  C   UNK N   1      21.169  17.447   4.427  0.00  0.00     0.035 C 
BRANCH  13  14
HETATM   14  C   UNK N   1      21.922  18.440   3.562  0.00  0.00     0.167 C 
BRANCH  14  15
HETATM   15  O   UNK N   1      21.661  19.740   3.995  0.00  0.00    -0.396 OA
HETATM   16  C   UNK N   1      20.454  20.079   3.385  0.00  0.00     0.201 C 
ENDBRANCH  14  15
ENDBRANCH  13  14
ENDBRANCH  12  13
ENDBRANCH   9  12
ENDBRANCH   7   8
ENDBRANCH   1   7
BRANCH   4  17
HETATM   17  C   UNK N   1      23.049  11.886  10.956  0.00  0.00     0.417 C 
HETATM   18  F   UNK N   1      22.405  11.819  12.177  0.00  0.00    -0.166 F 
HETATM   19  F   UNK N   1      24.370  12.248  11.167  0.00  0.00    -0.166 F 
HETATM   20  F   UNK N   1      23.024  10.638  10.361  0.00  0.00    -0.166 F 
ENDBRANCH   4  17
TORSDOF 7
ENDMDL
MODEL 5
REMARK VINA RESULT:      -5.8      1.839      3.370
REMARK  7 active torsions:
REMARK  status: ('A' for Active; 'I' for Inactive)
REMARK    1  A    between atoms: O_2  and  C_3 
REMARK    2  A    between atoms: C_3  and  C_4 
REMARK    3  A    between atoms: C_4  and  C_5 
REMARK    4  A    between atoms: C_5  and  C_6 
REMARK       I    between atoms: C_6  and  N_8 
REMARK    5  A    between atoms: N_8  and  C_9 
REMARK    6  A    between atoms: C_9  and  C_10 
REMARK    7  A    between atoms: C_13  and  C_16 
ROOT
HETATM    1  C   UNK N   1      29.557  17.755   7.517  0.00  0.00    -0.041 A 
HETATM    2  C   UNK N   1      28.752  18.745   8.093  0.00  0.00     0.009 A 
HETATM    3  C   UNK N   1      27.927  19.534   7.280  0.00  0.00     0.017 A 
HETATM    4  C   UNK N   1      27.906  19.335   5.890  0.00  0.00     0.047 A 
HETATM    5  C   UNK N   1      28.702  18.329   5.326  0.00  0.00     0.017 A 
HETATM    6  C   UNK N   1      29.530  17.550   6.135  0.00  0.00     0.009 A 
ENDROOT
BRANCH   1   7
HETATM    7  C   UNK N   1      30.539  16.995   8.341  0.00  0.00     0.161 C 
BRANCH   7   8
HETATM    8  N   UNK N   1      31.634  17.819   8.788  0.00  0.00    -0.357 N 
HETATM    9  C   UNK N   1      32.828  17.816   8.144  0.00  0.00     0.217 C 
HETATM   10  O   UNK N   1      33.699  18.598   8.481  0.00  0.00    -0.274 OA
HETATM   11  H   UNK N   1      31.513  18.397   9.576  0.00  0.00     0.162 HD
BRANCH   9  12
HETATM   12  C   UNK N   1      33.099  16.835   7.036  0.00  0.00     0.105 C 
BRANCH  12  13
HETATM   13  C   UNK N   1      33.408  17.540   5.728  0.00  0.00     0.035 C 
BRANCH  13  14
HETATM   14  C   UNK N   1      33.011  16.683   4.541  0.00  0.00     0.167 C 
BRANCH  14  15
HETATM   15  O   UNK N   1      32.368  17.467   3.584  0.00  0.00    -0.396 OA
HETATM   16  C   UNK N   1      31.430  16.615   3.001  0.00  0.00     0.201 C 
ENDBRANCH  14  15
ENDBRANCH  13  14
ENDBRANCH  12  13
ENDBRANCH   9  12
ENDBRANCH   7   8
ENDBRANCH   1   7
BRANCH   4  17
HETATM   17  C   UNK N   1      27.067  20.224   5.017  0.00  0.00     0.417 C 
HETATM   18  F   UNK N   1      27.205  21.541   5.414  0.00  0.00    -0.166 F 
HETATM   19  F   UNK N   1      25.728  19.874   5.089  0.00  0.00    -0.166 F 
HETATM   20  F   UNK N   1      27.486  20.100   3.705  0.00  0.00    -0.166 F 
ENDBRANCH   4  17
TORSDOF 7
ENDMDL
MODEL 6
REMARK VINA RESULT:      -5.7      2.486      3.974
REMARK  7 active torsions:
REMARK  status: ('A' for Active; 'I' for Inactive)
REMARK    1  A    between atoms: O_2  and  C_3 
REMARK    2  A    between atoms: C_3  and  C_4 
REMARK    3  A    between atoms: C_4  and  C_5 
REMARK    4  A    between atoms: C_5  and  C_6 
REMARK       I    between atoms: C_6  and  N_8 
REMARK    5  A    between atoms: N_8  and  C_9 
REMARK    6  A    between atoms: C_9  and  C_10 
REMARK    7  A    between atoms: C_13  and  C_16 
ROOT
HETATM    1  C   UNK N   1      32.404  17.571   7.599  0.00  0.00    -0.041 A 
HETATM    2  C   UNK N   1      31.559  17.031   6.624  0.00  0.00     0.009 A 
HETATM    3  C   UNK N   1      30.169  17.154   6.758  0.00  0.00     0.017 A 
HETATM    4  C   UNK N   1      29.623  17.817   7.869  0.00  0.00     0.047 A 
HETATM    5  C   UNK N   1      30.479  18.371   8.830  0.00  0.00     0.017 A 
HETATM    6  C   UNK N   1      31.862  18.239   8.700  0.00  0.00     0.009 A 
ENDROOT
BRANCH   1   7
HETATM    7  C   UNK N   1      33.875  17.339   7.548  0.00  0.00     0.161 C 
BRANCH   7   8
HETATM    8  N   UNK N   1      34.541  17.776   8.750  0.00  0.00    -0.357 N 
HETATM    9  C   UNK N   1      35.002  16.885   9.664  0.00  0.00     0.217 C 
HETATM   10  O   UNK N   1      35.650  17.278  10.617  0.00  0.00    -0.274 OA
HETATM   11  H   UNK N   1      34.666  18.739   8.910  0.00  0.00     0.162 HD
BRANCH   9  12
HETATM   12  C   UNK N   1      34.693  15.419   9.531  0.00  0.00     0.105 C 
BRANCH  12  13
HETATM   13  C   UNK N   1      34.078  14.859  10.800  0.00  0.00     0.035 C 
BRANCH  13  14
HETATM   14  C   UNK N   1      35.036  13.912  11.497  0.00  0.00     0.167 C 
BRANCH  14  15
HETATM   15  O   UNK N   1      34.709  13.815  12.849  0.00  0.00    -0.396 OA
HETATM   16  C   UNK N   1      35.825  13.225  13.442  0.00  0.00     0.201 C 
ENDBRANCH  14  15
ENDBRANCH  13  14
ENDBRANCH  12  13
ENDBRANCH   9  12
ENDBRANCH   7   8
ENDBRANCH   1   7
BRANCH   4  17
HETATM   17  C   UNK N   1      28.133  17.893   8.040  0.00  0.00     0.417 C 
HETATM   18  F   UNK N   1      27.659  19.090   7.536  0.00  0.00    -0.166 F 
HETATM   19  F   UNK N   1      27.779  17.801   9.377  0.00  0.00    -0.166 F 
HETATM   20  F   UNK N   1      27.541  16.847   7.355  0.00  0.00    -0.166 F 
ENDBRANCH   4  17
TORSDOF 7
ENDMDL
MODEL 7
REMARK VINA RESULT:      -5.7      9.159     12.758
REMARK  7 active torsions:
REMARK  status: ('A' for Active; 'I' for Inactive)
REMARK    1  A    between atoms: O_2  and  C_3 
REMARK    2  A    between atoms: C_3  and  C_4 
REMARK    3  A    between atoms: C_4  and  C_5 
REMARK    4  A    between atoms: C_5  and  C_6 
REMARK       I    between atoms: C_6  and  N_8 
REMARK    5  A    between atoms: N_8  and  C_9 
REMARK    6  A    between atoms: C_9  and  C_10 
REMARK    7  A    between atoms: C_13  and  C_16 
ROOT
HETATM    1  C   UNK N   1      35.978  13.131  15.848  0.00  0.00    -0.041 A 
HETATM    2  C   UNK N   1      36.202  11.752  15.758  0.00  0.00     0.009 A 
HETATM    3  C   UNK N   1      35.917  10.926  16.853  0.00  0.00     0.017 A 
HETATM    4  C   UNK N   1      35.407  11.477  18.041  0.00  0.00     0.047 A 
HETATM    5  C   UNK N   1      35.170  12.856  18.113  0.00  0.00     0.017 A 
HETATM    6  C   UNK N   1      35.463  13.679  17.025  0.00  0.00     0.009 A 
ENDROOT
BRANCH   1   7
HETATM    7  C   UNK N   1      36.397  14.045  14.748  0.00  0.00     0.161 C 
BRANCH   7   8
HETATM    8  N   UNK N   1      37.023  13.340  13.657  0.00  0.00    -0.357 N 
HETATM    9  C   UNK N   1      36.672  13.580  12.369  0.00  0.00     0.217 C 
HETATM   10  O   UNK N   1      37.289  13.046  11.465  0.00  0.00    -0.274 OA
HETATM   11  H   UNK N   1      37.720  12.671  13.851  0.00  0.00     0.162 HD
BRANCH   9  12
HETATM   12  C   UNK N   1      35.508  14.477  12.045  0.00  0.00     0.105 C 
BRANCH  12  13
HETATM   13  C   UNK N   1      35.966  15.788  11.434  0.00  0.00     0.035 C 
BRANCH  13  14
HETATM   14  C   UNK N   1      35.031  16.228  10.324  0.00  0.00     0.167 C 
BRANCH  14  15
HETATM   15  O   UNK N   1      35.351  17.523   9.918  0.00  0.00    -0.396 OA
HETATM   16  C   UNK N   1      34.603  17.725   8.758  0.00  0.00     0.201 C 
ENDBRANCH  14  15
ENDBRANCH  13  14
ENDBRANCH  12  13
ENDBRANCH   9  12
ENDBRANCH   7   8
ENDBRANCH   1   7
BRANCH   4  17
HETATM   17  C   UNK N   1      35.161  10.597  19.232  0.00  0.00     0.417 C 
HETATM   18  F   UNK N   1      34.681  11.352  20.286  0.00  0.00    -0.166 F 
HETATM   19  F   UNK N   1      36.327   9.962  19.632  0.00  0.00    -0.166 F 
HETATM   20  F   UNK N   1      34.226   9.633  18.902  0.00  0.00    -0.166 F 
ENDBRANCH   4  17
TORSDOF 7
ENDMDL
MODEL 8
REMARK VINA RESULT:      -5.6     10.409     12.250
REMARK  7 active torsions:
REMARK  status: ('A' for Active; 'I' for Inactive)
REMARK    1  A    between atoms: O_2  and  C_3 
REMARK    2  A    between atoms: C_3  and  C_4 
REMARK    3  A    between atoms: C_4  and  C_5 
REMARK    4  A    between atoms: C_5  and  C_6 
REMARK       I    between atoms: C_6  and  N_8 
REMARK    5  A    between atoms: N_8  and  C_9 
REMARK    6  A    between atoms: C_9  and  C_10 
REMARK    7  A    between atoms: C_13  and  C_16 
ROOT
HETATM    1  C   UNK N   1      21.368  15.020   8.048  0.00  0.00    -0.041 A 
HETATM    2  C   UNK N   1      22.568  14.343   7.803  0.00  0.00     0.009 A 
HETATM    3  C   UNK N   1      23.014  13.364   8.701  0.00  0.00     0.017 A 
HETATM    4  C   UNK N   1      22.260  13.059   9.845  0.00  0.00     0.047 A 
HETATM    5  C   UNK N   1      21.050  13.729  10.071  0.00  0.00     0.017 A 
HETATM    6  C   UNK N   1      20.612  14.711   9.182  0.00  0.00     0.009 A 
ENDROOT
BRANCH   1   7
HETATM    7  C   UNK N   1      20.941  16.155   7.182  0.00  0.00     0.161 C 
BRANCH   7   8
HETATM    8  N   UNK N   1      19.512  16.188   6.988  0.00  0.00    -0.357 N 
HETATM    9  C   UNK N   1      18.962  15.963   5.768  0.00  0.00     0.217 C 
HETATM   10  O   UNK N   1      17.751  15.896   5.655  0.00  0.00    -0.274 OA
HETATM   11  H   UNK N   1      18.925  16.378   7.755  0.00  0.00     0.162 HD
BRANCH   9  12
HETATM   12  C   UNK N   1      19.830  15.826   4.547  0.00  0.00     0.105 C 
BRANCH  12  13
HETATM   13  C   UNK N   1      19.763  17.064   3.672  0.00  0.00     0.035 C 
BRANCH  13  14
HETATM   14  C   UNK N   1      21.101  17.779   3.637  0.00  0.00     0.167 C 
BRANCH  14  15
HETATM   15  O   UNK N   1      21.053  18.918   4.440  0.00  0.00    -0.396 OA
HETATM   16  C   UNK N   1      20.689  19.947   3.572  0.00  0.00     0.201 C 
ENDBRANCH  14  15
ENDBRANCH  13  14
ENDBRANCH  12  13
ENDBRANCH   9  12
ENDBRANCH   7   8
ENDBRANCH   1   7
BRANCH   4  17
HETATM   17  C   UNK N   1      22.772  12.053  10.836  0.00  0.00     0.417 C 
HETATM   18  F   UNK N   1      22.844  10.805  10.247  0.00  0.00    -0.166 F 
HETATM   19  F   UNK N   1      21.942  11.976  11.943  0.00  0.00    -0.166 F 
HETATM   20  F   UNK N   1      24.034  12.429  11.257  0.00  0.00    -0.166 F 
ENDBRANCH   4  17
TORSDOF 7
ENDMDL
MODEL 9
REMARK VINA RESULT:      -5.6     14.324     16.397
REMARK  7 active torsions:
REMARK  status: ('A' for Active; 'I' for Inactive)
REMARK    1  A    between atoms: O_2  and  C_3 
REMARK    2  A    between atoms: C_3  and  C_4 
REMARK    3  A    between atoms: C_4  and  C_5 
REMARK    4  A    between atoms: C_5  and  C_6 
REMARK       I    between atoms: C_6  and  N_8 
REMARK    5  A    between atoms: N_8  and  C_9 
REMARK    6  A    between atoms: C_9  and  C_10 
REMARK    7  A    between atoms: C_13  and  C_16 
ROOT
HETATM    1  C   UNK N   1      26.397  26.542  -7.754  0.00  0.00    -0.041 A 
HETATM    2  C   UNK N   1      25.316  26.471  -6.867  0.00  0.00     0.009 A 
HETATM    3  C   UNK N   1      25.324  27.237  -5.695  0.00  0.00     0.017 A 
HETATM    4  C   UNK N   1      26.412  28.076  -5.405  0.00  0.00     0.047 A 
HETATM    5  C   UNK N   1      27.480  28.153  -6.308  0.00  0.00     0.017 A 
HETATM    6  C   UNK N   1      27.476  27.382  -7.471  0.00  0.00     0.009 A 
ENDROOT
BRANCH   1   7
HETATM    7  C   UNK N   1      26.474  25.640  -8.938  0.00  0.00     0.161 C 
BRANCH   7   8
HETATM    8  N   UNK N   1      25.353  24.736  -9.012  0.00  0.00    -0.357 N 
HETATM    9  C   UNK N   1      25.407  23.498  -8.459  0.00  0.00     0.217 C 
HETATM   10  O   UNK N   1      24.411  22.797  -8.447  0.00  0.00    -0.274 OA
HETATM   11  H   UNK N   1      24.531  25.023  -9.472  0.00  0.00     0.162 HD
BRANCH   9  12
HETATM   12  C   UNK N   1      26.694  22.970  -7.887  0.00  0.00     0.105 C 
BRANCH  12  13
HETATM   13  C   UNK N   1      26.684  22.997  -6.370  0.00  0.00     0.035 C 
BRANCH  13  14
HETATM   14  C   UNK N   1      27.866  23.782  -5.832  0.00  0.00     0.167 C 
BRANCH  14  15
HETATM   15  O   UNK N   1      27.453  24.602  -4.782  0.00  0.00    -0.396 OA
HETATM   16  C   UNK N   1      28.627  25.190  -4.311  0.00  0.00     0.201 C 
ENDBRANCH  14  15
ENDBRANCH  13  14
ENDBRANCH  12  13
ENDBRANCH   9  12
ENDBRANCH   7   8
ENDBRANCH   1   7
BRANCH   4  17
HETATM   17  C   UNK N   1      26.444  28.847  -4.117  0.00  0.00     0.417 C 
HETATM   18  F   UNK N   1      25.455  28.388  -3.267  0.00  0.00    -0.166 F 
HETATM   19  F   UNK N   1      26.247  30.201  -4.342  0.00  0.00    -0.166 F 
HETATM   20  F   UNK N   1      27.677  28.676  -3.513  0.00  0.00    -0.166 F 
ENDBRANCH   4  17
TORSDOF 7
ENDMDL
