MODEL 1
REMARK VINA RESULT:      -6.9      0.000      0.000
REMARK  1 active torsions:
REMARK  status: ('A' for Active; 'I' for Inactive)
REMARK       I    between atoms: C_8  and  N_9 
REMARK       I    between atoms: N_9  and  C_10 
REMARK       I    between atoms: C_10  and  N_12 
REMARK    1  A    between atoms: N_12  and  C_13 
ROOT
HETATM    1  C   UNK N   1      33.357  14.461   9.884  0.00  0.00     0.169 C 
HETATM    2  N   UNK N   1      33.944  15.744   9.612  0.00  0.00    -0.213 N 
HETATM    3  C   UNK N   1      33.502  16.541   8.495  0.00  0.00     0.244 A 
HETATM    4  C   UNK N   1      34.417  17.712   8.693  0.00  0.00     0.254 A 
HETATM    5  O   UNK N   1      34.437  18.699   7.977  0.00  0.00    -0.271 OA
HETATM    6  N   UNK N   1      35.226  17.564   9.757  0.00  0.00    -0.158 N 
ATOM      7  HN  UNK N   1      35.923  18.239  10.072  1.00  0.00     0.187 HD
HETATM    8  C   UNK N   1      34.979  16.442  10.307  0.00  0.00     0.687 A 
HETATM    9  N   UNK N   1      35.710  16.030  11.477  0.00  0.00    -0.141 N 
HETATM   10  C   UNK N   1      35.613  14.893  12.216  0.00  0.00     0.339 C 
HETATM   11  O   UNK N   1      34.813  14.027  11.923  0.00  0.00    -0.246 OA
HETATM   12  N   UNK N   1      36.428  14.729  13.297  0.00  0.00    -0.308 N 
HETATM   13  H   UNK N   1      36.386  16.673  11.791  0.00  0.00     0.189 HD
HETATM   14  H   UNK N   1      37.063  15.454  13.502  0.00  0.00     0.170 HD
ENDROOT
BRANCH  12  15
HETATM   15  C   UNK N   1      36.430  13.586  14.157  0.00  0.00     0.037 A 
HETATM   16  C   UNK N   1      35.829  13.673  15.420  0.00  0.00     0.053 A 
HETATM   17  C   UNK N   1      35.822  12.563  16.276  0.00  0.00     0.036 A 
HETATM   18  C   UNK N   1      36.414  11.362  15.875  0.00  0.00     0.024 A 
HETATM   19 Cl   UNK N   1      35.072  12.671  17.853  0.00  0.00    -0.084 Cl
HETATM   20  C   UNK N   1      37.014  11.266  14.621  0.00  0.00     0.004 A 
HETATM   21  C   UNK N   1      37.021  12.369  13.769  0.00  0.00     0.029 A 
ENDBRANCH  12  15
TORSDOF 1
ENDMDL
MODEL 2
REMARK VINA RESULT:      -6.7      3.485      7.489
REMARK  1 active torsions:
REMARK  status: ('A' for Active; 'I' for Inactive)
REMARK       I    between atoms: C_8  and  N_9 
REMARK       I    between atoms: N_9  and  C_10 
REMARK       I    between atoms: C_10  and  N_12 
REMARK    1  A    between atoms: N_12  and  C_13 
ROOT
HETATM    1  C   UNK N   1      34.966  12.688  11.182  0.00  0.00     0.169 C 
HETATM    2  N   UNK N   1      35.596  13.397  12.260  0.00  0.00    -0.213 N 
HETATM    3  C   UNK N   1      36.179  12.689  13.373  0.00  0.00     0.244 A 
HETATM    4  C   UNK N   1      36.664  13.876  14.149  0.00  0.00     0.254 A 
HETATM    5  O   UNK N   1      37.251  13.808  15.217  0.00  0.00    -0.271 OA
HETATM    6  N   UNK N   1      36.383  15.044  13.543  0.00  0.00    -0.158 N 
ATOM      7  HN  UNK N   1      36.622  15.970  13.896  1.00  0.00     0.187 HD
HETATM    8  C   UNK N   1      35.769  14.801  12.454  0.00  0.00     0.687 A 
HETATM    9  N   UNK N   1      35.349  15.883  11.602  0.00  0.00    -0.141 N 
HETATM   10  C   UNK N   1      34.690  15.857  10.413  0.00  0.00     0.339 C 
HETATM   11  O   UNK N   1      34.361  14.803   9.907  0.00  0.00    -0.246 OA
HETATM   12  N   UNK N   1      34.398  17.033   9.786  0.00  0.00    -0.308 N 
HETATM   13  H   UNK N   1      35.574  16.782  11.932  0.00  0.00     0.189 HD
HETATM   14  H   UNK N   1      34.682  17.866  10.228  0.00  0.00     0.170 HD
ENDROOT
BRANCH  12  15
HETATM   15  C   UNK N   1      33.712  17.148   8.536  0.00  0.00     0.037 A 
HETATM   16  C   UNK N   1      32.311  17.150   8.517  0.00  0.00     0.053 A 
HETATM   17  C   UNK N   1      31.622  17.263   7.301  0.00  0.00     0.036 A 
HETATM   18  C   UNK N   1      32.328  17.374   6.101  0.00  0.00     0.024 A 
HETATM   19 Cl   UNK N   1      29.872  17.265   7.277  0.00  0.00    -0.084 Cl
HETATM   20  C   UNK N   1      33.721  17.373   6.109  0.00  0.00     0.004 A 
HETATM   21  C   UNK N   1      34.408  17.261   7.318  0.00  0.00     0.029 A 
ENDBRANCH  12  15
TORSDOF 1
ENDMDL
MODEL 3
REMARK VINA RESULT:      -6.7      1.321      1.730
REMARK  1 active torsions:
REMARK  status: ('A' for Active; 'I' for Inactive)
REMARK       I    between atoms: C_8  and  N_9 
REMARK       I    between atoms: N_9  and  C_10 
REMARK       I    between atoms: C_10  and  N_12 
REMARK    1  A    between atoms: N_12  and  C_13 
ROOT
HETATM    1  C   UNK N   1      33.742  14.230   9.707  0.00  0.00     0.169 C 
HETATM    2  N   UNK N   1      34.214  15.577   9.546  0.00  0.00    -0.213 N 
HETATM    3  C   UNK N   1      33.825  16.367   8.405  0.00  0.00     0.244 A 
HETATM    4  C   UNK N   1      34.577  17.619   8.747  0.00  0.00     0.254 A 
HETATM    5  O   UNK N   1      34.575  18.631   8.066  0.00  0.00    -0.271 OA
HETATM    6  N   UNK N   1      35.265  17.513   9.898  0.00  0.00    -0.158 N 
ATOM      7  HN  UNK N   1      35.843  18.243  10.315  1.00  0.00     0.187 HD
HETATM    8  C   UNK N   1      35.077  16.350  10.381  0.00  0.00     0.687 A 
HETATM    9  N   UNK N   1      35.704  15.968  11.620  0.00  0.00    -0.141 N 
HETATM   10  C   UNK N   1      35.644  14.798  12.310  0.00  0.00     0.339 C 
HETATM   11  O   UNK N   1      34.983  13.866  11.897  0.00  0.00    -0.246 OA
HETATM   12  N   UNK N   1      36.336  14.676  13.478  0.00  0.00    -0.308 N 
HETATM   13  H   UNK N   1      36.264  16.664  12.033  0.00  0.00     0.189 HD
HETATM   14  H   UNK N   1      36.860  15.454  13.780  0.00  0.00     0.170 HD
ENDROOT
BRANCH  12  15
HETATM   15  C   UNK N   1      36.360  13.505  14.299  0.00  0.00     0.037 A 
HETATM   16  C   UNK N   1      37.240  12.461  13.985  0.00  0.00     0.053 A 
HETATM   17  C   UNK N   1      37.277  11.306  14.779  0.00  0.00     0.036 A 
HETATM   18  C   UNK N   1      36.436  11.188  15.889  0.00  0.00     0.024 A 
HETATM   19 Cl   UNK N   1      38.375  10.001  14.387  0.00  0.00    -0.084 Cl
HETATM   20  C   UNK N   1      35.558  12.221  16.209  0.00  0.00     0.004 A 
HETATM   21  C   UNK N   1      35.520  13.370  15.421  0.00  0.00     0.029 A 
ENDBRANCH  12  15
TORSDOF 1
ENDMDL
MODEL 4
REMARK VINA RESULT:      -6.2      4.137      7.979
REMARK  1 active torsions:
REMARK  status: ('A' for Active; 'I' for Inactive)
REMARK       I    between atoms: C_8  and  N_9 
REMARK       I    between atoms: N_9  and  C_10 
REMARK       I    between atoms: C_10  and  N_12 
REMARK    1  A    between atoms: N_12  and  C_13 
ROOT
HETATM    1  C   UNK N   1      34.545  12.524  10.207  0.00  0.00     0.169 C 
HETATM    2  N   UNK N   1      35.124  13.229  11.317  0.00  0.00    -0.213 N 
HETATM    3  C   UNK N   1      35.898  12.533  12.315  0.00  0.00     0.244 A 
HETATM    4  C   UNK N   1      36.232  13.710  13.182  0.00  0.00     0.254 A 
HETATM    5  O   UNK N   1      36.900  13.646  14.202  0.00  0.00    -0.271 OA
HETATM    6  N   UNK N   1      35.714  14.861  12.718  0.00  0.00    -0.158 N 
ATOM      7  HN  UNK N   1      35.819  15.778  13.153  1.00  0.00     0.187 HD
HETATM    8  C   UNK N   1      35.072  14.618  11.646  0.00  0.00     0.687 A 
HETATM    9  N   UNK N   1      34.413  15.683  10.937  0.00  0.00    -0.141 N 
HETATM   10  C   UNK N   1      33.681  15.654   9.792  0.00  0.00     0.339 C 
HETATM   11  O   UNK N   1      33.498  14.610   9.198  0.00  0.00    -0.246 OA
HETATM   12  N   UNK N   1      33.150  16.813   9.309  0.00  0.00    -0.308 N 
HETATM   13  H   UNK N   1      34.506  16.574  11.347  0.00  0.00     0.189 HD
HETATM   14  H   UNK N   1      33.321  17.639   9.819  0.00  0.00     0.170 HD
ENDROOT
BRANCH  12  15
HETATM   15  C   UNK N   1      32.364  16.923   8.119  0.00  0.00     0.037 A 
HETATM   16  C   UNK N   1      32.999  17.171   6.895  0.00  0.00     0.053 A 
HETATM   17  C   UNK N   1      32.245  17.281   5.718  0.00  0.00     0.036 A 
HETATM   18  C   UNK N   1      30.855  17.146   5.759  0.00  0.00     0.024 A 
HETATM   19 Cl   UNK N   1      33.037  17.590   4.189  0.00  0.00    -0.084 Cl
HETATM   20  C   UNK N   1      30.214  16.899   6.972  0.00  0.00     0.004 A 
HETATM   21  C   UNK N   1      30.963  16.789   8.142  0.00  0.00     0.029 A 
ENDBRANCH  12  15
TORSDOF 1
ENDMDL
MODEL 5
REMARK VINA RESULT:      -5.9      6.367     10.008
REMARK  1 active torsions:
REMARK  status: ('A' for Active; 'I' for Inactive)
REMARK       I    between atoms: C_8  and  N_9 
REMARK       I    between atoms: N_9  and  C_10 
REMARK       I    between atoms: C_10  and  N_12 
REMARK    1  A    between atoms: N_12  and  C_13 
ROOT
HETATM    1  C   UNK N   1      33.133  15.458   6.457  0.00  0.00     0.169 C 
HETATM    2  N   UNK N   1      33.585  16.061   7.680  0.00  0.00    -0.213 N 
HETATM    3  C   UNK N   1      34.901  15.784   8.201  0.00  0.00     0.244 A 
HETATM    4  C   UNK N   1      34.827  16.640   9.430  0.00  0.00     0.254 A 
HETATM    5  O   UNK N   1      35.728  16.756  10.244  0.00  0.00    -0.271 OA
HETATM    6  N   UNK N   1      33.648  17.278   9.549  0.00  0.00    -0.158 N 
ATOM      7  HN  UNK N   1      33.387  17.908  10.307  1.00  0.00     0.187 HD
HETATM    8  C   UNK N   1      32.912  16.965   8.557  0.00  0.00     0.687 A 
HETATM    9  N   UNK N   1      31.586  17.513   8.436  0.00  0.00    -0.141 N 
HETATM   10  C   UNK N   1      30.642  17.321   7.478  0.00  0.00     0.339 C 
HETATM   11  O   UNK N   1      30.856  16.588   6.532  0.00  0.00    -0.246 OA
HETATM   12  N   UNK N   1      29.443  17.961   7.585  0.00  0.00    -0.308 N 
HETATM   13  H   UNK N   1      31.322  18.123   9.162  0.00  0.00     0.189 HD
HETATM   14  H   UNK N   1      29.308  18.546   8.365  0.00  0.00     0.170 HD
ENDROOT
BRANCH  12  15
HETATM   15  C   UNK N   1      28.366  17.847   6.650  0.00  0.00     0.037 A 
HETATM   16  C   UNK N   1      28.167  18.860   5.702  0.00  0.00     0.053 A 
HETATM   17  C   UNK N   1      27.117  18.765   4.778  0.00  0.00     0.036 A 
HETATM   18  C   UNK N   1      26.261  17.661   4.797  0.00  0.00     0.024 A 
HETATM   19 Cl   UNK N   1      26.868  20.030   3.594  0.00  0.00    -0.084 Cl
HETATM   20  C   UNK N   1      26.450  16.650   5.736  0.00  0.00     0.004 A 
HETATM   21  C   UNK N   1      27.494  16.742   6.655  0.00  0.00     0.029 A 
ENDBRANCH  12  15
TORSDOF 1
ENDMDL
MODEL 6
REMARK VINA RESULT:      -5.8      2.969      3.373
REMARK  1 active torsions:
REMARK  status: ('A' for Active; 'I' for Inactive)
REMARK       I    between atoms: C_8  and  N_9 
REMARK       I    between atoms: N_9  and  C_10 
REMARK       I    between atoms: C_10  and  N_12 
REMARK    1  A    between atoms: N_12  and  C_13 
ROOT
HETATM    1  C   UNK N   1      37.743  13.102  10.946  0.00  0.00     0.169 C 
HETATM    2  N   UNK N   1      36.651  13.239  10.022  0.00  0.00    -0.213 N 
HETATM    3  C   UNK N   1      36.884  13.613   8.649  0.00  0.00     0.244 A 
HETATM    4  C   UNK N   1      35.460  13.602   8.182  0.00  0.00     0.254 A 
HETATM    5  O   UNK N   1      35.106  13.861   7.043  0.00  0.00    -0.271 OA
HETATM    6  N   UNK N   1      34.595  13.271   9.158  0.00  0.00    -0.158 N 
ATOM      7  HN  UNK N   1      33.583  13.204   9.057  1.00  0.00     0.187 HD
HETATM    8  C   UNK N   1      35.250  13.057  10.229  0.00  0.00     0.687 A 
HETATM    9  N   UNK N   1      34.563  12.683  11.437  0.00  0.00    -0.141 N 
HETATM   10  C   UNK N   1      35.052  12.410  12.676  0.00  0.00     0.339 C 
HETATM   11  O   UNK N   1      36.245  12.463  12.899  0.00  0.00    -0.246 OA
HETATM   12  N   UNK N   1      34.187  12.074  13.675  0.00  0.00    -0.308 N 
HETATM   13  H   UNK N   1      33.584  12.614  11.354  0.00  0.00     0.189 HD
HETATM   14  H   UNK N   1      33.228  12.042  13.455  0.00  0.00     0.170 HD
ENDROOT
BRANCH  12  15
HETATM   15  C   UNK N   1      34.567  11.764  15.019  0.00  0.00     0.037 A 
HETATM   16  C   UNK N   1      34.733  12.802  15.945  0.00  0.00     0.053 A 
HETATM   17  C   UNK N   1      35.105  12.517  17.266  0.00  0.00     0.036 A 
HETATM   18  C   UNK N   1      35.313  11.196  17.669  0.00  0.00     0.024 A 
HETATM   19 Cl   UNK N   1      35.312  13.814  18.423  0.00  0.00    -0.084 Cl
HETATM   20  C   UNK N   1      35.150  10.156  16.756  0.00  0.00     0.004 A 
HETATM   21  C   UNK N   1      34.781  10.438  15.441  0.00  0.00     0.029 A 
ENDBRANCH  12  15
TORSDOF 1
ENDMDL
MODEL 7
REMARK VINA RESULT:      -5.5      1.935      2.066
REMARK  1 active torsions:
REMARK  status: ('A' for Active; 'I' for Inactive)
REMARK       I    between atoms: C_8  and  N_9 
REMARK       I    between atoms: N_9  and  C_10 
REMARK       I    between atoms: C_10  and  N_12 
REMARK    1  A    between atoms: N_12  and  C_13 
ROOT
HETATM    1  C   UNK N   1      34.531  13.597   8.061  0.00  0.00     0.169 C 
HETATM    2  N   UNK N   1      34.514  15.022   7.880  0.00  0.00    -0.213 N 
HETATM    3  C   UNK N   1      34.241  15.602   6.588  0.00  0.00     0.244 A 
HETATM    4  C   UNK N   1      34.349  17.046   6.977  0.00  0.00     0.254 A 
HETATM    5  O   UNK N   1      34.195  17.980   6.206  0.00  0.00    -0.271 OA
HETATM    6  N   UNK N   1      34.636  17.214   8.281  0.00  0.00    -0.158 N 
ATOM      7  HN  UNK N   1      34.753  18.109   8.753  1.00  0.00     0.187 HD
HETATM    8  C   UNK N   1      34.737  16.068   8.827  0.00  0.00     0.687 A 
HETATM    9  N   UNK N   1      35.042  15.957  10.230  0.00  0.00    -0.141 N 
HETATM   10  C   UNK N   1      35.195  14.854  11.010  0.00  0.00     0.339 C 
HETATM   11  O   UNK N   1      35.075  13.740  10.541  0.00  0.00    -0.246 OA
HETATM   12  N   UNK N   1      35.486  15.008  12.333  0.00  0.00    -0.308 N 
HETATM   13  H   UNK N   1      35.158  16.815  10.698  0.00  0.00     0.189 HD
HETATM   14  H   UNK N   1      35.575  15.928  12.675  0.00  0.00     0.170 HD
ENDROOT
BRANCH  12  15
HETATM   15  C   UNK N   1      35.672  13.937  13.262  0.00  0.00     0.037 A 
HETATM   16  C   UNK N   1      34.842  12.810  13.190  0.00  0.00     0.053 A 
HETATM   17  C   UNK N   1      35.010  11.751  14.092  0.00  0.00     0.036 A 
HETATM   18  C   UNK N   1      36.006  11.811  15.070  0.00  0.00     0.024 A 
HETATM   19 Cl   UNK N   1      33.974  10.343  14.002  0.00  0.00    -0.084 Cl
HETATM   20  C   UNK N   1      36.836  12.927  15.151  0.00  0.00     0.004 A 
HETATM   21  C   UNK N   1      36.670  13.982  14.254  0.00  0.00     0.029 A 
ENDBRANCH  12  15
TORSDOF 1
ENDMDL
MODEL 8
REMARK VINA RESULT:      -5.5      3.505      7.518
REMARK  1 active torsions:
REMARK  status: ('A' for Active; 'I' for Inactive)
REMARK       I    between atoms: C_8  and  N_9 
REMARK       I    between atoms: N_9  and  C_10 
REMARK       I    between atoms: C_10  and  N_12 
REMARK    1  A    between atoms: N_12  and  C_13 
ROOT
HETATM    1  C   UNK N   1      36.342  14.587  13.700  0.00  0.00     0.169 C 
HETATM    2  N   UNK N   1      36.060  13.179  13.663  0.00  0.00    -0.213 N 
HETATM    3  C   UNK N   1      36.586  12.291  14.670  0.00  0.00     0.244 A 
HETATM    4  C   UNK N   1      35.999  11.012  14.152  0.00  0.00     0.254 A 
HETATM    5  O   UNK N   1      36.158   9.920  14.674  0.00  0.00    -0.271 OA
HETATM    6  N   UNK N   1      35.268  11.190  13.037  0.00  0.00    -0.158 N 
ATOM      7  HN  UNK N   1      34.782  10.456  12.522  1.00  0.00     0.187 HD
HETATM    8  C   UNK N   1      35.284  12.426  12.731  0.00  0.00     0.687 A 
HETATM    9  N   UNK N   1      34.574  12.894  11.569  0.00  0.00    -0.141 N 
HETATM   10  C   UNK N   1      34.455  14.150  11.061  0.00  0.00     0.339 C 
HETATM   11  O   UNK N   1      34.997  15.093  11.602  0.00  0.00    -0.246 OA
HETATM   12  N   UNK N   1      33.718  14.345   9.931  0.00  0.00    -0.308 N 
HETATM   13  H   UNK N   1      34.100  12.196  11.063  0.00  0.00     0.189 HD
HETATM   14  H   UNK N   1      33.294  13.556   9.522  0.00  0.00     0.170 HD
ENDROOT
BRANCH  12  15
HETATM   15  C   UNK N   1      33.512  15.609   9.294  0.00  0.00     0.037 A 
HETATM   16  C   UNK N   1      32.206  16.044   9.032  0.00  0.00     0.053 A 
HETATM   17  C   UNK N   1      31.985  17.280   8.409  0.00  0.00     0.036 A 
HETATM   18  C   UNK N   1      33.066  18.087   8.044  0.00  0.00     0.024 A 
HETATM   19 Cl   UNK N   1      30.354  17.824   8.082  0.00  0.00    -0.084 Cl
HETATM   20  C   UNK N   1      34.369  17.663   8.299  0.00  0.00     0.004 A 
HETATM   21  C   UNK N   1      34.589  16.434   8.920  0.00  0.00     0.029 A 
ENDBRANCH  12  15
TORSDOF 1
ENDMDL
MODEL 9
REMARK VINA RESULT:      -5.5      2.581      3.673
REMARK  1 active torsions:
REMARK  status: ('A' for Active; 'I' for Inactive)
REMARK       I    between atoms: C_8  and  N_9 
REMARK       I    between atoms: N_9  and  C_10 
REMARK       I    between atoms: C_10  and  N_12 
REMARK    1  A    between atoms: N_12  and  C_13 
ROOT
HETATM    1  C   UNK N   1      34.875  12.164  11.775  0.00  0.00     0.169 C 
HETATM    2  N   UNK N   1      35.424  13.490  11.826  0.00  0.00    -0.213 N 
HETATM    3  C   UNK N   1      35.497  14.309  10.642  0.00  0.00     0.244 A 
HETATM    4  C   UNK N   1      36.124  15.522  11.261  0.00  0.00     0.254 A 
HETATM    5  O   UNK N   1      36.403  16.541  10.649  0.00  0.00    -0.271 OA
HETATM    6  N   UNK N   1      36.353  15.374  12.578  0.00  0.00    -0.158 N 
ATOM      7  HN  UNK N   1      36.771  16.074  13.191  1.00  0.00     0.187 HD
HETATM    8  C   UNK N   1      35.961  14.216  12.933  0.00  0.00     0.687 A 
HETATM    9  N   UNK N   1      36.091  13.794  14.304  0.00  0.00    -0.141 N 
HETATM   10  C   UNK N   1      35.745  12.621  14.897  0.00  0.00     0.339 C 
HETATM   11  O   UNK N   1      35.240  11.724  14.253  0.00  0.00    -0.246 OA
HETATM   12  N   UNK N   1      35.971  12.457  16.232  0.00  0.00    -0.308 N 
HETATM   13  H   UNK N   1      36.493  14.461  14.906  0.00  0.00     0.189 HD
HETATM   14  H   UNK N   1      36.382  13.207  16.720  0.00  0.00     0.170 HD
ENDROOT
BRANCH  12  15
HETATM   15  C   UNK N   1      35.656  11.278  16.978  0.00  0.00     0.037 A 
HETATM   16  C   UNK N   1      35.225  11.397  18.306  0.00  0.00     0.053 A 
HETATM   17  C   UNK N   1      34.913  10.253  19.053  0.00  0.00     0.036 A 
HETATM   18  C   UNK N   1      35.029   8.985  18.478  0.00  0.00     0.024 A 
HETATM   19 Cl   UNK N   1      34.375  10.402  20.712  0.00  0.00    -0.084 Cl
HETATM   20  C   UNK N   1      35.456   8.855  17.158  0.00  0.00     0.004 A 
HETATM   21  C   UNK N   1      35.767   9.993  16.414  0.00  0.00     0.029 A 
ENDBRANCH  12  15
TORSDOF 1
ENDMDL
