MODEL 1
REMARK VINA RESULT:      -7.4      0.000      0.000
REMARK  7 active torsions:
REMARK  status: ('A' for Active; 'I' for Inactive)
REMARK    1  A    between atoms: C_2  and  C_3 
REMARK    2  A    between atoms: C_2  and  O_17 
REMARK    3  A    between atoms: C_5  and  C_13 
REMARK    4  A    between atoms: C_7  and  C_9 
REMARK    5  A    between atoms: C_18  and  O_17 
REMARK    6  A    between atoms: N_23  and  C_34 
REMARK    7  A    between atoms: C_26  and  C_27 
ROOT
HETATM    1  C   UNK N   1      30.995  17.252   7.512  0.00  0.00     0.131 C 
HETATM    2  C   UNK N   1      32.059  17.444   8.592  0.00  0.00     0.033 C 
HETATM    3  C   UNK N   1      33.260  18.206   8.034  0.00  0.00     0.009 C 
HETATM    4  C   UNK N   1      33.852  17.539   6.798  0.00  0.00     0.010 C 
HETATM    5  C   UNK N   1      34.690  16.337   7.172  0.00  0.00     0.128 C 
HETATM    6  N   UNK N   1      34.330  15.367   6.184  0.00  0.00    -0.383 N 
HETATM    7  C   UNK N   1      33.610  15.933   5.076  0.00  0.00     0.128 C 
HETATM    8  C   UNK N   1      32.836  17.081   5.714  0.00  0.00     0.020 C 
HETATM    9  C   UNK N   1      31.538  16.468   6.299  0.00  0.00     0.053 C 
ENDROOT
BRANCH   1  10
HETATM   10  O   UNK N   1      30.159  18.379   7.270  0.00  0.00    -0.376 OA
BRANCH  10  11
HETATM   11  C   UNK N   1      28.911  18.280   7.920  0.00  0.00     0.150 C 
HETATM   12  C   UNK N   1      28.974  17.154   8.956  0.00  0.00     0.045 C 
BRANCH  11  13
HETATM   13  C   UNK N   1      27.840  17.990   6.891  0.00  0.00    -0.028 A 
HETATM   14  C   UNK N   1      27.517  18.943   5.913  0.00  0.00     0.025 A 
HETATM   15  C   UNK N   1      26.561  18.652   4.924  0.00  0.00     0.049 A 
HETATM   16  C   UNK N   1      25.924  17.405   4.924  0.00  0.00     0.032 A 
HETATM   17  C   UNK N   1      26.223  16.455   5.906  0.00  0.00     0.049 A 
HETATM   18  C   UNK N   1      27.178  16.752   6.876  0.00  0.00     0.025 A 
BRANCH  15  19
HETATM   19  C   UNK N   1      26.223  19.645   3.850  0.00  0.00     0.417 C 
HETATM   20  F   UNK N   1      25.481  20.676   4.398  0.00  0.00    -0.166 F 
HETATM   21  F   UNK N   1      27.387  20.164   3.311  0.00  0.00    -0.166 F 
HETATM   22  F   UNK N   1      25.494  19.060   2.833  0.00  0.00    -0.166 F 
ENDBRANCH  15  19
BRANCH  17  23
HETATM   23  C   UNK N   1      25.538  15.121   5.935  0.00  0.00     0.417 C 
HETATM   24  F   UNK N   1      25.394  14.651   4.643  0.00  0.00    -0.166 F 
HETATM   25  F   UNK N   1      24.287  15.213   6.521  0.00  0.00    -0.166 F 
HETATM   26  F   UNK N   1      26.304  14.226   6.658  0.00  0.00    -0.166 F 
ENDBRANCH  17  23
ENDBRANCH  11  13
ENDBRANCH  10  11
ENDBRANCH   1  10
BRANCH   9  27
HETATM   27  C   UNK N   1      30.496  16.075   5.257  0.00  0.00    -0.051 A 
HETATM   28  C   UNK N   1      29.847  14.832   5.349  0.00  0.00     0.011 A 
HETATM   29  C   UNK N   1      28.884  14.455   4.409  0.00  0.00     0.043 A 
HETATM   30  C   UNK N   1      28.545  15.325   3.372  0.00  0.00     0.116 A 
HETATM   31  C   UNK N   1      29.164  16.574   3.280  0.00  0.00     0.043 A 
HETATM   32  F   UNK N   1      27.620  14.955   2.453  0.00  0.00    -0.206 F 
HETATM   33  C   UNK N   1      30.133  16.946   4.217  0.00  0.00     0.011 A 
ENDBRANCH   9  27
BRANCH   6  34
HETATM   34  C   UNK N   1      34.144  14.010   6.572  0.00  0.00     0.011 A 
HETATM   35  C   UNK N   1      33.473  13.660   7.656  0.00  0.00     0.075 A 
HETATM   36  C   UNK N   1      33.422  12.227   7.708  0.00  0.00     0.151 A 
HETATM   37  O   UNK N   1      32.863  11.600   8.591  0.00  0.00    -0.293 OA
HETATM   38  C   UNK N   1      34.113  11.602   6.548  0.00  0.00     0.089 A 
HETATM   39  C   UNK N   1      34.622  12.831   5.763  0.00  0.00     0.065 A 
ENDBRANCH   6  34
TORSDOF 7
ENDMDL
MODEL 2
REMARK VINA RESULT:      -7.4      0.075      2.893
REMARK  7 active torsions:
REMARK  status: ('A' for Active; 'I' for Inactive)
REMARK    1  A    between atoms: C_2  and  C_3 
REMARK    2  A    between atoms: C_2  and  O_17 
REMARK    3  A    between atoms: C_5  and  C_13 
REMARK    4  A    between atoms: C_7  and  C_9 
REMARK    5  A    between atoms: C_18  and  O_17 
REMARK    6  A    between atoms: N_23  and  C_34 
REMARK    7  A    between atoms: C_26  and  C_27 
ROOT
HETATM    1  C   UNK N   1      31.010  17.260   7.521  0.00  0.00     0.131 C 
HETATM    2  C   UNK N   1      32.085  17.453   8.591  0.00  0.00     0.033 C 
HETATM    3  C   UNK N   1      33.290  18.192   8.015  0.00  0.00     0.009 C 
HETATM    4  C   UNK N   1      33.865  17.501   6.783  0.00  0.00     0.010 C 
HETATM    5  C   UNK N   1      34.691  16.293   7.168  0.00  0.00     0.128 C 
HETATM    6  N   UNK N   1      34.312  15.315   6.197  0.00  0.00    -0.383 N 
HETATM    7  C   UNK N   1      33.591  15.874   5.086  0.00  0.00     0.128 C 
HETATM    8  C   UNK N   1      32.836  17.041   5.714  0.00  0.00     0.020 C 
HETATM    9  C   UNK N   1      31.535  16.452   6.316  0.00  0.00     0.053 C 
ENDROOT
BRANCH   1  10
HETATM   10  O   UNK N   1      30.187  18.393   7.270  0.00  0.00    -0.376 OA
BRANCH  10  11
HETATM   11  C   UNK N   1      28.922  18.295   7.886  0.00  0.00     0.150 C 
HETATM   12  C   UNK N   1      28.971  17.200   8.956  0.00  0.00     0.045 C 
BRANCH  11  13
HETATM   13  C   UNK N   1      27.885  17.960   6.836  0.00  0.00    -0.028 A 
HETATM   14  C   UNK N   1      27.227  16.721   6.857  0.00  0.00     0.025 A 
HETATM   15  C   UNK N   1      26.224  16.432   5.914  0.00  0.00     0.049 A 
HETATM   16  C   UNK N   1      25.890  17.386   4.946  0.00  0.00     0.032 A 
HETATM   17  C   UNK N   1      26.554  18.616   4.902  0.00  0.00     0.049 A 
HETATM   18  C   UNK N   1      27.540  18.894   5.847  0.00  0.00     0.025 A 
BRANCH  15  19
HETATM   19  C   UNK N   1      25.486  15.125   5.938  0.00  0.00     0.417 C 
HETATM   20  F   UNK N   1      26.269  14.169   6.561  0.00  0.00    -0.166 F 
HETATM   21  F   UNK N   1      24.304  15.269   6.642  0.00  0.00    -0.166 F 
HETATM   22  F   UNK N   1      25.183  14.693   4.661  0.00  0.00    -0.166 F 
ENDBRANCH  15  19
BRANCH  17  23
HETATM   23  C   UNK N   1      26.223  19.644   3.861  0.00  0.00     0.417 C 
HETATM   24  F   UNK N   1      25.478  19.057   2.856  0.00  0.00    -0.166 F 
HETATM   25  F   UNK N   1      27.372  20.185   3.310  0.00  0.00    -0.166 F 
HETATM   26  F   UNK N   1      25.484  20.661   4.438  0.00  0.00    -0.166 F 
ENDBRANCH  17  23
ENDBRANCH  11  13
ENDBRANCH  10  11
ENDBRANCH   1  10
BRANCH   9  27
HETATM   27  C   UNK N   1      30.481  16.058   5.287  0.00  0.00    -0.051 A 
HETATM   28  C   UNK N   1      30.173  16.930   4.228  0.00  0.00     0.011 A 
HETATM   29  C   UNK N   1      29.215  16.584   3.271  0.00  0.00     0.043 A 
HETATM   30  C   UNK N   1      28.563  15.353   3.350  0.00  0.00     0.116 A 
HETATM   31  C   UNK N   1      28.875  14.465   4.382  0.00  0.00     0.043 A 
HETATM   32  F   UNK N   1      27.626  15.023   2.428  0.00  0.00    -0.206 F 
HETATM   33  C   UNK N   1      29.827  14.815   5.345  0.00  0.00     0.011 A 
ENDBRANCH   9  27
BRANCH   6  34
HETATM   34  C   UNK N   1      34.112  13.965   6.604  0.00  0.00     0.011 A 
HETATM   35  C   UNK N   1      33.510  13.641   7.736  0.00  0.00     0.075 A 
HETATM   36  C   UNK N   1      33.418  12.210   7.800  0.00  0.00     0.151 A 
HETATM   37  O   UNK N   1      32.905  11.605   8.724  0.00  0.00    -0.293 OA
HETATM   38  C   UNK N   1      34.003  11.560   6.596  0.00  0.00     0.089 A 
HETATM   39  C   UNK N   1      34.492  12.770   5.770  0.00  0.00     0.065 A 
ENDBRANCH   6  34
TORSDOF 7
ENDMDL
MODEL 3
REMARK VINA RESULT:      -7.4      4.516      8.536
REMARK  7 active torsions:
REMARK  status: ('A' for Active; 'I' for Inactive)
REMARK    1  A    between atoms: C_2  and  C_3 
REMARK    2  A    between atoms: C_2  and  O_17 
REMARK    3  A    between atoms: C_5  and  C_13 
REMARK    4  A    between atoms: C_7  and  C_9 
REMARK    5  A    between atoms: C_18  and  O_17 
REMARK    6  A    between atoms: N_23  and  C_34 
REMARK    7  A    between atoms: C_26  and  C_27 
ROOT
HETATM    1  C   UNK N   1      24.029  18.294   4.363  0.00  0.00     0.131 C 
HETATM    2  C   UNK N   1      22.719  18.995   4.003  0.00  0.00     0.033 C 
HETATM    3  C   UNK N   1      21.677  18.783   5.099  0.00  0.00     0.009 C 
HETATM    4  C   UNK N   1      21.440  17.308   5.402  0.00  0.00     0.010 C 
HETATM    5  C   UNK N   1      20.572  16.664   4.344  0.00  0.00     0.128 C 
HETATM    6  N   UNK N   1      21.201  15.398   4.131  0.00  0.00    -0.383 N 
HETATM    7  C   UNK N   1      22.161  15.068   5.148  0.00  0.00     0.128 C 
HETATM    8  C   UNK N   1      22.712  16.429   5.561  0.00  0.00     0.020 C 
HETATM    9  C   UNK N   1      23.836  16.774   4.552  0.00  0.00     0.053 C 
ENDROOT
BRANCH   1  10
HETATM   10  O   UNK N   1      24.863  18.990   5.282  0.00  0.00    -0.376 OA
BRANCH  10  11
HETATM   11  C   UNK N   1      26.032  19.499   4.678  0.00  0.00     0.150 C 
HETATM   12  C   UNK N   1      25.954  19.269   3.165  0.00  0.00     0.045 C 
BRANCH  11  13
HETATM   13  C   UNK N   1      27.237  18.790   5.257  0.00  0.00    -0.028 A 
HETATM   14  C   UNK N   1      27.386  18.661   6.646  0.00  0.00     0.025 A 
HETATM   15  C   UNK N   1      28.476  17.953   7.183  0.00  0.00     0.049 A 
HETATM   16  C   UNK N   1      29.422  17.384   6.321  0.00  0.00     0.032 A 
HETATM   17  C   UNK N   1      29.295  17.524   4.935  0.00  0.00     0.049 A 
HETATM   18  C   UNK N   1      28.205  18.220   4.416  0.00  0.00     0.025 A 
BRANCH  15  19
HETATM   19  C   UNK N   1      28.638  17.777   8.665  0.00  0.00     0.417 C 
HETATM   20  F   UNK N   1      28.685  19.019   9.270  0.00  0.00    -0.166 F 
HETATM   21  F   UNK N   1      27.563  17.068   9.170  0.00  0.00    -0.166 F 
HETATM   22  F   UNK N   1      29.796  17.087   8.967  0.00  0.00    -0.166 F 
ENDBRANCH  15  19
BRANCH  17  23
HETATM   23  C   UNK N   1      30.307  16.938   3.996  0.00  0.00     0.417 C 
HETATM   24  F   UNK N   1      29.747  16.807   2.739  0.00  0.00    -0.166 F 
HETATM   25  F   UNK N   1      30.731  15.694   4.431  0.00  0.00    -0.166 F 
HETATM   26  F   UNK N   1      31.402  17.780   3.917  0.00  0.00    -0.166 F 
ENDBRANCH  17  23
ENDBRANCH  11  13
ENDBRANCH  10  11
ENDBRANCH   1  10
BRANCH   9  27
HETATM   27  C   UNK N   1      25.121  15.972   4.733  0.00  0.00    -0.051 A 
HETATM   28  C   UNK N   1      25.542  15.605   6.022  0.00  0.00     0.011 A 
HETATM   29  C   UNK N   1      26.713  14.865   6.209  0.00  0.00     0.043 A 
HETATM   30  C   UNK N   1      27.469  14.465   5.106  0.00  0.00     0.116 A 
HETATM   31  C   UNK N   1      27.051  14.802   3.817  0.00  0.00     0.043 A 
HETATM   32  F   UNK N   1      28.610  13.757   5.288  0.00  0.00    -0.206 F 
HETATM   33  C   UNK N   1      25.884  15.551   3.631  0.00  0.00     0.011 A 
ENDBRANCH   9  27
BRANCH   6  34
HETATM   34  C   UNK N   1      21.324  14.892   2.806  0.00  0.00     0.011 A 
HETATM   35  C   UNK N   1      22.490  14.754   2.197  0.00  0.00     0.075 A 
HETATM   36  C   UNK N   1      22.256  14.161   0.912  0.00  0.00     0.151 A 
HETATM   37  O   UNK N   1      23.141  13.901   0.115  0.00  0.00    -0.293 OA
HETATM   38  C   UNK N   1      20.813  13.882   0.680  0.00  0.00     0.089 A 
HETATM   39  C   UNK N   1      20.163  14.395   1.984  0.00  0.00     0.065 A 
ENDBRANCH   6  34
TORSDOF 7
ENDMDL
MODEL 4
REMARK VINA RESULT:      -7.3     13.816     16.624
REMARK  7 active torsions:
REMARK  status: ('A' for Active; 'I' for Inactive)
REMARK    1  A    between atoms: C_2  and  C_3 
REMARK    2  A    between atoms: C_2  and  O_17 
REMARK    3  A    between atoms: C_5  and  C_13 
REMARK    4  A    between atoms: C_7  and  C_9 
REMARK    5  A    between atoms: C_18  and  O_17 
REMARK    6  A    between atoms: N_23  and  C_34 
REMARK    7  A    between atoms: C_26  and  C_27 
ROOT
HETATM    1  C   UNK N   1      27.857  25.535  -8.978  0.00  0.00     0.131 C 
HETATM    2  C   UNK N   1      28.047  25.369 -10.486  0.00  0.00     0.033 C 
HETATM    3  C   UNK N   1      26.706  25.121 -11.173  0.00  0.00     0.009 C 
HETATM    4  C   UNK N   1      25.958  23.931 -10.583  0.00  0.00     0.010 C 
HETATM    5  C   UNK N   1      26.539  22.622 -11.072  0.00  0.00     0.128 C 
HETATM    6  N   UNK N   1      26.549  21.809  -9.896  0.00  0.00    -0.383 N 
HETATM    7  C   UNK N   1      25.762  22.357  -8.826  0.00  0.00     0.128 C 
HETATM    8  C   UNK N   1      25.895  23.863  -9.032  0.00  0.00     0.020 C 
HETATM    9  C   UNK N   1      27.214  24.288  -8.337  0.00  0.00     0.053 C 
ENDROOT
BRANCH   1  10
HETATM   10  O   UNK N   1      27.411  26.819  -8.557  0.00  0.00    -0.376 OA
BRANCH  10  11
HETATM   11  C   UNK N   1      28.463  27.635  -8.091  0.00  0.00     0.150 C 
HETATM   12  C   UNK N   1      29.797  27.056  -8.574  0.00  0.00     0.045 C 
BRANCH  11  13
HETATM   13  C   UNK N   1      28.424  27.676  -6.578  0.00  0.00    -0.028 A 
HETATM   14  C   UNK N   1      27.235  27.995  -5.906  0.00  0.00     0.025 A 
HETATM   15  C   UNK N   1      27.185  27.978  -4.501  0.00  0.00     0.049 A 
HETATM   16  C   UNK N   1      28.335  27.650  -3.772  0.00  0.00     0.032 A 
HETATM   17  C   UNK N   1      29.532  27.351  -4.431  0.00  0.00     0.049 A 
HETATM   18  C   UNK N   1      29.566  27.362  -5.825  0.00  0.00     0.025 A 
BRANCH  15  19
HETATM   19  C   UNK N   1      25.915  28.286  -3.762  0.00  0.00     0.417 C 
HETATM   20  F   UNK N   1      25.792  27.424  -2.687  0.00  0.00    -0.166 F 
HETATM   21  F   UNK N   1      25.950  29.588  -3.296  0.00  0.00    -0.166 F 
HETATM   22  F   UNK N   1      24.810  28.144  -4.579  0.00  0.00    -0.166 F 
ENDBRANCH  15  19
BRANCH  17  23
HETATM   23  C   UNK N   1      30.779  27.015  -3.668  0.00  0.00     0.417 C 
HETATM   24  F   UNK N   1      31.881  27.217  -4.478  0.00  0.00    -0.166 F 
HETATM   25  F   UNK N   1      30.767  25.697  -3.246  0.00  0.00    -0.166 F 
HETATM   26  F   UNK N   1      30.875  27.837  -2.561  0.00  0.00    -0.166 F 
ENDBRANCH  17  23
ENDBRANCH  11  13
ENDBRANCH  10  11
ENDBRANCH   1  10
BRANCH   9  27
HETATM   27  C   UNK N   1      27.154  24.296  -6.813  0.00  0.00    -0.051 A 
HETATM   28  C   UNK N   1      25.958  24.638  -6.160  0.00  0.00     0.011 A 
HETATM   29  C   UNK N   1      25.881  24.646  -4.764  0.00  0.00     0.043 A 
HETATM   30  C   UNK N   1      26.995  24.292  -4.002  0.00  0.00     0.116 A 
HETATM   31  C   UNK N   1      28.185  23.926  -4.637  0.00  0.00     0.043 A 
HETATM   32  F   UNK N   1      26.924  24.310  -2.649  0.00  0.00    -0.206 F 
HETATM   33  C   UNK N   1      28.264  23.928  -6.033  0.00  0.00     0.011 A 
ENDBRANCH   9  27
BRANCH   6  34
HETATM   34  C   UNK N   1      27.669  20.969  -9.636  0.00  0.00     0.011 A 
HETATM   35  C   UNK N   1      28.520  20.597 -10.578  0.00  0.00     0.075 A 
HETATM   36  C   UNK N   1      29.555  19.818  -9.962  0.00  0.00     0.151 A 
HETATM   37  O   UNK N   1      30.493  19.336 -10.573  0.00  0.00    -0.293 OA
HETATM   38  C   UNK N   1      29.357  19.688  -8.494  0.00  0.00     0.089 A 
HETATM   39  C   UNK N   1      28.049  20.475  -8.264  0.00  0.00     0.065 A 
ENDBRANCH   6  34
TORSDOF 7
ENDMDL
MODEL 5
REMARK VINA RESULT:      -7.3     13.595     16.521
REMARK  7 active torsions:
REMARK  status: ('A' for Active; 'I' for Inactive)
REMARK    1  A    between atoms: C_2  and  C_3 
REMARK    2  A    between atoms: C_2  and  O_17 
REMARK    3  A    between atoms: C_5  and  C_13 
REMARK    4  A    between atoms: C_7  and  C_9 
REMARK    5  A    between atoms: C_18  and  O_17 
REMARK    6  A    between atoms: N_23  and  C_34 
REMARK    7  A    between atoms: C_26  and  C_27 
ROOT
HETATM    1  C   UNK N   1      27.795  25.519  -8.963  0.00  0.00     0.131 C 
HETATM    2  C   UNK N   1      27.987  25.351 -10.471  0.00  0.00     0.033 C 
HETATM    3  C   UNK N   1      26.655  25.044 -11.151  0.00  0.00     0.009 C 
HETATM    4  C   UNK N   1      25.959  23.828 -10.552  0.00  0.00     0.010 C 
HETATM    5  C   UNK N   1      26.591  22.541 -11.035  0.00  0.00     0.128 C 
HETATM    6  N   UNK N   1      26.637  21.737  -9.854  0.00  0.00    -0.383 N 
HETATM    7  C   UNK N   1      25.832  22.259  -8.785  0.00  0.00     0.128 C 
HETATM    8  C   UNK N   1      25.903  23.767  -9.000  0.00  0.00     0.020 C 
HETATM    9  C   UNK N   1      27.205  24.251  -8.312  0.00  0.00     0.053 C 
ENDROOT
BRANCH   1  10
HETATM   10  O   UNK N   1      27.298  26.787  -8.548  0.00  0.00    -0.376 OA
BRANCH  10  11
HETATM   11  C   UNK N   1      28.315  27.639  -8.068  0.00  0.00     0.150 C 
HETATM   12  C   UNK N   1      29.665  27.163  -8.614  0.00  0.00     0.045 C 
BRANCH  11  13
HETATM   13  C   UNK N   1      28.316  27.604  -6.555  0.00  0.00    -0.028 A 
HETATM   14  C   UNK N   1      29.484  27.274  -5.853  0.00  0.00     0.025 A 
HETATM   15  C   UNK N   1      29.500  27.297  -4.447  0.00  0.00     0.049 A 
HETATM   16  C   UNK N   1      28.336  27.643  -3.748  0.00  0.00     0.032 A 
HETATM   17  C   UNK N   1      27.160  27.954  -4.438  0.00  0.00     0.049 A 
HETATM   18  C   UNK N   1      27.160  27.936  -5.831  0.00  0.00     0.025 A 
BRANCH  15  19
HETATM   19  C   UNK N   1      30.748  26.978  -3.676  0.00  0.00     0.417 C 
HETATM   20  F   UNK N   1      31.847  27.138  -4.500  0.00  0.00    -0.166 F 
HETATM   21  F   UNK N   1      30.863  27.837  -2.597  0.00  0.00    -0.166 F 
HETATM   22  F   UNK N   1      30.729  25.681  -3.201  0.00  0.00    -0.166 F 
ENDBRANCH  15  19
BRANCH  17  23
HETATM   23  C   UNK N   1      25.899  28.309  -3.708  0.00  0.00     0.417 C 
HETATM   24  F   UNK N   1      24.814  28.116  -4.543  0.00  0.00    -0.166 F 
HETATM   25  F   UNK N   1      25.917  29.629  -3.292  0.00  0.00    -0.166 F 
HETATM   26  F   UNK N   1      25.765  27.493  -2.599  0.00  0.00    -0.166 F 
ENDBRANCH  17  23
ENDBRANCH  11  13
ENDBRANCH  10  11
ENDBRANCH   1  10
BRANCH   9  27
HETATM   27  C   UNK N   1      27.150  24.266  -6.788  0.00  0.00    -0.051 A 
HETATM   28  C   UNK N   1      25.954  24.606  -6.133  0.00  0.00     0.011 A 
HETATM   29  C   UNK N   1      25.881  24.620  -4.737  0.00  0.00     0.043 A 
HETATM   30  C   UNK N   1      27.000  24.275  -3.977  0.00  0.00     0.116 A 
HETATM   31  C   UNK N   1      28.189  23.912  -4.613  0.00  0.00     0.043 A 
HETATM   32  F   UNK N   1      26.932  24.300  -2.624  0.00  0.00    -0.206 F 
HETATM   33  C   UNK N   1      28.263  23.907  -6.010  0.00  0.00     0.011 A 
ENDBRANCH   9  27
BRANCH   6  34
HETATM   34  C   UNK N   1      27.792  20.945  -9.592  0.00  0.00     0.011 A 
HETATM   35  C   UNK N   1      28.129  20.553  -8.375  0.00  0.00     0.075 A 
HETATM   36  C   UNK N   1      29.296  19.724  -8.480  0.00  0.00     0.151 A 
HETATM   37  O   UNK N   1      29.845  19.203  -7.525  0.00  0.00    -0.293 OA
HETATM   38  C   UNK N   1      29.739  19.561  -9.891  0.00  0.00     0.089 A 
HETATM   39  C   UNK N   1      28.707  20.411 -10.663  0.00  0.00     0.065 A 
ENDBRANCH   6  34
TORSDOF 7
ENDMDL
MODEL 6
REMARK VINA RESULT:      -7.2      6.822      9.502
REMARK  7 active torsions:
REMARK  status: ('A' for Active; 'I' for Inactive)
REMARK    1  A    between atoms: C_2  and  C_3 
REMARK    2  A    between atoms: C_2  and  O_17 
REMARK    3  A    between atoms: C_5  and  C_13 
REMARK    4  A    between atoms: C_7  and  C_9 
REMARK    5  A    between atoms: C_18  and  O_17 
REMARK    6  A    between atoms: N_23  and  C_34 
REMARK    7  A    between atoms: C_26  and  C_27 
ROOT
HETATM    1  C   UNK N   1      23.679  15.656   6.555  0.00  0.00     0.131 C 
HETATM    2  C   UNK N   1      25.022  14.929   6.482  0.00  0.00     0.033 C 
HETATM    3  C   UNK N   1      24.952  13.771   5.490  0.00  0.00     0.009 C 
HETATM    4  C   UNK N   1      23.822  12.798   5.805  0.00  0.00     0.010 C 
HETATM    5  C   UNK N   1      24.187  11.890   6.959  0.00  0.00     0.128 C 
HETATM    6  N   UNK N   1      22.982  11.838   7.728  0.00  0.00    -0.383 N 
HETATM    7  C   UNK N   1      21.841  12.352   7.021  0.00  0.00     0.128 C 
HETATM    8  C   UNK N   1      22.442  13.434   6.130  0.00  0.00     0.020 C 
HETATM    9  C   UNK N   1      22.537  14.716   6.995  0.00  0.00     0.053 C 
ENDROOT
BRANCH   1  10
HETATM   10  O   UNK N   1      23.427  16.581   5.503  0.00  0.00    -0.376 OA
BRANCH  10  11
HETATM   11  C   UNK N   1      23.615  16.016   4.225  0.00  0.00     0.150 C 
HETATM   12  C   UNK N   1      24.828  16.674   3.560  0.00  0.00     0.045 C 
BRANCH  11  13
HETATM   13  C   UNK N   1      22.370  16.245   3.394  0.00  0.00    -0.028 A 
HETATM   14  C   UNK N   1      21.807  15.196   2.653  0.00  0.00     0.025 A 
HETATM   15  C   UNK N   1      20.620  15.395   1.926  0.00  0.00     0.049 A 
HETATM   16  C   UNK N   1      20.005  16.653   1.939  0.00  0.00     0.032 A 
HETATM   17  C   UNK N   1      20.569  17.712   2.657  0.00  0.00     0.049 A 
HETATM   18  C   UNK N   1      21.741  17.500   3.381  0.00  0.00     0.025 A 
BRANCH  15  19
HETATM   19  C   UNK N   1      19.983  14.278   1.152  0.00  0.00     0.417 C 
HETATM   20  F   UNK N   1      20.971  13.512   0.559  0.00  0.00    -0.166 F 
HETATM   21  F   UNK N   1      19.245  13.479   2.006  0.00  0.00    -0.166 F 
HETATM   22  F   UNK N   1      19.141  14.762   0.169  0.00  0.00    -0.166 F 
ENDBRANCH  15  19
BRANCH  17  23
HETATM   23  C   UNK N   1      19.935  19.072   2.668  0.00  0.00     0.417 C 
HETATM   24  F   UNK N   1      20.316  19.748   3.812  0.00  0.00    -0.166 F 
HETATM   25  F   UNK N   1      18.555  18.980   2.639  0.00  0.00    -0.166 F 
HETATM   26  F   UNK N   1      20.358  19.784   1.561  0.00  0.00    -0.166 F 
ENDBRANCH  17  23
ENDBRANCH  11  13
ENDBRANCH  10  11
ENDBRANCH   1  10
BRANCH   9  27
HETATM   27  C   UNK N   1      21.201  15.398   7.269  0.00  0.00    -0.051 A 
HETATM   28  C   UNK N   1      20.885  15.825   8.570  0.00  0.00     0.011 A 
HETATM   29  C   UNK N   1      19.669  16.458   8.841  0.00  0.00     0.043 A 
HETATM   30  C   UNK N   1      18.758  16.689   7.810  0.00  0.00     0.116 A 
HETATM   31  C   UNK N   1      19.067  16.291   6.507  0.00  0.00     0.043 A 
HETATM   32  F   UNK N   1      17.574  17.292   8.075  0.00  0.00    -0.206 F 
HETATM   33  C   UNK N   1      20.280  15.650   6.238  0.00  0.00     0.011 A 
ENDBRANCH   9  27
BRANCH   6  34
HETATM   34  C   UNK N   1      23.057  11.888   9.149  0.00  0.00     0.011 A 
HETATM   35  C   UNK N   1      24.201  11.827   9.809  0.00  0.00     0.075 A 
HETATM   36  C   UNK N   1      23.918  11.971  11.208  0.00  0.00     0.151 A 
HETATM   37  O   UNK N   1      24.774  11.963  12.076  0.00  0.00    -0.293 OA
HETATM   38  C   UNK N   1      22.465  12.152  11.468  0.00  0.00     0.089 A 
HETATM   39  C   UNK N   1      21.863  12.086  10.047  0.00  0.00     0.065 A 
ENDBRANCH   6  34
TORSDOF 7
ENDMDL
MODEL 7
REMARK VINA RESULT:      -7.2      4.397      8.273
REMARK  7 active torsions:
REMARK  status: ('A' for Active; 'I' for Inactive)
REMARK    1  A    between atoms: C_2  and  C_3 
REMARK    2  A    between atoms: C_2  and  O_17 
REMARK    3  A    between atoms: C_5  and  C_13 
REMARK    4  A    between atoms: C_7  and  C_9 
REMARK    5  A    between atoms: C_18  and  O_17 
REMARK    6  A    between atoms: N_23  and  C_34 
REMARK    7  A    between atoms: C_26  and  C_27 
ROOT
HETATM    1  C   UNK N   1      24.345  18.092   4.593  0.00  0.00     0.131 C 
HETATM    2  C   UNK N   1      22.991  18.760   4.355  0.00  0.00     0.033 C 
HETATM    3  C   UNK N   1      22.013  18.407   5.474  0.00  0.00     0.009 C 
HETATM    4  C   UNK N   1      21.854  16.902   5.656  0.00  0.00     0.010 C 
HETATM    5  C   UNK N   1      20.963  16.311   4.585  0.00  0.00     0.128 C 
HETATM    6  N   UNK N   1      21.634  15.099   4.234  0.00  0.00    -0.383 N 
HETATM    7  C   UNK N   1      22.655  14.728   5.175  0.00  0.00     0.128 C 
HETATM    8  C   UNK N   1      23.167  16.072   5.681  0.00  0.00     0.020 C 
HETATM    9  C   UNK N   1      24.226  16.555   4.657  0.00  0.00     0.053 C 
ENDROOT
BRANCH   1  10
HETATM   10  O   UNK N   1      25.192  18.745   5.532  0.00  0.00    -0.376 OA
BRANCH  10  11
HETATM   11  C   UNK N   1      26.311  19.353   4.924  0.00  0.00     0.150 C 
HETATM   12  C   UNK N   1      26.208  19.185   3.405  0.00  0.00     0.045 C 
BRANCH  11  13
HETATM   13  C   UNK N   1      27.573  18.698   5.443  0.00  0.00    -0.028 A 
HETATM   14  C   UNK N   1      28.500  18.137   4.552  0.00  0.00     0.025 A 
HETATM   15  C   UNK N   1      29.698  17.578   5.030  0.00  0.00     0.049 A 
HETATM   16  C   UNK N   1      29.959  17.576   6.407  0.00  0.00     0.032 A 
HETATM   17  C   UNK N   1      29.032  18.113   7.305  0.00  0.00     0.049 A 
HETATM   18  C   UNK N   1      27.852  18.672   6.818  0.00  0.00     0.025 A 
BRANCH  15  19
HETATM   19  C   UNK N   1      30.719  17.001   4.092  0.00  0.00     0.417 C 
HETATM   20  F   UNK N   1      31.204  15.817   4.618  0.00  0.00    -0.166 F 
HETATM   21  F   UNK N   1      30.132  16.744   2.866  0.00  0.00    -0.166 F 
HETATM   22  F   UNK N   1      31.774  17.870   3.898  0.00  0.00    -0.166 F 
ENDBRANCH  15  19
BRANCH  17  23
HETATM   23  C   UNK N   1      29.284  18.104   8.784  0.00  0.00     0.417 C 
HETATM   24  F   UNK N   1      28.086  18.257   9.456  0.00  0.00    -0.166 F 
HETATM   25  F   UNK N   1      30.140  19.128   9.152  0.00  0.00    -0.166 F 
HETATM   26  F   UNK N   1      29.853  16.896   9.145  0.00  0.00    -0.166 F 
ENDBRANCH  17  23
ENDBRANCH  11  13
ENDBRANCH  10  11
ENDBRANCH   1  10
BRANCH   9  27
HETATM   27  C   UNK N   1      25.551  15.801   4.709  0.00  0.00    -0.051 A 
HETATM   28  C   UNK N   1      26.203  15.446   3.516  0.00  0.00     0.011 A 
HETATM   29  C   UNK N   1      27.421  14.760   3.543  0.00  0.00     0.043 A 
HETATM   30  C   UNK N   1      28.012  14.436   4.764  0.00  0.00     0.116 A 
HETATM   31  C   UNK N   1      27.388  14.803   5.959  0.00  0.00     0.043 A 
HETATM   32  F   UNK N   1      29.187  13.761   4.790  0.00  0.00    -0.206 F 
HETATM   33  C   UNK N   1      26.165  15.481   5.931  0.00  0.00     0.011 A 
ENDBRANCH   9  27
BRANCH   6  34
HETATM   34  C   UNK N   1      21.714  14.714   2.865  0.00  0.00     0.011 A 
HETATM   35  C   UNK N   1      22.865  14.532   2.239  0.00  0.00     0.075 A 
HETATM   36  C   UNK N   1      22.582  14.089   0.904  0.00  0.00     0.151 A 
HETATM   37  O   UNK N   1      23.441  13.829   0.080  0.00  0.00    -0.293 OA
HETATM   38  C   UNK N   1      21.120  13.965   0.655  0.00  0.00     0.089 A 
HETATM   39  C   UNK N   1      20.516  14.406   2.006  0.00  0.00     0.065 A 
ENDBRANCH   6  34
TORSDOF 7
ENDMDL
MODEL 8
REMARK VINA RESULT:      -7.2      4.401      7.343
REMARK  7 active torsions:
REMARK  status: ('A' for Active; 'I' for Inactive)
REMARK    1  A    between atoms: C_2  and  C_3 
REMARK    2  A    between atoms: C_2  and  O_17 
REMARK    3  A    between atoms: C_5  and  C_13 
REMARK    4  A    between atoms: C_7  and  C_9 
REMARK    5  A    between atoms: C_18  and  O_17 
REMARK    6  A    between atoms: N_23  and  C_34 
REMARK    7  A    between atoms: C_26  and  C_27 
ROOT
HETATM    1  C   UNK N   1      24.552  16.436   4.888  0.00  0.00     0.131 C 
HETATM    2  C   UNK N   1      25.079  17.745   4.300  0.00  0.00     0.033 C 
HETATM    3  C   UNK N   1      25.993  17.469   3.109  0.00  0.00     0.009 C 
HETATM    4  C   UNK N   1      27.140  16.527   3.457  0.00  0.00     0.010 C 
HETATM    5  C   UNK N   1      28.227  17.248   4.224  0.00  0.00     0.128 C 
HETATM    6  N   UNK N   1      28.589  16.309   5.239  0.00  0.00    -0.383 N 
HETATM    7  C   UNK N   1      28.074  14.989   4.995  0.00  0.00     0.128 C 
HETATM    8  C   UNK N   1      26.760  15.258   4.269  0.00  0.00     0.020 C 
HETATM    9  C   UNK N   1      25.695  15.516   5.365  0.00  0.00     0.053 C 
ENDROOT
BRANCH   1  10
HETATM   10  O   UNK N   1      23.457  15.851   4.192  0.00  0.00    -0.376 OA
BRANCH  10  11
HETATM   11  C   UNK N   1      22.209  16.206   4.744  0.00  0.00     0.150 C 
HETATM   12  C   UNK N   1      22.365  17.505   5.540  0.00  0.00     0.045 C 
BRANCH  11  13
HETATM   13  C   UNK N   1      21.731  15.089   5.647  0.00  0.00    -0.028 A 
HETATM   14  C   UNK N   1      21.487  13.809   5.127  0.00  0.00     0.025 A 
HETATM   15  C   UNK N   1      21.098  12.758   5.975  0.00  0.00     0.049 A 
HETATM   16  C   UNK N   1      20.944  12.998   7.347  0.00  0.00     0.032 A 
HETATM   17  C   UNK N   1      21.164  14.274   7.873  0.00  0.00     0.049 A 
HETATM   18  C   UNK N   1      21.558  15.306   7.023  0.00  0.00     0.025 A 
BRANCH  15  19
HETATM   19  C   UNK N   1      20.862  11.373   5.444  0.00  0.00     0.417 C 
HETATM   20  F   UNK N   1      21.544  10.461   6.230  0.00  0.00    -0.166 F 
HETATM   21  F   UNK N   1      19.510  11.083   5.483  0.00  0.00    -0.166 F 
HETATM   22  F   UNK N   1      21.297  11.254   4.139  0.00  0.00    -0.166 F 
ENDBRANCH  15  19
BRANCH  17  23
HETATM   23  C   UNK N   1      20.986  14.555   9.336  0.00  0.00     0.417 C 
HETATM   24  F   UNK N   1      20.923  15.922   9.537  0.00  0.00    -0.166 F 
HETATM   25  F   UNK N   1      22.037  14.041  10.075  0.00  0.00    -0.166 F 
HETATM   26  F   UNK N   1      19.808  13.979   9.775  0.00  0.00    -0.166 F 
ENDBRANCH  17  23
ENDBRANCH  11  13
ENDBRANCH  10  11
ENDBRANCH   1  10
BRANCH   9  27
HETATM   27  C   UNK N   1      25.254  14.271   6.129  0.00  0.00    -0.051 A 
HETATM   28  C   UNK N   1      25.059  14.334   7.519  0.00  0.00     0.011 A 
HETATM   29  C   UNK N   1      24.650  13.207   8.236  0.00  0.00     0.043 A 
HETATM   30  C   UNK N   1      24.412  12.004   7.569  0.00  0.00     0.116 A 
HETATM   31  C   UNK N   1      24.578  11.932   6.185  0.00  0.00     0.043 A 
HETATM   32  F   UNK N   1      24.026  10.909   8.267  0.00  0.00    -0.206 F 
HETATM   33  C   UNK N   1      24.997  13.058   5.469  0.00  0.00     0.011 A 
ENDBRANCH   9  27
BRANCH   6  34
HETATM   34  C   UNK N   1      28.841  16.771   6.562  0.00  0.00     0.011 A 
HETATM   35  C   UNK N   1      27.874  17.072   7.412  0.00  0.00     0.075 A 
HETATM   36  C   UNK N   1      28.475  17.436   8.663  0.00  0.00     0.151 A 
HETATM   37  O   UNK N   1      27.840  17.760   9.651  0.00  0.00    -0.293 OA
HETATM   38  C   UNK N   1      29.959  17.349   8.615  0.00  0.00     0.089 A 
HETATM   39  C   UNK N   1      30.218  16.898   7.160  0.00  0.00     0.065 A 
ENDBRANCH   6  34
TORSDOF 7
ENDMDL
MODEL 9
REMARK VINA RESULT:      -7.2     13.317     15.894
REMARK  7 active torsions:
REMARK  status: ('A' for Active; 'I' for Inactive)
REMARK    1  A    between atoms: C_2  and  C_3 
REMARK    2  A    between atoms: C_2  and  O_17 
REMARK    3  A    between atoms: C_5  and  C_13 
REMARK    4  A    between atoms: C_7  and  C_9 
REMARK    5  A    between atoms: C_18  and  O_17 
REMARK    6  A    between atoms: N_23  and  C_34 
REMARK    7  A    between atoms: C_26  and  C_27 
ROOT
HETATM    1  C   UNK N   1      29.172  23.515  -8.293  0.00  0.00     0.131 C 
HETATM    2  C   UNK N   1      29.432  22.353  -9.252  0.00  0.00     0.033 C 
HETATM    3  C   UNK N   1      28.706  21.095  -8.781  0.00  0.00     0.009 C 
HETATM    4  C   UNK N   1      29.068  20.712  -7.350  0.00  0.00     0.010 C 
HETATM    5  C   UNK N   1      30.425  20.047  -7.288  0.00  0.00     0.128 C 
HETATM    6  N   UNK N   1      31.022  20.630  -6.127  0.00  0.00    -0.383 N 
HETATM    7  C   UNK N   1      30.079  21.335  -5.303  0.00  0.00     0.128 C 
HETATM    8  C   UNK N   1      29.067  21.868  -6.312  0.00  0.00     0.020 C 
HETATM    9  C   UNK N   1      29.647  23.197  -6.859  0.00  0.00     0.053 C 
ENDROOT
BRANCH   1  10
HETATM   10  O   UNK N   1      27.925  24.179  -8.461  0.00  0.00    -0.376 OA
BRANCH  10  11
HETATM   11  C   UNK N   1      28.064  25.461  -9.033  0.00  0.00     0.150 C 
HETATM   12  C   UNK N   1      29.524  25.669  -9.446  0.00  0.00     0.045 C 
BRANCH  11  13
HETATM   13  C   UNK N   1      27.650  26.504  -8.017  0.00  0.00    -0.028 A 
HETATM   14  C   UNK N   1      26.511  26.307  -7.221  0.00  0.00     0.025 A 
HETATM   15  C   UNK N   1      26.159  27.250  -6.238  0.00  0.00     0.049 A 
HETATM   16  C   UNK N   1      26.947  28.394  -6.064  0.00  0.00     0.032 A 
HETATM   17  C   UNK N   1      28.072  28.610  -6.866  0.00  0.00     0.049 A 
HETATM   18  C   UNK N   1      28.416  27.665  -7.830  0.00  0.00     0.025 A 
BRANCH  15  19
HETATM   19  C   UNK N   1      24.962  27.044  -5.355  0.00  0.00     0.417 C 
HETATM   20  F   UNK N   1      23.853  27.620  -5.948  0.00  0.00    -0.166 F 
HETATM   21  F   UNK N   1      24.734  25.690  -5.186  0.00  0.00    -0.166 F 
HETATM   22  F   UNK N   1      25.151  27.614  -4.110  0.00  0.00    -0.166 F 
ENDBRANCH  15  19
BRANCH  17  23
HETATM   23  C   UNK N   1      28.918  29.839  -6.707  0.00  0.00     0.417 C 
HETATM   24  F   UNK N   1      28.230  30.778  -5.962  0.00  0.00    -0.166 F 
HETATM   25  F   UNK N   1      29.238  30.388  -7.936  0.00  0.00    -0.166 F 
HETATM   26  F   UNK N   1      30.088  29.508  -6.048  0.00  0.00    -0.166 F 
ENDBRANCH  17  23
ENDBRANCH  11  13
ENDBRANCH  10  11
ENDBRANCH   1  10
BRANCH   9  27
HETATM   27  C   UNK N   1      29.592  24.365  -5.880  0.00  0.00    -0.051 A 
HETATM   28  C   UNK N   1      30.593  25.351  -5.910  0.00  0.00     0.011 A 
HETATM   29  C   UNK N   1      30.558  26.433  -5.026  0.00  0.00     0.043 A 
HETATM   30  C   UNK N   1      29.511  26.553  -4.111  0.00  0.00     0.116 A 
HETATM   31  C   UNK N   1      28.496  25.593  -4.085  0.00  0.00     0.043 A 
HETATM   32  F   UNK N   1      29.483  27.596  -3.246  0.00  0.00    -0.206 F 
HETATM   33  C   UNK N   1      28.537  24.506  -4.964  0.00  0.00     0.011 A 
ENDBRANCH   9  27
BRANCH   6  34
HETATM   34  C   UNK N   1      32.398  20.996  -6.157  0.00  0.00     0.011 A 
HETATM   35  C   UNK N   1      32.879  22.026  -5.481  0.00  0.00     0.075 A 
HETATM   36  C   UNK N   1      34.299  22.067  -5.681  0.00  0.00     0.151 A 
HETATM   37  O   UNK N   1      35.030  22.904  -5.179  0.00  0.00    -0.293 OA
HETATM   38  C   UNK N   1      34.772  20.959  -6.553  0.00  0.00     0.089 A 
HETATM   39  C   UNK N   1      33.459  20.220  -6.892  0.00  0.00     0.065 A 
ENDBRANCH   6  34
TORSDOF 7
ENDMDL
