MODEL 1
REMARK VINA RESULT:      -8.7      0.000      0.000
REMARK  5 active torsions:
REMARK  status: ('A' for Active; 'I' for Inactive)
REMARK    1  A    between atoms: C_8  and  N_10 
REMARK    2  A    between atoms: N_10  and  C_11 
REMARK    3  A    between atoms: C_11  and  C_12 
REMARK    4  A    between atoms: C_15  and  C_19 
REMARK    5  A    between atoms: C_23  and  C_25 
ROOT
HETATM    1  C   UNK N   1      27.520  18.608   4.396  0.00  0.00     0.036 A 
HETATM    2  C   UNK N   1      26.711  17.574   3.891  0.00  0.00     0.128 A 
HETATM    3  C   UNK N   1      25.373  17.831   3.552  0.00  0.00     0.055 A 
HETATM    4  C   UNK N   1      24.861  19.128   3.703  0.00  0.00    -0.020 A 
HETATM    5  C   UNK N   1      25.698  20.146   4.175  0.00  0.00     0.055 A 
HETATM    6  C   UNK N   1      27.004  19.902   4.520  0.00  0.00     0.128 A 
HETATM    7  F   UNK N   1      27.754  20.927   4.999  0.00  0.00    -0.205 F 
HETATM    8  F   UNK N   1      27.203  16.315   3.774  0.00  0.00    -0.205 F 
ENDROOT
BRANCH   4   9
HETATM    9  C   UNK N   1      23.429  19.446   3.568  0.00  0.00    -0.025 A 
HETATM   10  C   UNK N   1      22.926  20.511   2.805  0.00  0.00     0.012 A 
HETATM   11  C   UNK N   1      21.537  20.614   2.597  0.00  0.00     0.002 A 
HETATM   12  C   UNK N   1      20.666  19.631   3.109  0.00  0.00     0.015 A 
HETATM   13  C   UNK N   1      21.186  18.576   3.872  0.00  0.00     0.010 A 
HETATM   14  C   UNK N   1      22.542  18.515   4.093  0.00  0.00     0.027 A 
BRANCH  13  15
HETATM   15  C   UNK N   1      20.393  17.447   4.366  0.00  0.00     0.131 A 
HETATM   16  N   UNK N   1      20.535  16.860   5.565  0.00  0.00    -0.336 N 
HETATM   17  C   UNK N   1      19.542  15.944   5.588  0.00  0.00     0.199 A 
ATOM     18  HN  UNK N   1      21.227  17.058   6.287  1.00  0.00     0.168 HD
HETATM   19  N   UNK N   1      18.831  15.983   4.442  0.00  0.00    -0.295 N 
HETATM   20  N   UNK N   1      19.357  16.922   3.684  0.00  0.00    -0.284 N 
HETATM   21  H   UNK N   1      18.060  15.413   4.215  0.00  0.00     0.187 HD
ATOM     22  HN  UNK N   1      19.041  17.199   2.755  1.00  0.00     0.188 HD
ENDBRANCH  13  15
ENDBRANCH   4   9
BRANCH   1  23
HETATM   23  C   UNK N   1      28.920  18.329   4.821  0.00  0.00     0.159 C 
BRANCH  23  24
HETATM   24  N   UNK N   1      29.035  18.331   6.276  0.00  0.00    -0.412 N 
HETATM   25  H   UNK N   1      28.973  19.171   6.851  0.00  0.00     0.153 HD
BRANCH  24  26
HETATM   26  C   UNK N   1      29.247  16.983   6.814  0.00  0.00     0.085 C 
HETATM   27  C   UNK N   1      30.260  16.312   5.868  0.00  0.00     0.064 C 
HETATM   28  C   UNK N   1      31.517  16.851   6.423  0.00  0.00    -0.050 A 
HETATM   29  C   UNK N   1      31.354  17.288   7.706  0.00  0.00    -0.050 A 
HETATM   30  C   UNK N   1      32.725  17.013   5.751  0.00  0.00     0.007 A 
HETATM   31  C   UNK N   1      32.383  17.915   8.400  0.00  0.00     0.007 A 
HETATM   32  C   UNK N   1      29.976  17.094   8.172  0.00  0.00     0.064 C 
HETATM   33  C   UNK N   1      33.613  18.087   7.752  0.00  0.00     0.001 A 
HETATM   34  C   UNK N   1      33.785  17.637   6.428  0.00  0.00     0.001 A 
ENDBRANCH  24  26
ENDBRANCH  23  24
ENDBRANCH   1  23
TORSDOF 5
ENDMDL
MODEL 2
REMARK VINA RESULT:      -8.7      2.636      4.431
REMARK  5 active torsions:
REMARK  status: ('A' for Active; 'I' for Inactive)
REMARK    1  A    between atoms: C_8  and  N_10 
REMARK    2  A    between atoms: N_10  and  C_11 
REMARK    3  A    between atoms: C_11  and  C_12 
REMARK    4  A    between atoms: C_15  and  C_19 
REMARK    5  A    between atoms: C_23  and  C_25 
ROOT
HETATM    1  C   UNK N   1      29.826  17.510   7.867  0.00  0.00     0.036 A 
HETATM    2  C   UNK N   1      28.980  18.511   8.378  0.00  0.00     0.128 A 
HETATM    3  C   UNK N   1      27.993  19.081   7.559  0.00  0.00     0.055 A 
HETATM    4  C   UNK N   1      27.846  18.630   6.240  0.00  0.00    -0.020 A 
HETATM    5  C   UNK N   1      28.679  17.608   5.768  0.00  0.00     0.055 A 
HETATM    6  C   UNK N   1      29.655  17.052   6.558  0.00  0.00     0.128 A 
HETATM    7  F   UNK N   1      30.448  16.086   6.029  0.00  0.00    -0.205 F 
HETATM    8  F   UNK N   1      29.143  18.965   9.647  0.00  0.00    -0.205 F 
ENDROOT
BRANCH   4   9
HETATM    9  C   UNK N   1      26.984  19.301   5.252  0.00  0.00    -0.025 A 
HETATM   10  C   UNK N   1      27.462  20.066   4.178  0.00  0.00     0.012 A 
HETATM   11  C   UNK N   1      26.560  20.510   3.192  0.00  0.00     0.002 A 
HETATM   12  C   UNK N   1      25.200  20.150   3.259  0.00  0.00     0.015 A 
HETATM   13  C   UNK N   1      24.739  19.389   4.342  0.00  0.00     0.010 A 
HETATM   14  C   UNK N   1      25.630  18.996   5.312  0.00  0.00     0.027 A 
BRANCH  13  15
HETATM   15  C   UNK N   1      23.372  18.871   4.464  0.00  0.00     0.131 A 
HETATM   16  N   UNK N   1      22.903  18.141   5.488  0.00  0.00    -0.336 N 
HETATM   17  C   UNK N   1      21.595  17.980   5.189  0.00  0.00     0.199 A 
ATOM     18  HN  UNK N   1      23.412  17.792   6.299  1.00  0.00     0.168 HD
HETATM   19  N   UNK N   1      21.294  18.594   4.026  0.00  0.00    -0.295 N 
HETATM   20  N   UNK N   1      22.398  19.152   3.577  0.00  0.00    -0.284 N 
HETATM   21  H   UNK N   1      20.410  18.618   3.592  0.00  0.00     0.187 HD
ATOM     22  HN  UNK N   1      22.498  19.696   2.720  1.00  0.00     0.188 HD
ENDBRANCH  13  15
ENDBRANCH   4   9
BRANCH   1  23
HETATM   23  C   UNK N   1      30.920  16.947   8.708  0.00  0.00     0.159 C 
BRANCH  23  24
HETATM   24  N   UNK N   1      32.091  17.817   8.692  0.00  0.00    -0.412 N 
HETATM   25  H   UNK N   1      32.169  18.678   9.233  0.00  0.00     0.153 HD
BRANCH  24  26
HETATM   26  C   UNK N   1      33.145  17.306   7.809  0.00  0.00     0.085 C 
HETATM   27  C   UNK N   1      34.472  17.795   8.418  0.00  0.00     0.064 C 
HETATM   28  C   UNK N   1      34.676  16.755   9.445  0.00  0.00    -0.050 A 
HETATM   29  C   UNK N   1      33.959  15.627   9.166  0.00  0.00    -0.050 A 
HETATM   30  C   UNK N   1      35.410  16.874  10.620  0.00  0.00     0.007 A 
HETATM   31  C   UNK N   1      33.929  14.546  10.041  0.00  0.00     0.007 A 
HETATM   32  C   UNK N   1      33.193  15.766   7.923  0.00  0.00     0.064 C 
HETATM   33  C   UNK N   1      34.665  14.634  11.231  0.00  0.00     0.001 A 
HETATM   34  C   UNK N   1      35.406  15.797  11.521  0.00  0.00     0.001 A 
ENDBRANCH  24  26
ENDBRANCH  23  24
ENDBRANCH   1  23
TORSDOF 5
ENDMDL
MODEL 3
REMARK VINA RESULT:      -8.7      8.071     13.967
REMARK  5 active torsions:
REMARK  status: ('A' for Active; 'I' for Inactive)
REMARK    1  A    between atoms: C_8  and  N_10 
REMARK    2  A    between atoms: N_10  and  C_11 
REMARK    3  A    between atoms: C_11  and  C_12 
REMARK    4  A    between atoms: C_15  and  C_19 
REMARK    5  A    between atoms: C_23  and  C_25 
ROOT
HETATM    1  C   UNK N   1      35.086  14.454  10.210  0.00  0.00     0.036 A 
HETATM    2  C   UNK N   1      35.243  14.999  11.498  0.00  0.00     0.128 A 
HETATM    3  C   UNK N   1      35.245  14.157  12.621  0.00  0.00     0.055 A 
HETATM    4  C   UNK N   1      35.110  12.772  12.445  0.00  0.00    -0.020 A 
HETATM    5  C   UNK N   1      34.990  12.254  11.150  0.00  0.00     0.055 A 
HETATM    6  C   UNK N   1      34.976  13.070  10.046  0.00  0.00     0.128 A 
HETATM    7  F   UNK N   1      34.826  12.506   8.821  0.00  0.00    -0.205 F 
HETATM    8  F   UNK N   1      35.346  16.342  11.666  0.00  0.00    -0.205 F 
ENDROOT
BRANCH   4   9
HETATM    9  C   UNK N   1      34.898  11.837  13.563  0.00  0.00    -0.025 A 
HETATM   10  C   UNK N   1      34.886  10.441  13.432  0.00  0.00     0.012 A 
HETATM   11  C   UNK N   1      34.858   9.640  14.590  0.00  0.00     0.002 A 
HETATM   12  C   UNK N   1      34.891  10.235  15.867  0.00  0.00     0.015 A 
HETATM   13  C   UNK N   1      34.900  11.632  15.979  0.00  0.00     0.010 A 
HETATM   14  C   UNK N   1      34.890  12.395  14.835  0.00  0.00     0.027 A 
BRANCH  13  15
HETATM   15  C   UNK N   1      35.036  12.357  17.246  0.00  0.00     0.131 A 
HETATM   16  N   UNK N   1      35.132  11.794  18.460  0.00  0.00    -0.336 N 
HETATM   17  C   UNK N   1      35.322  12.848  19.284  0.00  0.00     0.199 A 
ATOM     18  HN  UNK N   1      35.076  10.805  18.703  1.00  0.00     0.168 HD
HETATM   19  N   UNK N   1      35.339  14.001  18.585  0.00  0.00    -0.295 N 
HETATM   20  N   UNK N   1      35.166  13.696  17.316  0.00  0.00    -0.284 N 
HETATM   21  H   UNK N   1      35.458  14.906  18.956  0.00  0.00     0.187 HD
ATOM     22  HN  UNK N   1      35.136  14.350  16.533  1.00  0.00     0.188 HD
ENDBRANCH  13  15
ENDBRANCH   4   9
BRANCH   1  23
HETATM   23  C   UNK N   1      35.016  15.346   9.019  0.00  0.00     0.159 C 
BRANCH  23  24
HETATM   24  N   UNK N   1      33.635  15.709   8.719  0.00  0.00    -0.412 N 
HETATM   25  H   UNK N   1      32.906  15.033   8.487  0.00  0.00     0.153 HD
BRANCH  24  26
HETATM   26  C   UNK N   1      33.416  17.157   8.791  0.00  0.00     0.085 C 
HETATM   27  C   UNK N   1      34.205  17.757   7.612  0.00  0.00     0.064 C 
HETATM   28  C   UNK N   1      33.226  17.553   6.526  0.00  0.00    -0.050 A 
HETATM   29  C   UNK N   1      31.962  17.383   7.013  0.00  0.00    -0.050 A 
HETATM   30  C   UNK N   1      33.499  17.438   5.166  0.00  0.00     0.007 A 
HETATM   31  C   UNK N   1      30.890  17.089   6.178  0.00  0.00     0.007 A 
HETATM   32  C   UNK N   1      31.933  17.457   8.479  0.00  0.00     0.064 C 
HETATM   33  C   UNK N   1      31.133  16.973   4.802  0.00  0.00     0.001 A 
HETATM   34  C   UNK N   1      32.436  17.148   4.295  0.00  0.00     0.001 A 
ENDBRANCH  24  26
ENDBRANCH  23  24
ENDBRANCH   1  23
TORSDOF 5
ENDMDL
MODEL 4
REMARK VINA RESULT:      -8.5     11.914     17.097
REMARK  5 active torsions:
REMARK  status: ('A' for Active; 'I' for Inactive)
REMARK    1  A    between atoms: C_8  and  N_10 
REMARK    2  A    between atoms: N_10  and  C_11 
REMARK    3  A    between atoms: C_11  and  C_12 
REMARK    4  A    between atoms: C_15  and  C_19 
REMARK    5  A    between atoms: C_23  and  C_25 
ROOT
HETATM    1  C   UNK N   1      35.608  11.671  17.180  0.00  0.00     0.036 A 
HETATM    2  C   UNK N   1      35.039  12.777  16.521  0.00  0.00     0.128 A 
HETATM    3  C   UNK N   1      35.364  13.040  15.181  0.00  0.00     0.055 A 
HETATM    4  C   UNK N   1      36.242  12.181  14.504  0.00  0.00    -0.020 A 
HETATM    5  C   UNK N   1      36.767  11.069  15.173  0.00  0.00     0.055 A 
HETATM    6  C   UNK N   1      36.464  10.810  16.486  0.00  0.00     0.128 A 
HETATM    7  F   UNK N   1      37.030   9.732  17.085  0.00  0.00    -0.205 F 
HETATM    8  F   UNK N   1      34.212  13.620  17.189  0.00  0.00    -0.205 F 
ENDROOT
BRANCH   4   9
HETATM    9  C   UNK N   1      36.797  12.487  13.173  0.00  0.00    -0.025 A 
HETATM   10  C   UNK N   1      37.592  11.603  12.428  0.00  0.00     0.012 A 
HETATM   11  C   UNK N   1      37.916  11.923  11.097  0.00  0.00     0.002 A 
HETATM   12  C   UNK N   1      37.406  13.095  10.503  0.00  0.00     0.015 A 
HETATM   13  C   UNK N   1      36.616  13.968  11.263  0.00  0.00     0.010 A 
HETATM   14  C   UNK N   1      36.342  13.654  12.573  0.00  0.00     0.027 A 
BRANCH  13  15
HETATM   15  C   UNK N   1      35.951  15.158  10.725  0.00  0.00     0.131 A 
HETATM   16  N   UNK N   1      35.560  15.325   9.451  0.00  0.00    -0.336 N 
HETATM   17  C   UNK N   1      34.934  16.522   9.466  0.00  0.00     0.199 A 
ATOM     18  HN  UNK N   1      35.701  14.697   8.661  1.00  0.00     0.168 HD
HETATM   19  N   UNK N   1      34.950  17.053  10.706  0.00  0.00    -0.295 N 
HETATM   20  N   UNK N   1      35.579  16.202  11.490  0.00  0.00    -0.284 N 
HETATM   21  H   UNK N   1      34.564  17.918  10.975  0.00  0.00     0.187 HD
ATOM     22  HN  UNK N   1      35.751  16.312  12.490  1.00  0.00     0.188 HD
ENDBRANCH  13  15
ENDBRANCH   4   9
BRANCH   1  23
HETATM   23  C   UNK N   1      35.321  11.423  18.620  0.00  0.00     0.159 C 
BRANCH  23  24
HETATM   24  N   UNK N   1      34.626  10.153  18.804  0.00  0.00    -0.412 N 
HETATM   25  H   UNK N   1      34.019   9.730  18.102  0.00  0.00     0.153 HD
BRANCH  24  26
HETATM   26  C   UNK N   1      34.905   9.556  20.114  0.00  0.00     0.085 C 
HETATM   27  C   UNK N   1      33.684   9.887  20.991  0.00  0.00     0.064 C 
HETATM   28  C   UNK N   1      32.772   8.806  20.570  0.00  0.00    -0.050 A 
HETATM   29  C   UNK N   1      33.451   7.767  20.002  0.00  0.00    -0.050 A 
HETATM   30  C   UNK N   1      31.381   8.818  20.624  0.00  0.00     0.007 A 
HETATM   31  C   UNK N   1      32.789   6.675  19.452  0.00  0.00     0.007 A 
HETATM   32  C   UNK N   1      34.897   8.017  19.976  0.00  0.00     0.064 C 
HETATM   33  C   UNK N   1      31.389   6.656  19.497  0.00  0.00     0.001 A 
HETATM   34  C   UNK N   1      30.684   7.726  20.083  0.00  0.00     0.001 A 
ENDBRANCH  24  26
ENDBRANCH  23  24
ENDBRANCH   1  23
TORSDOF 5
ENDMDL
MODEL 5
REMARK VINA RESULT:      -8.4      2.219      4.259
REMARK  5 active torsions:
REMARK  status: ('A' for Active; 'I' for Inactive)
REMARK    1  A    between atoms: C_8  and  N_10 
REMARK    2  A    between atoms: N_10  and  C_11 
REMARK    3  A    between atoms: C_11  and  C_12 
REMARK    4  A    between atoms: C_15  and  C_19 
REMARK    5  A    between atoms: C_23  and  C_25 
ROOT
HETATM    1  C   UNK N   1      29.931  17.293   7.788  0.00  0.00     0.036 A 
HETATM    2  C   UNK N   1      29.178  18.372   8.286  0.00  0.00     0.128 A 
HETATM    3  C   UNK N   1      28.186  18.964   7.489  0.00  0.00     0.055 A 
HETATM    4  C   UNK N   1      27.941  18.457   6.205  0.00  0.00    -0.020 A 
HETATM    5  C   UNK N   1      28.680  17.361   5.747  0.00  0.00     0.055 A 
HETATM    6  C   UNK N   1      29.661  16.782   6.515  0.00  0.00     0.128 A 
HETATM    7  F   UNK N   1      30.362  15.741   5.999  0.00  0.00    -0.205 F 
HETATM    8  F   UNK N   1      29.438  18.877   9.519  0.00  0.00    -0.205 F 
ENDROOT
BRANCH   4   9
HETATM    9  C   UNK N   1      27.070  19.134   5.228  0.00  0.00    -0.025 A 
HETATM   10  C   UNK N   1      27.512  20.109   4.320  0.00  0.00     0.012 A 
HETATM   11  C   UNK N   1      26.638  20.557   3.311  0.00  0.00     0.002 A 
HETATM   12  C   UNK N   1      25.351  19.997   3.184  0.00  0.00     0.015 A 
HETATM   13  C   UNK N   1      24.926  19.027   4.102  0.00  0.00     0.010 A 
HETATM   14  C   UNK N   1      25.782  18.630   5.102  0.00  0.00     0.027 A 
BRANCH  13  15
HETATM   15  C   UNK N   1      23.654  18.305   4.008  0.00  0.00     0.131 A 
HETATM   16  N   UNK N   1      22.446  18.869   3.848  0.00  0.00    -0.336 N 
HETATM   17  C   UNK N   1      21.615  17.810   3.735  0.00  0.00     0.199 A 
ATOM     18  HN  UNK N   1      22.212  19.861   3.819  1.00  0.00     0.168 HD
HETATM   19  N   UNK N   1      22.302  16.653   3.824  0.00  0.00    -0.295 N 
HETATM   20  N   UNK N   1      23.571  16.960   3.989  0.00  0.00    -0.284 N 
HETATM   21  H   UNK N   1      21.923  15.745   3.775  0.00  0.00     0.187 HD
ATOM     22  HN  UNK N   1      24.347  16.304   4.084  1.00  0.00     0.188 HD
ENDBRANCH  13  15
ENDBRANCH   4   9
BRANCH   1  23
HETATM   23  C   UNK N   1      31.030  16.703   8.601  0.00  0.00     0.159 C 
BRANCH  23  24
HETATM   24  N   UNK N   1      31.905  15.876   7.776  0.00  0.00    -0.412 N 
HETATM   25  H   UNK N   1      31.603  15.026   7.299  0.00  0.00     0.153 HD
BRANCH  24  26
HETATM   26  C   UNK N   1      33.269  16.411   7.710  0.00  0.00     0.085 C 
HETATM   27  C   UNK N   1      34.077  15.392   6.886  0.00  0.00     0.064 C 
HETATM   28  C   UNK N   1      33.722  15.831   5.523  0.00  0.00    -0.050 A 
HETATM   29  C   UNK N   1      33.265  17.118   5.513  0.00  0.00    -0.050 A 
HETATM   30  C   UNK N   1      33.731  15.058   4.366  0.00  0.00     0.007 A 
HETATM   31  C   UNK N   1      32.789  17.715   4.351  0.00  0.00     0.007 A 
HETATM   32  C   UNK N   1      33.262  17.701   6.860  0.00  0.00     0.064 C 
HETATM   33  C   UNK N   1      32.793  16.963   3.168  0.00  0.00     0.001 A 
HETATM   34  C   UNK N   1      33.264  15.635   3.175  0.00  0.00     0.001 A 
ENDBRANCH  24  26
ENDBRANCH  23  24
ENDBRANCH   1  23
TORSDOF 5
ENDMDL
MODEL 6
REMARK VINA RESULT:      -8.4     11.395     14.855
REMARK  5 active torsions:
REMARK  status: ('A' for Active; 'I' for Inactive)
REMARK    1  A    between atoms: C_8  and  N_10 
REMARK    2  A    between atoms: N_10  and  C_11 
REMARK    3  A    between atoms: C_11  and  C_12 
REMARK    4  A    between atoms: C_15  and  C_19 
REMARK    5  A    between atoms: C_23  and  C_25 
ROOT
HETATM    1  C   UNK N   1      28.080  23.956  -3.704  0.00  0.00     0.036 A 
HETATM    2  C   UNK N   1      28.600  23.372  -2.535  0.00  0.00     0.128 A 
HETATM    3  C   UNK N   1      29.852  22.738  -2.563  0.00  0.00     0.055 A 
HETATM    4  C   UNK N   1      30.584  22.710  -3.759  0.00  0.00    -0.020 A 
HETATM    5  C   UNK N   1      30.058  23.329  -4.900  0.00  0.00     0.055 A 
HETATM    6  C   UNK N   1      28.829  23.942  -4.884  0.00  0.00     0.128 A 
HETATM    7  F   UNK N   1      28.364  24.496  -6.032  0.00  0.00    -0.205 F 
HETATM    8  F   UNK N   1      27.876  23.377  -1.386  0.00  0.00    -0.205 F 
ENDROOT
BRANCH   4   9
HETATM    9  C   UNK N   1      31.801  21.900  -3.937  0.00  0.00    -0.025 A 
HETATM   10  C   UNK N   1      32.688  21.571  -2.900  0.00  0.00     0.012 A 
HETATM   11  C   UNK N   1      33.718  20.643  -3.143  0.00  0.00     0.002 A 
HETATM   12  C   UNK N   1      33.828  20.015  -4.400  0.00  0.00     0.015 A 
HETATM   13  C   UNK N   1      32.935  20.359  -5.425  0.00  0.00     0.010 A 
HETATM   14  C   UNK N   1      31.959  21.294  -5.177  0.00  0.00     0.027 A 
BRANCH  13  15
HETATM   15  C   UNK N   1      32.890  19.701  -6.734  0.00  0.00     0.131 A 
HETATM   16  N   UNK N   1      31.873  19.769  -7.607  0.00  0.00    -0.336 N 
HETATM   17  C   UNK N   1      32.327  19.082  -8.677  0.00  0.00     0.199 A 
ATOM     18  HN  UNK N   1      30.971  20.231  -7.490  1.00  0.00     0.168 HD
HETATM   19  N   UNK N   1      33.574  18.618  -8.452  0.00  0.00    -0.295 N 
HETATM   20  N   UNK N   1      33.926  19.007  -7.245  0.00  0.00    -0.284 N 
HETATM   21  H   UNK N   1      34.119  18.086  -9.076  0.00  0.00     0.187 HD
ATOM     22  HN  UNK N   1      34.816  18.820  -6.782  1.00  0.00     0.188 HD
ENDBRANCH  13  15
ENDBRANCH   4   9
BRANCH   1  23
HETATM   23  C   UNK N   1      26.724  24.572  -3.699  0.00  0.00     0.159 C 
BRANCH  23  24
HETATM   24  N   UNK N   1      26.810  26.026  -3.625  0.00  0.00    -0.412 N 
HETATM   25  H   UNK N   1      27.601  26.530  -3.222  0.00  0.00     0.153 HD
BRANCH  24  26
HETATM   26  C   UNK N   1      25.629  26.679  -4.198  0.00  0.00     0.085 C 
HETATM   27  C   UNK N   1      25.886  28.192  -4.070  0.00  0.00     0.064 C 
HETATM   28  C   UNK N   1      26.721  28.407  -5.268  0.00  0.00    -0.050 A 
HETATM   29  C   UNK N   1      26.556  27.406  -6.182  0.00  0.00    -0.050 A 
HETATM   30  C   UNK N   1      27.653  29.421  -5.466  0.00  0.00     0.007 A 
HETATM   31  C   UNK N   1      27.307  27.353  -7.351  0.00  0.00     0.007 A 
HETATM   32  C   UNK N   1      25.590  26.403  -5.718  0.00  0.00     0.064 C 
HETATM   33  C   UNK N   1      28.249  28.365  -7.581  0.00  0.00     0.001 A 
HETATM   34  C   UNK N   1      28.422  29.399  -6.641  0.00  0.00     0.001 A 
ENDBRANCH  24  26
ENDBRANCH  23  24
ENDBRANCH   1  23
TORSDOF 5
ENDMDL
MODEL 7
REMARK VINA RESULT:      -8.3     11.632     15.039
REMARK  5 active torsions:
REMARK  status: ('A' for Active; 'I' for Inactive)
REMARK    1  A    between atoms: C_8  and  N_10 
REMARK    2  A    between atoms: N_10  and  C_11 
REMARK    3  A    between atoms: C_11  and  C_12 
REMARK    4  A    between atoms: C_15  and  C_19 
REMARK    5  A    between atoms: C_23  and  C_25 
ROOT
HETATM    1  C   UNK N   1      27.042  24.107  -4.786  0.00  0.00     0.036 A 
HETATM    2  C   UNK N   1      28.287  23.852  -4.181  0.00  0.00     0.128 A 
HETATM    3  C   UNK N   1      29.213  23.004  -4.809  0.00  0.00     0.055 A 
HETATM    4  C   UNK N   1      28.892  22.432  -6.049  0.00  0.00    -0.020 A 
HETATM    5  C   UNK N   1      27.661  22.729  -6.644  0.00  0.00     0.055 A 
HETATM    6  C   UNK N   1      26.745  23.549  -6.033  0.00  0.00     0.128 A 
HETATM    7  F   UNK N   1      25.557  23.773  -6.650  0.00  0.00    -0.205 F 
HETATM    8  F   UNK N   1      28.581  24.386  -2.968  0.00  0.00    -0.205 F 
ENDROOT
BRANCH   4   9
HETATM    9  C   UNK N   1      29.706  21.379  -6.681  0.00  0.00    -0.025 A 
HETATM   10  C   UNK N   1      29.623  21.024  -8.036  0.00  0.00     0.012 A 
HETATM   11  C   UNK N   1      30.571  20.134  -8.575  0.00  0.00     0.002 A 
HETATM   12  C   UNK N   1      31.621  19.643  -7.774  0.00  0.00     0.015 A 
HETATM   13  C   UNK N   1      31.686  20.005  -6.421  0.00  0.00     0.010 A 
HETATM   14  C   UNK N   1      30.729  20.846  -5.907  0.00  0.00     0.027 A 
BRANCH  13  15
HETATM   15  C   UNK N   1      32.785  19.639  -5.522  0.00  0.00     0.131 A 
HETATM   16  N   UNK N   1      34.055  19.415  -5.893  0.00  0.00    -0.336 N 
HETATM   17  C   UNK N   1      34.693  19.197  -4.722  0.00  0.00     0.199 A 
ATOM     18  HN  UNK N   1      34.446  19.411  -6.835  1.00  0.00     0.168 HD
HETATM   19  N   UNK N   1      33.834  19.288  -3.687  0.00  0.00    -0.295 N 
HETATM   20  N   UNK N   1      32.647  19.567  -4.184  0.00  0.00    -0.284 N 
HETATM   21  H   UNK N   1      34.053  19.167  -2.735  0.00  0.00     0.187 HD
ATOM     22  HN  UNK N   1      31.785  19.705  -3.656  1.00  0.00     0.188 HD
ENDBRANCH  13  15
ENDBRANCH   4   9
BRANCH   1  23
HETATM   23  C   UNK N   1      26.029  24.952  -4.095  0.00  0.00     0.159 C 
BRANCH  23  24
HETATM   24  N   UNK N   1      26.512  26.319  -3.931  0.00  0.00    -0.412 N 
HETATM   25  H   UNK N   1      27.405  26.560  -3.501  0.00  0.00     0.153 HD
BRANCH  24  26
HETATM   26  C   UNK N   1      25.564  27.306  -4.460  0.00  0.00     0.085 C 
HETATM   27  C   UNK N   1      26.395  28.571  -4.743  0.00  0.00     0.064 C 
HETATM   28  C   UNK N   1      26.941  28.222  -6.069  0.00  0.00    -0.050 A 
HETATM   29  C   UNK N   1      26.199  27.250  -6.678  0.00  0.00    -0.050 A 
HETATM   30  C   UNK N   1      28.111  28.707  -6.646  0.00  0.00     0.007 A 
HETATM   31  C   UNK N   1      26.575  26.701  -7.899  0.00  0.00     0.007 A 
HETATM   32  C   UNK N   1      25.066  26.832  -5.844  0.00  0.00     0.064 C 
HETATM   33  C   UNK N   1      27.746  27.175  -8.507  0.00  0.00     0.001 A 
HETATM   34  C   UNK N   1      28.513  28.178  -7.883  0.00  0.00     0.001 A 
ENDBRANCH  24  26
ENDBRANCH  23  24
ENDBRANCH   1  23
TORSDOF 5
ENDMDL
MODEL 8
REMARK VINA RESULT:      -8.3      2.739      4.471
REMARK  5 active torsions:
REMARK  status: ('A' for Active; 'I' for Inactive)
REMARK    1  A    between atoms: C_8  and  N_10 
REMARK    2  A    between atoms: N_10  and  C_11 
REMARK    3  A    between atoms: C_11  and  C_12 
REMARK    4  A    between atoms: C_15  and  C_19 
REMARK    5  A    between atoms: C_23  and  C_25 
ROOT
HETATM    1  C   UNK N   1      26.011  15.670   5.485  0.00  0.00     0.036 A 
HETATM    2  C   UNK N   1      24.948  15.321   6.338  0.00  0.00     0.128 A 
HETATM    3  C   UNK N   1      23.622  15.440   5.894  0.00  0.00     0.055 A 
HETATM    4  C   UNK N   1      23.370  15.889   4.589  0.00  0.00    -0.020 A 
HETATM    5  C   UNK N   1      24.447  16.196   3.749  0.00  0.00     0.055 A 
HETATM    6  C   UNK N   1      25.747  16.094   4.179  0.00  0.00     0.128 A 
HETATM    7  F   UNK N   1      26.745  16.436   3.325  0.00  0.00    -0.205 F 
HETATM    8  F   UNK N   1      25.195  14.913   7.609  0.00  0.00    -0.205 F 
ENDROOT
BRANCH   4   9
HETATM    9  C   UNK N   1      22.023  16.237   4.106  0.00  0.00    -0.025 A 
HETATM   10  C   UNK N   1      20.853  15.554   4.470  0.00  0.00     0.012 A 
HETATM   11  C   UNK N   1      19.602  16.081   4.097  0.00  0.00     0.002 A 
HETATM   12  C   UNK N   1      19.524  17.307   3.408  0.00  0.00     0.015 A 
HETATM   13  C   UNK N   1      20.703  17.974   3.048  0.00  0.00     0.010 A 
HETATM   14  C   UNK N   1      21.915  17.424   3.391  0.00  0.00     0.027 A 
BRANCH  13  15
HETATM   15  C   UNK N   1      20.743  19.300   2.423  0.00  0.00     0.131 A 
HETATM   16  N   UNK N   1      20.513  19.557   1.126  0.00  0.00    -0.336 N 
HETATM   17  C   UNK N   1      20.580  20.904   1.054  0.00  0.00     0.199 A 
ATOM     18  HN  UNK N   1      20.330  18.893   0.374  1.00  0.00     0.168 HD
HETATM   19  N   UNK N   1      20.841  21.434   2.266  0.00  0.00    -0.295 N 
HETATM   20  N   UNK N   1      20.937  20.436   3.119  0.00  0.00    -0.284 N 
HETATM   21  H   UNK N   1      20.942  22.391   2.475  0.00  0.00     0.187 HD
ATOM     22  HN  UNK N   1      21.124  20.509   4.120  1.00  0.00     0.188 HD
ENDBRANCH  13  15
ENDBRANCH   4   9
BRANCH   1  23
HETATM   23  C   UNK N   1      27.417  15.610   5.971  0.00  0.00     0.159 C 
BRANCH  23  24
HETATM   24  N   UNK N   1      27.635  16.558   7.059  0.00  0.00    -0.412 N 
HETATM   25  H   UNK N   1      26.982  16.701   7.829  0.00  0.00     0.153 HD
BRANCH  24  26
HETATM   26  C   UNK N   1      28.904  17.280   6.916  0.00  0.00     0.085 C 
HETATM   27  C   UNK N   1      29.004  17.654   5.425  0.00  0.00     0.064 C 
HETATM   28  C   UNK N   1      28.180  18.878   5.417  0.00  0.00    -0.050 A 
HETATM   29  C   UNK N   1      28.067  19.416   6.667  0.00  0.00    -0.050 A 
HETATM   30  C   UNK N   1      27.495  19.417   4.332  0.00  0.00     0.007 A 
HETATM   31  C   UNK N   1      27.265  20.525   6.915  0.00  0.00     0.007 A 
HETATM   32  C   UNK N   1      28.801  18.628   7.664  0.00  0.00     0.064 C 
HETATM   33  C   UNK N   1      26.568  21.094   5.840  0.00  0.00     0.001 A 
HETATM   34  C   UNK N   1      26.683  20.541   4.549  0.00  0.00     0.001 A 
ENDBRANCH  24  26
ENDBRANCH  23  24
ENDBRANCH   1  23
TORSDOF 5
ENDMDL
MODEL 9
REMARK VINA RESULT:      -8.3     10.094     15.471
REMARK  5 active torsions:
REMARK  status: ('A' for Active; 'I' for Inactive)
REMARK    1  A    between atoms: C_8  and  N_10 
REMARK    2  A    between atoms: N_10  and  C_11 
REMARK    3  A    between atoms: C_11  and  C_12 
REMARK    4  A    between atoms: C_15  and  C_19 
REMARK    5  A    between atoms: C_23  and  C_25 
ROOT
HETATM    1  C   UNK N   1      35.262  13.061  12.595  0.00  0.00     0.036 A 
HETATM    2  C   UNK N   1      34.612  11.925  13.113  0.00  0.00     0.128 A 
HETATM    3  C   UNK N   1      34.541  11.728  14.501  0.00  0.00     0.055 A 
HETATM    4  C   UNK N   1      35.102  12.682  15.362  0.00  0.00    -0.020 A 
HETATM    5  C   UNK N   1      35.711  13.820  14.821  0.00  0.00     0.055 A 
HETATM    6  C   UNK N   1      35.797  14.016  13.465  0.00  0.00     0.128 A 
HETATM    7  F   UNK N   1      36.427  15.126  13.005  0.00  0.00    -0.205 F 
HETATM    8  F   UNK N   1      34.095  10.990  12.275  0.00  0.00    -0.205 F 
ENDROOT
BRANCH   4   9
HETATM    9  C   UNK N   1      35.254  12.464  16.811  0.00  0.00    -0.025 A 
HETATM   10  C   UNK N   1      35.234  13.489  17.769  0.00  0.00     0.012 A 
HETATM   11  C   UNK N   1      35.204  13.154  19.136  0.00  0.00     0.002 A 
HETATM   12  C   UNK N   1      35.147  11.804  19.536  0.00  0.00     0.015 A 
HETATM   13  C   UNK N   1      35.172  10.793  18.565  0.00  0.00     0.010 A 
HETATM   14  C   UNK N   1      35.238  11.142  17.238  0.00  0.00     0.027 A 
BRANCH  13  15
HETATM   15  C   UNK N   1      35.016   9.365  18.858  0.00  0.00     0.131 A 
HETATM   16  N   UNK N   1      33.849   8.703  18.910  0.00  0.00    -0.336 N 
HETATM   17  C   UNK N   1      34.222   7.422  19.125  0.00  0.00     0.199 A 
ATOM     18  HN  UNK N   1      32.906   9.077  18.810  1.00  0.00     0.168 HD
HETATM   19  N   UNK N   1      35.565   7.323  19.198  0.00  0.00    -0.295 N 
HETATM   20  N   UNK N   1      36.059   8.531  19.027  0.00  0.00    -0.284 N 
HETATM   21  H   UNK N   1      36.081   6.498  19.353  0.00  0.00     0.187 HD
ATOM     22  HN  UNK N   1      37.047   8.787  19.024  1.00  0.00     0.188 HD
ENDBRANCH  13  15
ENDBRANCH   4   9
BRANCH   1  23
HETATM   23  C   UNK N   1      35.401  13.243  11.124  0.00  0.00     0.159 C 
BRANCH  23  24
HETATM   24  N   UNK N   1      34.167  13.760  10.542  0.00  0.00    -0.412 N 
HETATM   25  H   UNK N   1      33.457  14.268  11.070  0.00  0.00     0.153 HD
BRANCH  24  26
HETATM   26  C   UNK N   1      34.067  13.465   9.108  0.00  0.00     0.085 C 
HETATM   27  C   UNK N   1      32.626  13.831   8.707  0.00  0.00     0.064 C 
HETATM   28  C   UNK N   1      32.782  15.285   8.510  0.00  0.00    -0.050 A 
HETATM   29  C   UNK N   1      34.087  15.628   8.302  0.00  0.00    -0.050 A 
HETATM   30  C   UNK N   1      31.786  16.253   8.606  0.00  0.00     0.007 A 
HETATM   31  C   UNK N   1      34.483  16.955   8.179  0.00  0.00     0.007 A 
HETATM   32  C   UNK N   1      34.965  14.452   8.329  0.00  0.00     0.064 C 
HETATM   33  C   UNK N   1      33.501  17.952   8.265  0.00  0.00     0.001 A 
HETATM   34  C   UNK N   1      32.153  17.602   8.478  0.00  0.00     0.001 A 
ENDBRANCH  24  26
ENDBRANCH  23  24
ENDBRANCH   1  23
TORSDOF 5
ENDMDL
