MODEL 1
REMARK VINA RESULT:      -5.1      0.000      0.000
REMARK  6 active torsions:
REMARK  status: ('A' for Active; 'I' for Inactive)
REMARK    1  A    between atoms: C_1  and  O_7 
REMARK    2  A    between atoms: C_2  and  O_12 
REMARK    3  A    between atoms: C_3  and  O_11 
REMARK    4  A    between atoms: C_4  and  O_10 
REMARK    5  A    between atoms: C_5  and  O_9 
REMARK    6  A    between atoms: C_6  and  O_8 
ROOT
HETATM    1  C   UNK N   1      20.685  19.619   1.164  0.00  0.00     0.180 A 
HETATM    2  C   UNK N   1      20.398  18.136   0.976  0.00  0.00     0.181 A 
HETATM    3  C   UNK N   1      20.331  17.173   2.163  0.00  0.00     0.183 A 
HETATM    4  C   UNK N   1      20.568  17.764   3.580  0.00  0.00     0.181 A 
HETATM    5  C   UNK N   1      20.855  19.252   3.758  0.00  0.00     0.180 A 
HETATM    6  C   UNK N   1      20.914  20.180   2.555  0.00  0.00     0.180 A 
ENDROOT
BRANCH   1   7
HETATM    7  O   UNK N   1      20.737  20.463   0.054  0.00  0.00    -0.390 OA
HETATM    8  H   UNK N   1      20.432  20.148  -0.811  0.00  0.00     0.210 HD
ENDBRANCH   1   7
BRANCH   2   9
HETATM    9  O   UNK N   1      20.191  17.643  -0.311  0.00  0.00    -0.390 OA
HETATM   10  H   UNK N   1      20.749  17.948  -1.044  0.00  0.00     0.210 HD
ENDBRANCH   2   9
BRANCH   6  11
HETATM   11  O   UNK N   1      21.177  21.540   2.728  0.00  0.00    -0.390 OA
HETATM   12  H   UNK N   1      22.078  21.837   2.930  0.00  0.00     0.210 HD
ENDBRANCH   6  11
BRANCH   3  13
HETATM   13  O   UNK N   1      20.056  15.823   1.833  0.00  0.00    -0.385 OA
HETATM   14  C   UNK N   1      21.222  15.053   1.797  0.00  0.00     0.202 C 
ENDBRANCH   3  13
BRANCH   5  15
HETATM   15  O   UNK N   1      21.065  19.767   5.038  0.00  0.00    -0.390 OA
HETATM   16  H   UNK N   1      20.427  20.389   5.421  0.00  0.00     0.210 HD
ENDBRANCH   5  15
BRANCH   4  17
HETATM   17  O   UNK N   1      20.528  16.968   4.727  0.00  0.00    -0.390 OA
HETATM   18  H   UNK N   1      19.734  16.448   4.929  0.00  0.00     0.210 HD
ENDBRANCH   4  17
TORSDOF 6
ENDMDL
MODEL 2
REMARK VINA RESULT:      -5.1      0.699      2.450
REMARK  6 active torsions:
REMARK  status: ('A' for Active; 'I' for Inactive)
REMARK    1  A    between atoms: C_1  and  O_7 
REMARK    2  A    between atoms: C_2  and  O_12 
REMARK    3  A    between atoms: C_3  and  O_11 
REMARK    4  A    between atoms: C_4  and  O_10 
REMARK    5  A    between atoms: C_5  and  O_9 
REMARK    6  A    between atoms: C_6  and  O_8 
ROOT
HETATM    1  C   UNK N   1      20.308  18.122   0.966  0.00  0.00     0.180 A 
HETATM    2  C   UNK N   1      20.155  17.218   2.181  0.00  0.00     0.181 A 
HETATM    3  C   UNK N   1      20.377  17.738   3.603  0.00  0.00     0.183 A 
HETATM    4  C   UNK N   1      20.768  19.233   3.767  0.00  0.00     0.181 A 
HETATM    5  C   UNK N   1      20.919  20.131   2.542  0.00  0.00     0.180 A 
HETATM    6  C   UNK N   1      20.691  19.579   1.144  0.00  0.00     0.180 A 
ENDROOT
BRANCH   1   7
HETATM    7  O   UNK N   1      20.096  17.608  -0.314  0.00  0.00    -0.390 OA
HETATM    8  H   UNK N   1      20.741  17.778  -1.019  0.00  0.00     0.210 HD
ENDBRANCH   1   7
BRANCH   2   9
HETATM    9  O   UNK N   1      19.803  15.883   1.994  0.00  0.00    -0.390 OA
HETATM   10  H   UNK N   1      19.774  15.277   2.751  0.00  0.00     0.210 HD
ENDBRANCH   2   9
BRANCH   6  11
HETATM   11  O   UNK N   1      20.832  20.409   0.030  0.00  0.00    -0.390 OA
HETATM   12  H   UNK N   1      20.664  21.361   0.110  0.00  0.00     0.210 HD
ENDBRANCH   6  11
BRANCH   3  13
HETATM   13  O   UNK N   1      20.198  16.782   4.633  0.00  0.00    -0.385 OA
HETATM   14  C   UNK N   1      21.423  16.300   5.106  0.00  0.00     0.202 C 
ENDBRANCH   3  13
BRANCH   5  15
HETATM   15  O   UNK N   1      21.271  21.470   2.707  0.00  0.00    -0.390 OA
HETATM   16  H   UNK N   1      20.614  22.167   2.552  0.00  0.00     0.210 HD
ENDBRANCH   5  15
BRANCH   4  17
HETATM   17  O   UNK N   1      20.992  19.802   5.023  0.00  0.00    -0.390 OA
HETATM   18  H   UNK N   1      20.242  20.082   5.570  0.00  0.00     0.210 HD
ENDBRANCH   4  17
TORSDOF 6
ENDMDL
MODEL 3
REMARK VINA RESULT:      -5.1     13.742     14.588
REMARK  6 active torsions:
REMARK  status: ('A' for Active; 'I' for Inactive)
REMARK    1  A    between atoms: C_1  and  O_7 
REMARK    2  A    between atoms: C_2  and  O_12 
REMARK    3  A    between atoms: C_3  and  O_11 
REMARK    4  A    between atoms: C_4  and  O_10 
REMARK    5  A    between atoms: C_5  and  O_9 
REMARK    6  A    between atoms: C_6  and  O_8 
ROOT
HETATM    1  C   UNK N   1      34.572  17.686   8.456  0.00  0.00     0.180 A 
HETATM    2  C   UNK N   1      33.931  17.191   7.167  0.00  0.00     0.181 A 
HETATM    3  C   UNK N   1      33.138  15.884   7.114  0.00  0.00     0.183 A 
HETATM    4  C   UNK N   1      33.007  15.070   8.431  0.00  0.00     0.181 A 
HETATM    5  C   UNK N   1      33.654  15.575   9.718  0.00  0.00     0.180 A 
HETATM    6  C   UNK N   1      34.435  16.879   9.733  0.00  0.00     0.180 A 
ENDROOT
BRANCH   1   7
HETATM    7  O   UNK N   1      35.287  18.884   8.461  0.00  0.00    -0.390 OA
HETATM    8  H   UNK N   1      36.021  19.010   9.084  0.00  0.00     0.210 HD
ENDBRANCH   1   7
BRANCH   2   9
HETATM    9  O   UNK N   1      34.070  17.949   6.005  0.00  0.00    -0.390 OA
HETATM   10  H   UNK N   1      33.368  17.945   5.336  0.00  0.00     0.210 HD
ENDBRANCH   2   9
BRANCH   6  11
HETATM   11  O   UNK N   1      35.022  17.332  10.916  0.00  0.00    -0.390 OA
HETATM   12  H   UNK N   1      35.878  17.790  10.887  0.00  0.00     0.210 HD
ENDBRANCH   6  11
BRANCH   3  13
HETATM   13  O   UNK N   1      32.600  15.552   5.845  0.00  0.00    -0.385 OA
HETATM   14  C   UNK N   1      31.234  15.844   5.773  0.00  0.00     0.202 C 
ENDBRANCH   3  13
BRANCH   5  15
HETATM   15  O   UNK N   1      33.526  14.832  10.892  0.00  0.00    -0.390 OA
HETATM   16  H   UNK N   1      32.699  14.862  11.398  0.00  0.00     0.210 HD
ENDBRANCH   5  15
BRANCH   4  17
HETATM   17  O   UNK N   1      32.304  13.865   8.486  0.00  0.00    -0.390 OA
HETATM   18  H   UNK N   1      32.604  13.153   9.073  0.00  0.00     0.210 HD
ENDBRANCH   4  17
TORSDOF 6
ENDMDL
MODEL 4
REMARK VINA RESULT:      -5.0     13.735     14.775
REMARK  6 active torsions:
REMARK  status: ('A' for Active; 'I' for Inactive)
REMARK    1  A    between atoms: C_1  and  O_7 
REMARK    2  A    between atoms: C_2  and  O_12 
REMARK    3  A    between atoms: C_3  and  O_11 
REMARK    4  A    between atoms: C_4  and  O_10 
REMARK    5  A    between atoms: C_5  and  O_9 
REMARK    6  A    between atoms: C_6  and  O_8 
ROOT
HETATM    1  C   UNK N   1      33.653  15.572   9.732  0.00  0.00     0.180 A 
HETATM    2  C   UNK N   1      33.008  15.071   8.447  0.00  0.00     0.181 A 
HETATM    3  C   UNK N   1      33.120  15.850   7.135  0.00  0.00     0.183 A 
HETATM    4  C   UNK N   1      33.920  17.181   7.157  0.00  0.00     0.181 A 
HETATM    5  C   UNK N   1      34.563  17.675   8.450  0.00  0.00     0.180 A 
HETATM    6  C   UNK N   1      34.432  16.874   9.736  0.00  0.00     0.180 A 
ENDROOT
BRANCH   1   7
HETATM    7  O   UNK N   1      33.528  14.831  10.908  0.00  0.00    -0.390 OA
HETATM    8  H   UNK N   1      33.458  13.864  10.868  0.00  0.00     0.210 HD
ENDBRANCH   1   7
BRANCH   2   9
HETATM    9  O   UNK N   1      32.298  13.872   8.467  0.00  0.00    -0.390 OA
HETATM   10  H   UNK N   1      31.328  13.881   8.420  0.00  0.00     0.210 HD
ENDBRANCH   2   9
BRANCH   6  11
HETATM   11  O   UNK N   1      35.023  17.334  10.914  0.00  0.00    -0.390 OA
HETATM   12  H   UNK N   1      35.989  17.314  11.011  0.00  0.00     0.210 HD
ENDBRANCH   6  11
BRANCH   3  13
HETATM   13  O   UNK N   1      32.468  15.260   6.023  0.00  0.00    -0.385 OA
HETATM   14  C   UNK N   1      31.235  15.867   5.768  0.00  0.00     0.202 C 
ENDBRANCH   3  13
BRANCH   5  15
HETATM   15  O   UNK N   1      35.279  18.872   8.452  0.00  0.00    -0.390 OA
HETATM   16  H   UNK N   1      36.109  18.942   7.954  0.00  0.00     0.210 HD
ENDBRANCH   5  15
BRANCH   4  17
HETATM   17  O   UNK N   1      34.079  17.964   6.011  0.00  0.00    -0.390 OA
HETATM   18  H   UNK N   1      33.327  18.464   5.656  0.00  0.00     0.210 HD
ENDBRANCH   4  17
TORSDOF 6
ENDMDL
MODEL 5
REMARK VINA RESULT:      -5.0      8.233     10.303
REMARK  6 active torsions:
REMARK  status: ('A' for Active; 'I' for Inactive)
REMARK    1  A    between atoms: C_1  and  O_7 
REMARK    2  A    between atoms: C_2  and  O_12 
REMARK    3  A    between atoms: C_3  and  O_11 
REMARK    4  A    between atoms: C_4  and  O_10 
REMARK    5  A    between atoms: C_5  and  O_9 
REMARK    6  A    between atoms: C_6  and  O_8 
ROOT
HETATM    1  C   UNK N   1      23.992  13.036   9.653  0.00  0.00     0.180 A 
HETATM    2  C   UNK N   1      22.683  13.461   9.004  0.00  0.00     0.181 A 
HETATM    3  C   UNK N   1      21.330  13.177   9.660  0.00  0.00     0.183 A 
HETATM    4  C   UNK N   1      21.337  12.432  11.023  0.00  0.00     0.181 A 
HETATM    5  C   UNK N   1      22.655  12.009  11.666  0.00  0.00     0.180 A 
HETATM    6  C   UNK N   1      23.981  12.309  10.985  0.00  0.00     0.180 A 
ENDROOT
BRANCH   1   7
HETATM    7  O   UNK N   1      25.205  13.315   9.021  0.00  0.00    -0.390 OA
HETATM    8  H   UNK N   1      25.561  14.217   9.030  0.00  0.00     0.210 HD
ENDBRANCH   1   7
BRANCH   2   9
HETATM    9  O   UNK N   1      22.717  14.128   7.780  0.00  0.00    -0.390 OA
HETATM   10  H   UNK N   1      23.450  14.730   7.575  0.00  0.00     0.210 HD
ENDBRANCH   2   9
BRANCH   6  11
HETATM   11  O   UNK N   1      25.181  11.919  11.581  0.00  0.00    -0.390 OA
HETATM   12  H   UNK N   1      25.300  11.002  11.878  0.00  0.00     0.210 HD
ENDBRANCH   6  11
BRANCH   3  13
HETATM   13  O   UNK N   1      20.199  13.632   8.938  0.00  0.00    -0.385 OA
HETATM   14  C   UNK N   1      19.827  14.923   9.325  0.00  0.00     0.202 C 
ENDBRANCH   3  13
BRANCH   5  15
HETATM   15  O   UNK N   1      22.643  11.341  12.890  0.00  0.00    -0.390 OA
HETATM   16  H   UNK N   1      23.196  10.555  13.020  0.00  0.00     0.210 HD
ENDBRANCH   5  15
BRANCH   4  17
HETATM   17  O   UNK N   1      20.155  12.126  11.701  0.00  0.00    -0.390 OA
HETATM   18  H   UNK N   1      19.298  12.244  11.261  0.00  0.00     0.210 HD
ENDBRANCH   4  17
TORSDOF 6
ENDMDL
MODEL 6
REMARK VINA RESULT:      -4.9      8.334     10.623
REMARK  6 active torsions:
REMARK  status: ('A' for Active; 'I' for Inactive)
REMARK    1  A    between atoms: C_1  and  O_7 
REMARK    2  A    between atoms: C_2  and  O_12 
REMARK    3  A    between atoms: C_3  and  O_11 
REMARK    4  A    between atoms: C_4  and  O_10 
REMARK    5  A    between atoms: C_5  and  O_9 
REMARK    6  A    between atoms: C_6  and  O_8 
ROOT
HETATM    1  C   UNK N   1      21.327  12.303  11.255  0.00  0.00     0.180 A 
HETATM    2  C   UNK N   1      21.268  13.093   9.955  0.00  0.00     0.181 A 
HETATM    3  C   UNK N   1      22.538  13.498   9.203  0.00  0.00     0.183 A 
HETATM    4  C   UNK N   1      23.901  13.071   9.814  0.00  0.00     0.181 A 
HETATM    5  C   UNK N   1      23.949  12.279  11.118  0.00  0.00     0.180 A 
HETATM    6  C   UNK N   1      22.666  11.894  11.838  0.00  0.00     0.180 A 
ENDROOT
BRANCH   1   7
HETATM    7  O   UNK N   1      20.145  11.954  11.910  0.00  0.00    -0.390 OA
HETATM    8  H   UNK N   1      19.848  12.462  12.681  0.00  0.00     0.210 HD
ENDBRANCH   1   7
BRANCH   2   9
HETATM    9  O   UNK N   1      20.027  13.458   9.437  0.00  0.00    -0.390 OA
HETATM   10  H   UNK N   1      19.976  14.015   8.644  0.00  0.00     0.210 HD
ENDBRANCH   2   9
BRANCH   6  11
HETATM   11  O   UNK N   1      22.720  11.169  13.030  0.00  0.00    -0.390 OA
HETATM   12  H   UNK N   1      23.517  11.203  13.582  0.00  0.00     0.210 HD
ENDBRANCH   6  11
BRANCH   3  13
HETATM   13  O   UNK N   1      22.327  14.231   8.008  0.00  0.00    -0.385 OA
HETATM   14  C   UNK N   1      22.459  13.420   6.877  0.00  0.00     0.202 C 
ENDBRANCH   3  13
BRANCH   5  15
HETATM   15  O   UNK N   1      25.180  11.903  11.653  0.00  0.00    -0.390 OA
HETATM   16  H   UNK N   1      25.706  11.211  11.222  0.00  0.00     0.210 HD
ENDBRANCH   5  15
BRANCH   4  17
HETATM   17  O   UNK N   1      25.115  13.392   9.203  0.00  0.00    -0.390 OA
HETATM   18  H   UNK N   1      25.472  12.823   8.503  0.00  0.00     0.210 HD
ENDBRANCH   4  17
TORSDOF 6
ENDMDL
MODEL 7
REMARK VINA RESULT:      -4.9      8.343     10.636
REMARK  6 active torsions:
REMARK  status: ('A' for Active; 'I' for Inactive)
REMARK    1  A    between atoms: C_1  and  O_7 
REMARK    2  A    between atoms: C_2  and  O_12 
REMARK    3  A    between atoms: C_3  and  O_11 
REMARK    4  A    between atoms: C_4  and  O_10 
REMARK    5  A    between atoms: C_5  and  O_9 
REMARK    6  A    between atoms: C_6  and  O_8 
ROOT
HETATM    1  C   UNK N   1      23.977  12.263  11.115  0.00  0.00     0.180 A 
HETATM    2  C   UNK N   1      23.925  13.045   9.810  0.00  0.00     0.181 A 
HETATM    3  C   UNK N   1      22.598  13.480   9.186  0.00  0.00     0.183 A 
HETATM    4  C   UNK N   1      21.292  13.094   9.935  0.00  0.00     0.181 A 
HETATM    5  C   UNK N   1      21.355  12.311  11.243  0.00  0.00     0.180 A 
HETATM    6  C   UNK N   1      22.693  11.895  11.833  0.00  0.00     0.180 A 
ENDROOT
BRANCH   1   7
HETATM    7  O   UNK N   1      25.209  11.886  11.650  0.00  0.00    -0.390 OA
HETATM    8  H   UNK N   1      25.244  11.336  12.449  0.00  0.00     0.210 HD
ENDBRANCH   1   7
BRANCH   2   9
HETATM    9  O   UNK N   1      25.117  13.373   9.167  0.00  0.00    -0.390 OA
HETATM   10  H   UNK N   1      25.100  13.876   8.337  0.00  0.00     0.210 HD
ENDBRANCH   2   9
BRANCH   6  11
HETATM   11  O   UNK N   1      22.740  11.178  13.030  0.00  0.00    -0.390 OA
HETATM   12  H   UNK N   1      23.565  11.138  13.539  0.00  0.00     0.210 HD
ENDBRANCH   6  11
BRANCH   3  13
HETATM   13  O   UNK N   1      22.707  14.201   7.970  0.00  0.00    -0.385 OA
HETATM   14  C   UNK N   1      22.437  13.389   6.864  0.00  0.00     0.202 C 
ENDBRANCH   3  13
BRANCH   5  15
HETATM   15  O   UNK N   1      20.174  11.972  11.902  0.00  0.00    -0.390 OA
HETATM   16  H   UNK N   1      20.204  11.645  12.815  0.00  0.00     0.210 HD
ENDBRANCH   5  15
BRANCH   4  17
HETATM   17  O   UNK N   1      20.031  13.445   9.447  0.00  0.00    -0.390 OA
HETATM   18  H   UNK N   1      19.861  13.437   8.491  0.00  0.00     0.210 HD
ENDBRANCH   4  17
TORSDOF 6
ENDMDL
MODEL 8
REMARK VINA RESULT:      -4.9     14.004     15.019
REMARK  6 active torsions:
REMARK  status: ('A' for Active; 'I' for Inactive)
REMARK    1  A    between atoms: C_1  and  O_7 
REMARK    2  A    between atoms: C_2  and  O_12 
REMARK    3  A    between atoms: C_3  and  O_11 
REMARK    4  A    between atoms: C_4  and  O_10 
REMARK    5  A    between atoms: C_5  and  O_9 
REMARK    6  A    between atoms: C_6  and  O_8 
ROOT
HETATM    1  C   UNK N   1      34.481  16.828   9.644  0.00  0.00     0.180 A 
HETATM    2  C   UNK N   1      33.787  15.475   9.571  0.00  0.00     0.181 A 
HETATM    3  C   UNK N   1      33.178  14.954   8.267  0.00  0.00     0.183 A 
HETATM    4  C   UNK N   1      33.294  15.858   7.009  0.00  0.00     0.181 A 
HETATM    5  C   UNK N   1      33.993  17.212   7.093  0.00  0.00     0.180 A 
HETATM    6  C   UNK N   1      34.586  17.698   8.406  0.00  0.00     0.180 A 
ENDROOT
BRANCH   1   7
HETATM    7  O   UNK N   1      35.023  17.266  10.853  0.00  0.00    -0.390 OA
HETATM    8  H   UNK N   1      34.476  17.770  11.476  0.00  0.00     0.210 HD
ENDBRANCH   1   7
BRANCH   2   9
HETATM    9  O   UNK N   1      33.702  14.692  10.721  0.00  0.00    -0.390 OA
HETATM   10  H   UNK N   1      34.456  14.640  11.329  0.00  0.00     0.210 HD
ENDBRANCH   2   9
BRANCH   6  11
HETATM   11  O   UNK N   1      35.223  18.939   8.473  0.00  0.00    -0.390 OA
HETATM   12  H   UNK N   1      35.217  19.442   9.302  0.00  0.00     0.210 HD
ENDBRANCH   6  11
BRANCH   3  13
HETATM   13  O   UNK N   1      32.564  13.679   8.352  0.00  0.00    -0.385 OA
HETATM   14  C   UNK N   1      33.405  12.670   7.873  0.00  0.00     0.202 C 
ENDBRANCH   3  13
BRANCH   5  15
HETATM   15  O   UNK N   1      34.088  18.012   5.954  0.00  0.00    -0.390 OA
HETATM   16  H   UNK N   1      34.486  17.657   5.144  0.00  0.00     0.210 HD
ENDBRANCH   5  15
BRANCH   4  17
HETATM   17  O   UNK N   1      32.771  15.472   5.773  0.00  0.00    -0.390 OA
HETATM   18  H   UNK N   1      31.882  15.087   5.721  0.00  0.00     0.210 HD
ENDBRANCH   4  17
TORSDOF 6
ENDMDL
MODEL 9
REMARK VINA RESULT:      -4.8     14.211     15.202
REMARK  6 active torsions:
REMARK  status: ('A' for Active; 'I' for Inactive)
REMARK    1  A    between atoms: C_1  and  O_7 
REMARK    2  A    between atoms: C_2  and  O_12 
REMARK    3  A    between atoms: C_3  and  O_11 
REMARK    4  A    between atoms: C_4  and  O_10 
REMARK    5  A    between atoms: C_5  and  O_9 
REMARK    6  A    between atoms: C_6  and  O_8 
ROOT
HETATM    1  C   UNK N   1      34.586  17.735   8.362  0.00  0.00     0.180 A 
HETATM    2  C   UNK N   1      34.508  16.870   9.612  0.00  0.00     0.181 A 
HETATM    3  C   UNK N   1      33.817  15.505   9.602  0.00  0.00     0.183 A 
HETATM    4  C   UNK N   1      33.192  15.027   8.263  0.00  0.00     0.181 A 
HETATM    5  C   UNK N   1      33.275  15.902   7.015  0.00  0.00     0.180 A 
HETATM    6  C   UNK N   1      33.970  17.253   7.062  0.00  0.00     0.180 A 
ENDROOT
BRANCH   1   7
HETATM    7  O   UNK N   1      35.226  18.975   8.413  0.00  0.00    -0.390 OA
HETATM    8  H   UNK N   1      36.186  19.021   8.541  0.00  0.00     0.210 HD
ENDBRANCH   1   7
BRANCH   2   9
HETATM    9  O   UNK N   1      35.081  17.333  10.795  0.00  0.00    -0.390 OA
HETATM   10  H   UNK N   1      35.521  18.197  10.816  0.00  0.00     0.210 HD
ENDBRANCH   2   9
BRANCH   6  11
HETATM   11  O   UNK N   1      34.041  18.047   5.916  0.00  0.00    -0.390 OA
HETATM   12  H   UNK N   1      33.524  18.867   5.861  0.00  0.00     0.210 HD
ENDBRANCH   6  11
BRANCH   3  13
HETATM   13  O   UNK N   1      33.824  14.813  10.839  0.00  0.00    -0.385 OA
HETATM   14  C   UNK N   1      34.816  13.829  10.874  0.00  0.00     0.202 C 
ENDBRANCH   3  13
BRANCH   5  15
HETATM   15  O   UNK N   1      32.709  15.458   5.821  0.00  0.00    -0.390 OA
HETATM   16  H   UNK N   1      31.952  15.929   5.438  0.00  0.00     0.210 HD
ENDBRANCH   5  15
BRANCH   4  17
HETATM   17  O   UNK N   1      32.540  13.796   8.151  0.00  0.00    -0.390 OA
HETATM   18  H   UNK N   1      33.055  12.974   8.126  0.00  0.00     0.210 HD
ENDBRANCH   4  17
TORSDOF 6
ENDMDL
