MODEL 1
REMARK VINA RESULT:      -7.4      0.000      0.000
REMARK  6 active torsions:
REMARK  status: ('A' for Active; 'I' for Inactive)
REMARK    1  A    between atoms: N_6  and  C_7 
REMARK    2  A    between atoms: C_7  and  C_8 
REMARK    3  A    between atoms: C_8  and  C_9 
REMARK    4  A    between atoms: C_9  and  O_10 
REMARK    5  A    between atoms: O_10  and  C_11 
REMARK    6  A    between atoms: C_14  and  C_17 
ROOT
HETATM    1  C   UNK N   1      19.994  15.959   6.772  0.00  0.00     0.068 A 
HETATM    2  C   UNK N   1      20.880  17.038   6.870  0.00  0.00     0.037 A 
HETATM    3  C   UNK N   1      21.102  17.870   5.766  0.00  0.00     0.016 A 
HETATM    4  C   UNK N   1      20.427  17.637   4.556  0.00  0.00    -0.008 A 
HETATM    5  C   UNK N   1      19.538  16.558   4.465  0.00  0.00     0.016 A 
HETATM    6  C   UNK N   1      19.330  15.723   5.558  0.00  0.00     0.037 A 
ENDROOT
BRANCH   1   7
HETATM    7  O   UNK N   1      19.795  15.162   7.853  0.00  0.00    -0.351 OA
BRANCH   7   8
HETATM    8  C   UNK N   1      20.669  15.081   8.922  0.00  0.00     0.177 C 
BRANCH   8   9
HETATM    9  C   UNK N   1      20.370  13.887   9.818  0.00  0.00     0.057 C 
BRANCH   9  10
HETATM   10  C   UNK N   1      21.422  12.820   9.561  0.00  0.00     0.275 C 
BRANCH  10  11
HETATM   11  N   UNK N   1      22.695  13.180  10.176  0.00  0.00     0.092 N 
HETATM   12  C   UNK N   1      23.698  13.367   9.134  0.00  0.00     0.273 C 
HETATM   13  C   UNK N   1      25.026  12.884   9.688  0.00  0.00     0.032 C 
HETATM   14  C   UNK N   1      24.681  12.176  10.977  0.00  0.00     0.037 C 
HETATM   15  C   UNK N   1      23.182  12.025  10.912  0.00  0.00     0.219 C 
HETATM   16  C   UNK N   1      22.594  11.977  12.311  0.00  0.00     0.043 C 
ENDBRANCH  10  11
ENDBRANCH   9  10
ENDBRANCH   8   9
ENDBRANCH   7   8
ENDBRANCH   1   7
BRANCH   4  17
HETATM   17  C   UNK N   1      20.630  18.507   3.382  0.00  0.00     0.058 A 
HETATM   18  C   UNK N   1      21.369  19.690   3.478  0.00  0.00     0.037 A 
HETATM   19  C   UNK N   1      21.540  20.484   2.347  0.00  0.00     0.078 A 
HETATM   20  C   UNK N   1      20.963  20.083   1.146  0.00  0.00     0.259 A 
HETATM   21  O   UNK N   1      21.096  20.762   0.145  0.00  0.00    -0.267 OA
HETATM   22  N   UNK N   1      20.245  18.919   1.096  0.00  0.00    -0.266 N 
HETATM   23  N   UNK N   1      20.090  18.157   2.180  0.00  0.00    -0.297 N 
HETATM   24  H   UNK N   1      19.837  18.639   0.245  0.00  0.00     0.190 HD
ATOM     25  HN  UNK N   1      19.552  17.293   2.109  1.00  0.00     0.187 HD
ENDBRANCH   4  17
TORSDOF 6
ENDMDL
MODEL 2
REMARK VINA RESULT:      -7.1     10.664     14.667
REMARK  6 active torsions:
REMARK  status: ('A' for Active; 'I' for Inactive)
REMARK    1  A    between atoms: N_6  and  C_7 
REMARK    2  A    between atoms: C_7  and  C_8 
REMARK    3  A    between atoms: C_8  and  C_9 
REMARK    4  A    between atoms: C_9  and  O_10 
REMARK    5  A    between atoms: O_10  and  C_11 
REMARK    6  A    between atoms: C_14  and  C_17 
ROOT
HETATM    1  C   UNK N   1      34.260  17.244   6.878  0.00  0.00     0.068 A 
HETATM    2  C   UNK N   1      34.467  15.860   6.902  0.00  0.00     0.037 A 
HETATM    3  C   UNK N   1      34.812  15.219   8.098  0.00  0.00     0.016 A 
HETATM    4  C   UNK N   1      34.940  15.959   9.286  0.00  0.00    -0.008 A 
HETATM    5  C   UNK N   1      34.728  17.342   9.257  0.00  0.00     0.016 A 
HETATM    6  C   UNK N   1      34.401  17.980   8.065  0.00  0.00     0.037 A 
ENDROOT
BRANCH   1   7
HETATM    7  O   UNK N   1      33.930  17.846   5.707  0.00  0.00    -0.351 OA
BRANCH   7   8
HETATM    8  C   UNK N   1      33.149  17.256   4.731  0.00  0.00     0.177 C 
BRANCH   8   9
HETATM    9  C   UNK N   1      31.664  17.499   4.958  0.00  0.00     0.057 C 
BRANCH   9  10
HETATM   10  C   UNK N   1      31.051  16.228   5.523  0.00  0.00     0.275 C 
BRANCH  10  11
HETATM   11  N   UNK N   1      29.974  16.534   6.459  0.00  0.00     0.092 N 
HETATM   12  C   UNK N   1      29.029  17.446   5.824  0.00  0.00     0.273 C 
HETATM   13  C   UNK N   1      28.504  18.378   6.900  0.00  0.00     0.032 C 
HETATM   14  C   UNK N   1      29.385  18.130   8.101  0.00  0.00     0.037 C 
HETATM   15  C   UNK N   1      30.531  17.324   7.544  0.00  0.00     0.219 C 
HETATM   16  C   UNK N   1      31.127  16.436   8.621  0.00  0.00     0.043 C 
ENDBRANCH  10  11
ENDBRANCH   9  10
ENDBRANCH   8   9
ENDBRANCH   7   8
ENDBRANCH   1   7
BRANCH   4  17
HETATM   17  C   UNK N   1      35.288  15.307  10.564  0.00  0.00     0.058 A 
HETATM   18  C   UNK N   1      34.678  14.110  10.955  0.00  0.00     0.037 A 
HETATM   19  C   UNK N   1      35.034  13.525  12.167  0.00  0.00     0.078 A 
HETATM   20  C   UNK N   1      35.985  14.151  12.966  0.00  0.00     0.259 A 
HETATM   21  O   UNK N   1      36.310  13.661  14.031  0.00  0.00    -0.267 OA
HETATM   22  N   UNK N   1      36.556  15.322  12.547  0.00  0.00    -0.266 N 
HETATM   23  N   UNK N   1      36.218  15.876  11.381  0.00  0.00    -0.297 N 
HETATM   24  H   UNK N   1      37.228  15.764  13.115  0.00  0.00     0.190 HD
ATOM     25  HN  UNK N   1      36.664  16.748  11.095  1.00  0.00     0.187 HD
ENDBRANCH   4  17
TORSDOF 6
ENDMDL
MODEL 3
REMARK VINA RESULT:      -6.8      7.729     11.837
REMARK  6 active torsions:
REMARK  status: ('A' for Active; 'I' for Inactive)
REMARK    1  A    between atoms: N_6  and  C_7 
REMARK    2  A    between atoms: C_7  and  C_8 
REMARK    3  A    between atoms: C_8  and  C_9 
REMARK    4  A    between atoms: C_9  and  O_10 
REMARK    5  A    between atoms: O_10  and  C_11 
REMARK    6  A    between atoms: C_14  and  C_17 
ROOT
HETATM    1  C   UNK N   1      28.644  18.431   7.103  0.00  0.00     0.068 A 
HETATM    2  C   UNK N   1      29.407  17.507   6.380  0.00  0.00     0.037 A 
HETATM    3  C   UNK N   1      30.546  16.932   6.955  0.00  0.00     0.016 A 
HETATM    4  C   UNK N   1      30.924  17.266   8.266  0.00  0.00    -0.008 A 
HETATM    5  C   UNK N   1      30.155  18.188   8.986  0.00  0.00     0.016 A 
HETATM    6  C   UNK N   1      29.032  18.772   8.409  0.00  0.00     0.037 A 
ENDROOT
BRANCH   1   7
HETATM    7  O   UNK N   1      27.544  18.980   6.526  0.00  0.00    -0.351 OA
BRANCH   7   8
HETATM    8  C   UNK N   1      27.321  20.341   6.432  0.00  0.00     0.177 C 
BRANCH   8   9
HETATM    9  C   UNK N   1      26.428  20.697   5.252  0.00  0.00     0.057 C 
BRANCH   9  10
HETATM   10  C   UNK N   1      26.721  19.725   4.120  0.00  0.00     0.275 C 
BRANCH  10  11
HETATM   11  N   UNK N   1      25.497  19.354   3.418  0.00  0.00     0.092 N 
HETATM   12  C   UNK N   1      24.899  20.546   2.828  0.00  0.00     0.273 C 
HETATM   13  C   UNK N   1      23.392  20.380   2.896  0.00  0.00     0.032 C 
HETATM   14  C   UNK N   1      23.167  19.177   3.782  0.00  0.00     0.037 C 
HETATM   15  C   UNK N   1      24.518  18.936   4.407  0.00  0.00     0.219 C 
HETATM   16  C   UNK N   1      24.684  17.469   4.760  0.00  0.00     0.043 C 
ENDBRANCH  10  11
ENDBRANCH   9  10
ENDBRANCH   8   9
ENDBRANCH   7   8
ENDBRANCH   1   7
BRANCH   4  17
HETATM   17  C   UNK N   1      32.112  16.663   8.902  0.00  0.00     0.058 A 
HETATM   18  C   UNK N   1      33.393  17.177   8.675  0.00  0.00     0.037 A 
HETATM   19  C   UNK N   1      34.488  16.580   9.294  0.00  0.00     0.078 A 
HETATM   20  C   UNK N   1      34.282  15.480  10.120  0.00  0.00     0.259 A 
HETATM   21  O   UNK N   1      35.224  14.940  10.669  0.00  0.00    -0.267 OA
HETATM   22  N   UNK N   1      33.012  15.008  10.314  0.00  0.00    -0.266 N 
HETATM   23  N   UNK N   1      31.964  15.586   9.724  0.00  0.00    -0.297 N 
HETATM   24  H   UNK N   1      32.869  14.228  10.898  0.00  0.00     0.190 HD
ATOM     25  HN  UNK N   1      31.030  15.213   9.892  1.00  0.00     0.187 HD
ENDBRANCH   4  17
TORSDOF 6
ENDMDL
MODEL 4
REMARK VINA RESULT:      -6.7      8.533     12.420
REMARK  6 active torsions:
REMARK  status: ('A' for Active; 'I' for Inactive)
REMARK    1  A    between atoms: N_6  and  C_7 
REMARK    2  A    between atoms: C_7  and  C_8 
REMARK    3  A    between atoms: C_8  and  C_9 
REMARK    4  A    between atoms: C_9  and  O_10 
REMARK    5  A    between atoms: O_10  and  C_11 
REMARK    6  A    between atoms: C_14  and  C_17 
ROOT
HETATM    1  C   UNK N   1      29.558  16.673   6.639  0.00  0.00     0.068 A 
HETATM    2  C   UNK N   1      29.796  17.499   7.744  0.00  0.00     0.037 A 
HETATM    3  C   UNK N   1      30.991  17.385   8.464  0.00  0.00     0.016 A 
HETATM    4  C   UNK N   1      31.967  16.453   8.074  0.00  0.00    -0.008 A 
HETATM    5  C   UNK N   1      31.726  15.633   6.965  0.00  0.00     0.016 A 
HETATM    6  C   UNK N   1      30.531  15.735   6.260  0.00  0.00     0.037 A 
ENDROOT
BRANCH   1   7
HETATM    7  O   UNK N   1      28.391  16.796   5.956  0.00  0.00    -0.351 OA
BRANCH   7   8
HETATM    8  C   UNK N   1      28.208  16.360   4.657  0.00  0.00     0.177 C 
BRANCH   8   9
HETATM    9  C   UNK N   1      26.957  16.952   4.024  0.00  0.00     0.057 C 
BRANCH   9  10
HETATM   10  C   UNK N   1      26.143  17.630   5.114  0.00  0.00     0.275 C 
BRANCH  10  11
HETATM   11  N   UNK N   1      25.761  18.982   4.721  0.00  0.00     0.092 N 
HETATM   12  C   UNK N   1      24.792  18.913   3.633  0.00  0.00     0.273 C 
HETATM   13  C   UNK N   1      25.052  20.093   2.715  0.00  0.00     0.032 C 
HETATM   14  C   UNK N   1      26.368  20.673   3.182  0.00  0.00     0.037 C 
HETATM   15  C   UNK N   1      26.916  19.616   4.107  0.00  0.00     0.219 C 
HETATM   16  C   UNK N   1      27.820  20.244   5.153  0.00  0.00     0.043 C 
ENDBRANCH  10  11
ENDBRANCH   9  10
ENDBRANCH   8   9
ENDBRANCH   7   8
ENDBRANCH   1   7
BRANCH   4  17
HETATM   17  C   UNK N   1      33.242  16.323   8.805  0.00  0.00     0.058 A 
HETATM   18  C   UNK N   1      33.960  15.123   8.801  0.00  0.00     0.037 A 
HETATM   19  C   UNK N   1      35.161  15.041   9.502  0.00  0.00     0.078 A 
HETATM   20  C   UNK N   1      35.614  16.156  10.199  0.00  0.00     0.259 A 
HETATM   21  O   UNK N   1      36.658  16.107  10.821  0.00  0.00    -0.267 OA
HETATM   22  N   UNK N   1      34.880  17.311  10.179  0.00  0.00    -0.266 N 
HETATM   23  N   UNK N   1      33.734  17.388   9.500  0.00  0.00    -0.297 N 
HETATM   24  H   UNK N   1      35.202  18.098  10.674  0.00  0.00     0.190 HD
ATOM     25  HN  UNK N   1      33.211  18.264   9.502  1.00  0.00     0.187 HD
ENDBRANCH   4  17
TORSDOF 6
ENDMDL
MODEL 5
REMARK VINA RESULT:      -6.7      3.841      9.591
REMARK  6 active torsions:
REMARK  status: ('A' for Active; 'I' for Inactive)
REMARK    1  A    between atoms: N_6  and  C_7 
REMARK    2  A    between atoms: C_7  and  C_8 
REMARK    3  A    between atoms: C_8  and  C_9 
REMARK    4  A    between atoms: C_9  and  O_10 
REMARK    5  A    between atoms: O_10  and  C_11 
REMARK    6  A    between atoms: C_14  and  C_17 
ROOT
HETATM    1  C   UNK N   1      24.023  14.340   5.685  0.00  0.00     0.068 A 
HETATM    2  C   UNK N   1      22.848  14.676   6.366  0.00  0.00     0.037 A 
HETATM    3  C   UNK N   1      22.632  14.212   7.669  0.00  0.00     0.016 A 
HETATM    4  C   UNK N   1      23.599  13.418   8.308  0.00  0.00    -0.008 A 
HETATM    5  C   UNK N   1      24.775  13.088   7.623  0.00  0.00     0.016 A 
HETATM    6  C   UNK N   1      24.982  13.536   6.322  0.00  0.00     0.037 A 
ENDROOT
BRANCH   1   7
HETATM    7  O   UNK N   1      24.212  14.797   4.420  0.00  0.00    -0.351 OA
BRANCH   7   8
HETATM    8  C   UNK N   1      25.338  15.486   4.010  0.00  0.00     0.177 C 
BRANCH   8   9
HETATM    9  C   UNK N   1      25.030  16.936   3.665  0.00  0.00     0.057 C 
BRANCH   9  10
HETATM   10  C   UNK N   1      25.287  17.786   4.899  0.00  0.00     0.275 C 
BRANCH  10  11
HETATM   11  N   UNK N   1      25.280  19.207   4.568  0.00  0.00     0.092 N 
HETATM   12  C   UNK N   1      24.087  19.514   3.787  0.00  0.00     0.273 C 
HETATM   13  C   UNK N   1      24.464  20.591   2.785  0.00  0.00     0.032 C 
HETATM   14  C   UNK N   1      25.970  20.684   2.855  0.00  0.00     0.037 C 
HETATM   15  C   UNK N   1      26.369  19.459   3.640  0.00  0.00     0.219 C 
HETATM   16  C   UNK N   1      27.674  19.704   4.375  0.00  0.00     0.043 C 
ENDBRANCH  10  11
ENDBRANCH   9  10
ENDBRANCH   8   9
ENDBRANCH   7   8
ENDBRANCH   1   7
BRANCH   4  17
HETATM   17  C   UNK N   1      23.404  12.928   9.686  0.00  0.00     0.058 A 
HETATM   18  C   UNK N   1      22.128  12.627  10.173  0.00  0.00     0.037 A 
HETATM   19  C   UNK N   1      21.985  12.166  11.479  0.00  0.00     0.078 A 
HETATM   20  C   UNK N   1      23.118  12.023  12.273  0.00  0.00     0.259 A 
HETATM   21  O   UNK N   1      23.018  11.626  13.419  0.00  0.00    -0.267 OA
HETATM   22  N   UNK N   1      24.348  12.331  11.759  0.00  0.00    -0.266 N 
HETATM   23  N   UNK N   1      24.482  12.766  10.504  0.00  0.00    -0.297 N 
HETATM   24  H   UNK N   1      25.148  12.231  12.324  0.00  0.00     0.190 HD
ATOM     25  HN  UNK N   1      25.413  12.983  10.149  1.00  0.00     0.187 HD
ENDBRANCH   4  17
TORSDOF 6
ENDMDL
MODEL 6
REMARK VINA RESULT:      -6.7      5.263      8.709
REMARK  6 active torsions:
REMARK  status: ('A' for Active; 'I' for Inactive)
REMARK    1  A    between atoms: N_6  and  C_7 
REMARK    2  A    between atoms: C_7  and  C_8 
REMARK    3  A    between atoms: C_8  and  C_9 
REMARK    4  A    between atoms: C_9  and  O_10 
REMARK    5  A    between atoms: O_10  and  C_11 
REMARK    6  A    between atoms: C_14  and  C_17 
ROOT
HETATM    1  C   UNK N   1      23.868  20.303   3.136  0.00  0.00     0.068 A 
HETATM    2  C   UNK N   1      25.095  20.887   2.803  0.00  0.00     0.037 A 
HETATM    3  C   UNK N   1      26.290  20.338   3.283  0.00  0.00     0.016 A 
HETATM    4  C   UNK N   1      26.267  19.188   4.091  0.00  0.00    -0.008 A 
HETATM    5  C   UNK N   1      25.036  18.605   4.416  0.00  0.00     0.016 A 
HETATM    6  C   UNK N   1      23.849  19.161   3.952  0.00  0.00     0.037 A 
ENDROOT
BRANCH   1   7
HETATM    7  O   UNK N   1      22.720  20.854   2.662  0.00  0.00    -0.351 OA
BRANCH   7   8
HETATM    8  C   UNK N   1      21.456  20.477   3.077  0.00  0.00     0.177 C 
BRANCH   8   9
HETATM    9  C   UNK N   1      20.575  20.047   1.912  0.00  0.00     0.057 C 
BRANCH   9  10
HETATM   10  C   UNK N   1      19.804  18.805   2.328  0.00  0.00     0.275 C 
BRANCH  10  11
HETATM   11  N   UNK N   1      20.540  17.592   1.990  0.00  0.00     0.092 N 
HETATM   12  C   UNK N   1      20.045  17.064   0.724  0.00  0.00     0.273 C 
HETATM   13  C   UNK N   1      20.110  15.550   0.805  0.00  0.00     0.032 C 
HETATM   14  C   UNK N   1      20.408  15.246   2.255  0.00  0.00     0.037 C 
HETATM   15  C   UNK N   1      20.179  16.564   2.951  0.00  0.00     0.219 C 
HETATM   16  C   UNK N   1      21.033  16.656   4.203  0.00  0.00     0.043 C 
ENDBRANCH  10  11
ENDBRANCH   9  10
ENDBRANCH   8   9
ENDBRANCH   7   8
ENDBRANCH   1   7
BRANCH   4  17
HETATM   17  C   UNK N   1      27.512  18.579   4.597  0.00  0.00     0.058 A 
HETATM   18  C   UNK N   1      27.739  18.433   5.970  0.00  0.00     0.037 A 
HETATM   19  C   UNK N   1      28.926  17.852   6.408  0.00  0.00     0.078 A 
HETATM   20  C   UNK N   1      29.863  17.436   5.468  0.00  0.00     0.259 A 
HETATM   21  O   UNK N   1      30.909  16.929   5.828  0.00  0.00    -0.267 OA
HETATM   22  N   UNK N   1      29.603  17.600   4.135  0.00  0.00    -0.266 N 
HETATM   23  N   UNK N   1      28.461  18.150   3.718  0.00  0.00    -0.297 N 
HETATM   24  H   UNK N   1      30.269  17.306   3.472  0.00  0.00     0.190 HD
ATOM     25  HN  UNK N   1      28.295  18.255   2.717  1.00  0.00     0.187 HD
ENDBRANCH   4  17
TORSDOF 6
ENDMDL
MODEL 7
REMARK VINA RESULT:      -6.7      8.238      9.629
REMARK  6 active torsions:
REMARK  status: ('A' for Active; 'I' for Inactive)
REMARK    1  A    between atoms: N_6  and  C_7 
REMARK    2  A    between atoms: C_7  and  C_8 
REMARK    3  A    between atoms: C_8  and  C_9 
REMARK    4  A    between atoms: C_9  and  O_10 
REMARK    5  A    between atoms: O_10  and  C_11 
REMARK    6  A    between atoms: C_14  and  C_17 
ROOT
HETATM    1  C   UNK N   1      30.244  17.440   7.066  0.00  0.00     0.068 A 
HETATM    2  C   UNK N   1      29.209  18.061   7.773  0.00  0.00     0.037 A 
HETATM    3  C   UNK N   1      28.107  18.589   7.088  0.00  0.00     0.016 A 
HETATM    4  C   UNK N   1      28.026  18.485   5.689  0.00  0.00    -0.008 A 
HETATM    5  C   UNK N   1      29.063  17.858   4.989  0.00  0.00     0.016 A 
HETATM    6  C   UNK N   1      30.165  17.349   5.668  0.00  0.00     0.037 A 
ENDROOT
BRANCH   1   7
HETATM    7  O   UNK N   1      31.306  16.938   7.748  0.00  0.00    -0.351 OA
BRANCH   7   8
HETATM    8  C   UNK N   1      32.222  17.716   8.430  0.00  0.00     0.177 C 
BRANCH   8   9
HETATM    9  C   UNK N   1      33.536  17.852   7.673  0.00  0.00     0.057 C 
BRANCH   9  10
HETATM   10  C   UNK N   1      34.460  16.728   8.113  0.00  0.00     0.275 C 
BRANCH  10  11
HETATM   11  N   UNK N   1      34.183  16.328   9.489  0.00  0.00     0.092 N 
HETATM   12  C   UNK N   1      35.245  16.823  10.358  0.00  0.00     0.273 C 
HETATM   13  C   UNK N   1      35.455  15.791  11.451  0.00  0.00     0.032 C 
HETATM   14  C   UNK N   1      34.661  14.584  11.012  0.00  0.00     0.037 C 
HETATM   15  C   UNK N   1      34.319  14.884   9.574  0.00  0.00     0.219 C 
HETATM   16  C   UNK N   1      33.029  14.186   9.180  0.00  0.00     0.043 C 
ENDBRANCH  10  11
ENDBRANCH   9  10
ENDBRANCH   8   9
ENDBRANCH   7   8
ENDBRANCH   1   7
BRANCH   4  17
HETATM   17  C   UNK N   1      26.869  19.019   4.945  0.00  0.00     0.058 A 
HETATM   18  C   UNK N   1      27.044  19.883   3.859  0.00  0.00     0.037 A 
HETATM   19  C   UNK N   1      25.926  20.364   3.181  0.00  0.00     0.078 A 
HETATM   20  C   UNK N   1      24.659  19.977   3.606  0.00  0.00     0.259 A 
HETATM   21  O   UNK N   1      23.668  20.387   3.031  0.00  0.00    -0.267 OA
HETATM   22  N   UNK N   1      24.533  19.131   4.674  0.00  0.00    -0.266 N 
HETATM   23  N   UNK N   1      25.606  18.667   5.317  0.00  0.00    -0.297 N 
HETATM   24  H   UNK N   1      23.635  18.861   4.973  0.00  0.00     0.190 HD
ATOM     25  HN  UNK N   1      25.478  18.034   6.107  1.00  0.00     0.187 HD
ENDBRANCH   4  17
TORSDOF 6
ENDMDL
MODEL 8
REMARK VINA RESULT:      -6.6      8.907     12.893
REMARK  6 active torsions:
REMARK  status: ('A' for Active; 'I' for Inactive)
REMARK    1  A    between atoms: N_6  and  C_7 
REMARK    2  A    between atoms: C_7  and  C_8 
REMARK    3  A    between atoms: C_8  and  C_9 
REMARK    4  A    between atoms: C_9  and  O_10 
REMARK    5  A    between atoms: O_10  and  C_11 
REMARK    6  A    between atoms: C_14  and  C_17 
ROOT
HETATM    1  C   UNK N   1      30.744  16.162   6.049  0.00  0.00     0.068 A 
HETATM    2  C   UNK N   1      31.351  14.932   6.327  0.00  0.00     0.037 A 
HETATM    3  C   UNK N   1      32.260  14.819   7.386  0.00  0.00     0.016 A 
HETATM    4  C   UNK N   1      32.558  15.935   8.186  0.00  0.00    -0.008 A 
HETATM    5  C   UNK N   1      31.944  17.161   7.906  0.00  0.00     0.016 A 
HETATM    6  C   UNK N   1      31.054  17.277   6.844  0.00  0.00     0.037 A 
ENDROOT
BRANCH   1   7
HETATM    7  O   UNK N   1      29.868  16.251   5.015  0.00  0.00    -0.351 OA
BRANCH   7   8
HETATM    8  C   UNK N   1      28.573  15.769   5.058  0.00  0.00     0.177 C 
BRANCH   8   9
HETATM    9  C   UNK N   1      27.562  16.864   5.361  0.00  0.00     0.057 C 
BRANCH   9  10
HETATM   10  C   UNK N   1      27.587  17.869   4.221  0.00  0.00     0.275 C 
BRANCH  10  11
HETATM   11  N   UNK N   1      27.742  19.230   4.723  0.00  0.00     0.092 N 
HETATM   12  C   UNK N   1      27.968  19.190   6.164  0.00  0.00     0.273 C 
HETATM   13  C   UNK N   1      27.294  20.410   6.764  0.00  0.00     0.032 C 
HETATM   14  C   UNK N   1      26.460  20.990   5.646  0.00  0.00     0.037 C 
HETATM   15  C   UNK N   1      26.461  19.905   4.599  0.00  0.00     0.219 C 
HETATM   16  C   UNK N   1      26.287  20.504   3.215  0.00  0.00     0.043 C 
ENDBRANCH  10  11
ENDBRANCH   9  10
ENDBRANCH   8   9
ENDBRANCH   7   8
ENDBRANCH   1   7
BRANCH   4  17
HETATM   17  C   UNK N   1      33.500  15.840   9.318  0.00  0.00     0.058 A 
HETATM   18  C   UNK N   1      33.746  14.618   9.953  0.00  0.00     0.037 A 
HETATM   19  C   UNK N   1      34.644  14.569  11.017  0.00  0.00     0.078 A 
HETATM   20  C   UNK N   1      35.270  15.742  11.428  0.00  0.00     0.259 A 
HETATM   21  O   UNK N   1      36.055  15.724  12.358  0.00  0.00    -0.267 OA
HETATM   22  N   UNK N   1      34.999  16.917  10.781  0.00  0.00    -0.266 N 
HETATM   23  N   UNK N   1      34.144  16.958   9.757  0.00  0.00    -0.297 N 
HETATM   24  H   UNK N   1      35.442  17.745  11.075  0.00  0.00     0.190 HD
ATOM     25  HN  UNK N   1      33.966  17.849   9.293  1.00  0.00     0.187 HD
ENDBRANCH   4  17
TORSDOF 6
ENDMDL
MODEL 9
REMARK VINA RESULT:      -6.6      1.605      2.356
REMARK  6 active torsions:
REMARK  status: ('A' for Active; 'I' for Inactive)
REMARK    1  A    between atoms: N_6  and  C_7 
REMARK    2  A    between atoms: C_7  and  C_8 
REMARK    3  A    between atoms: C_8  and  C_9 
REMARK    4  A    between atoms: C_9  and  O_10 
REMARK    5  A    between atoms: O_10  and  C_11 
REMARK    6  A    between atoms: C_14  and  C_17 
ROOT
HETATM    1  C   UNK N   1      21.525  14.558   5.447  0.00  0.00     0.068 A 
HETATM    2  C   UNK N   1      22.068  14.581   4.158  0.00  0.00     0.037 A 
HETATM    3  C   UNK N   1      21.961  15.732   3.368  0.00  0.00     0.016 A 
HETATM    4  C   UNK N   1      21.320  16.878   3.869  0.00  0.00    -0.008 A 
HETATM    5  C   UNK N   1      20.783  16.851   5.161  0.00  0.00     0.016 A 
HETATM    6  C   UNK N   1      20.875  15.702   5.940  0.00  0.00     0.037 A 
ENDROOT
BRANCH   1   7
HETATM    7  O   UNK N   1      21.636  13.431   6.196  0.00  0.00    -0.351 OA
BRANCH   7   8
HETATM    8  C   UNK N   1      22.744  12.604   6.184  0.00  0.00     0.177 C 
BRANCH   8   9
HETATM    9  C   UNK N   1      23.168  12.193   7.587  0.00  0.00     0.057 C 
BRANCH   9  10
HETATM   10  C   UNK N   1      23.637  13.434   8.329  0.00  0.00     0.275 C 
BRANCH  10  11
HETATM   11  N   UNK N   1      23.273  13.371   9.740  0.00  0.00     0.092 N 
HETATM   12  C   UNK N   1      24.054  12.326  10.393  0.00  0.00     0.273 C 
HETATM   13  C   UNK N   1      23.171  11.694  11.453  0.00  0.00     0.032 C 
HETATM   14  C   UNK N   1      21.787  12.240  11.191  0.00  0.00     0.037 C 
HETATM   15  C   UNK N   1      21.907  12.883   9.832  0.00  0.00     0.219 C 
HETATM   16  C   UNK N   1      20.907  14.016   9.692  0.00  0.00     0.043 C 
ENDBRANCH  10  11
ENDBRANCH   9  10
ENDBRANCH   8   9
ENDBRANCH   7   8
ENDBRANCH   1   7
BRANCH   4  17
HETATM   17  C   UNK N   1      21.207  18.109   3.064  0.00  0.00     0.058 A 
HETATM   18  C   UNK N   1      21.889  19.276   3.427  0.00  0.00     0.037 A 
HETATM   19  C   UNK N   1      21.757  20.417   2.641  0.00  0.00     0.078 A 
HETATM   20  C   UNK N   1      20.943  20.372   1.513  0.00  0.00     0.259 A 
HETATM   21  O   UNK N   1      20.811  21.358   0.813  0.00  0.00    -0.267 OA
HETATM   22  N   UNK N   1      20.292  19.211   1.195  0.00  0.00    -0.266 N 
HETATM   23  N   UNK N   1      20.426  18.117   1.947  0.00  0.00    -0.297 N 
HETATM   24  H   UNK N   1      19.716  19.182   0.398  0.00  0.00     0.190 HD
ATOM     25  HN  UNK N   1      19.931  17.266   1.681  1.00  0.00     0.187 HD
ENDBRANCH   4  17
TORSDOF 6
ENDMDL
