REMARK  14 active torsions:
REMARK  status: ('A' for Active; 'I' for Inactive)
REMARK    1  A    between atoms: C_2  and  C_3 
REMARK    2  A    between atoms: C_3  and  C_4 
REMARK    3  A    between atoms: C_4  and  C_5 
REMARK    4  A    between atoms: C_5  and  C_6 
REMARK    5  A    between atoms: C_6  and  C_7 
REMARK    6  A    between atoms: C_6  and  O_33 
REMARK    7  A    between atoms: C_10  and  N_13 
REMARK    8  A    between atoms: C_14  and  C_19 
REMARK    9  A    between atoms: C_19  and  O_20 
REMARK   10  A    between atoms: O_20  and  C_21 
REMARK   11  A    between atoms: C_21  and  C_22 
REMARK   12  A    between atoms: C_25  and  C_27 
REMARK   13  A    between atoms: C_27  and  O_29 
REMARK   14  A    between atoms: O_29  and  C_30 
ROOT
HETATM    1  N   UNK N   1       7.862  -5.945  -0.439  0.00  0.00    -0.311 N 
HETATM    2  C   UNK N   1       8.299  -5.580   0.900  0.00  0.00     0.117 A 
HETATM    3  C   UNK N   1       9.350  -6.629   1.272  0.00  0.00     0.037 A 
HETATM    4  C   UNK N   1       9.454  -7.607   0.087  0.00  0.00     0.105 A 
HETATM    5  C   UNK N   1       8.436  -7.083  -0.840  0.00  0.00     0.224 A 
HETATM    6  O   UNK N   1       8.074  -7.685  -1.848  0.00  0.00    -0.273 OA
ENDROOT
BRANCH   1   7
HETATM    7  C   UNK N   1       6.630  -5.451  -0.908  0.00  0.00     0.037 C 
HETATM    8  C   UNK N   1       6.630  -4.127  -1.360  0.00  0.00     0.030 C 
HETATM    9  C   UNK N   1       5.685  -3.218  -0.893  0.00  0.00     0.012 C 
HETATM   10  C   UNK N   1       4.713  -3.640   0.018  0.00  0.00    -0.029 C 
HETATM   11  C   UNK N   1       4.585  -4.997   0.307  0.00  0.00     0.012 C 
HETATM   12  C   UNK N   1       5.532  -5.894  -0.160  0.00  0.00     0.030 C 
BRANCH  10  13
HETATM   13  C   UNK N   1       3.993  -2.644   0.883  0.00  0.00     0.151 C 
BRANCH  13  14
HETATM   14  C   UNK N   1       2.492  -2.627   0.722  0.00  0.00     0.036 C 
BRANCH  14  15
HETATM   15  C   UNK N   1       1.882  -3.941   1.173  0.00  0.00     0.003 C 
BRANCH  15  16
HETATM   16  C   UNK N   1       1.204  -4.605  -0.007  0.00  0.00    -0.000 C 
BRANCH  16  17
HETATM   17  C   UNK N   1      -0.032  -3.813  -0.384  0.00  0.00    -0.005 C 
HETATM   18  C   UNK N   1      -0.731  -4.485  -1.541  0.00  0.00     0.005 C 
ENDBRANCH  16  17
ENDBRANCH  15  16
ENDBRANCH  14  15
ENDBRANCH  13  14
BRANCH  13  19
HETATM   19  O   UNK N   1       4.514  -1.356   0.737  0.00  0.00    -0.391 OA
HETATM   20  H   UNK N   1       5.470  -1.223   0.636  0.00  0.00     0.210 HD
ENDBRANCH  13  19
ENDBRANCH  10  13
ENDBRANCH   1   7
BRANCH   2  21
HETATM   21  C   UNK N   1       8.914  -4.186   1.119  0.00  0.00     0.193 C 
BRANCH  21  22
HETATM   22  O   UNK N   1       8.470  -3.123   0.314  0.00  0.00    -0.384 OA
BRANCH  22  23
HETATM   23  C   UNK N   1       9.337  -2.954  -0.798  0.00  0.00     0.213 C 
BRANCH  23  24
HETATM   24  C   UNK N   1      10.805  -3.128  -0.526  0.00  0.00     0.007 A 
HETATM   25  C   UNK N   1      11.791  -2.143  -0.585  0.00  0.00     0.018 A 
HETATM   26  C   UNK N   1      13.099  -2.670  -0.374  0.00  0.00     0.026 A 
HETATM   27  C   UNK N   1      13.102  -4.051  -0.144  0.00  0.00     0.080 A 
HETATM   28  S   UNK N   1      11.553  -4.573  -0.219  0.00  0.00    -0.086 SA
BRANCH  27  29
HETATM   29  C   UNK N   1      14.278  -4.901   0.005  0.00  0.00     0.300 C 
HETATM   30  O   UNK N   1      14.166  -6.062   0.373  0.00  0.00    -0.259 OA
BRANCH  29  31
HETATM   31  O   UNK N   1      15.461  -4.438  -0.437  0.00  0.00    -0.312 OA
BRANCH  31  32
HETATM   32  C   UNK N   1      16.460  -4.049   0.408  0.00  0.00     0.124 C 
HETATM   33  C   UNK N   1      16.756  -2.588   0.132  0.00  0.00     0.040 C 
HETATM   34  C   UNK N   1      17.699  -4.864   0.110  0.00  0.00     0.040 C 
ENDBRANCH  31  32
ENDBRANCH  29  31
ENDBRANCH  27  29
ENDBRANCH  23  24
ENDBRANCH  22  23
ENDBRANCH  21  22
ENDBRANCH   2  21
TORSDOF 14
