MODEL 1
REMARK VINA RESULT:      -6.4      0.000      0.000
REMARK  14 active torsions:
REMARK  status: ('A' for Active; 'I' for Inactive)
REMARK    1  A    between atoms: C_13  and  C_9 
REMARK    2  A    between atoms: C_14  and  C_9 
REMARK    3  A    between atoms: C_15  and  C_12 
REMARK    4  A    between atoms: C_21  and  C_12 
REMARK    5  A    between atoms: C_28  and  C_13 
REMARK    6  A    between atoms: N_30  and  C_14 
REMARK    7  A    between atoms: N_30  and  C_15 
REMARK    8  A    between atoms: C_28  and  C_20 
REMARK    9  A    between atoms: C_28  and  C_22 
REMARK   10  A    between atoms: O_31  and  C_23 
REMARK   11  A    between atoms: O_32  and  C_24 
REMARK   12  A    between atoms: O_33  and  C_25 
REMARK   13  A    between atoms: O_34  and  C_26 
REMARK   14  A    between atoms: O_35  and  C_27 
ROOT
HETATM    1  C   UNK N   1      29.977  23.387  -2.651  0.00  0.00     0.074 C 
HETATM    2  C   UNK N   1      29.949  23.786  -4.076  0.00  0.00     0.079 C 
HETATM    3  N   UNK N   1      29.978  23.063  -1.538  0.00  0.00    -0.196 NA
ENDROOT
BRANCH   2   4
HETATM    4  C   UNK N   1      28.660  24.564  -4.401  0.00  0.00     0.032 C 
BRANCH   4   5
HETATM    5  C   UNK N   1      27.474  24.222  -3.490  0.00  0.00     0.032 C 
BRANCH   5   6
HETATM    6  C   UNK N   1      26.130  24.268  -4.233  0.00  0.00     0.272 C 
BRANCH   6   7
HETATM    7  N   UNK N   1      26.316  24.322  -5.687  0.00  0.00     0.084 N 
HETATM    8  C   UNK N   1      25.806  23.078  -6.236  0.00  0.00     0.309 C 
BRANCH   7   9
HETATM    9  C   UNK N   1      25.622  25.415  -6.386  0.00  0.00     0.276 C 
BRANCH   9  10
HETATM   10  C   UNK N   1      25.085  26.564  -5.517  0.00  0.00     0.068 C 
BRANCH  10  11
HETATM   11  C   UNK N   1      26.069  27.687  -5.468  0.00  0.00    -0.054 A 
HETATM   12  C   UNK N   1      26.983  27.881  -6.507  0.00  0.00     0.010 A 
HETATM   13  C   UNK N   1      27.902  28.929  -6.437  0.00  0.00     0.040 A 
HETATM   14  C   UNK N   1      27.925  29.792  -5.323  0.00  0.00     0.101 A 
HETATM   15  C   UNK N   1      27.001  29.578  -4.264  0.00  0.00     0.102 A 
HETATM   16  C   UNK N   1      26.086  28.532  -4.361  0.00  0.00     0.046 A 
BRANCH  14  17
HETATM   17  O   UNK N   1      28.806  30.821  -5.266  0.00  0.00    -0.353 OA
HETATM   18  C   UNK N   1      30.160  30.678  -5.478  0.00  0.00     0.210 C 
ENDBRANCH  14  17
BRANCH  15  19
HETATM   19  O   UNK N   1      26.946  30.343  -3.143  0.00  0.00    -0.353 OA
HETATM   20  C   UNK N   1      27.745  30.197  -2.035  0.00  0.00     0.210 C 
ENDBRANCH  15  19
ENDBRANCH  10  11
ENDBRANCH   9  10
ENDBRANCH   7   9
ENDBRANCH   6   7
ENDBRANCH   5   6
ENDBRANCH   4   5
ENDBRANCH   2   4
BRANCH   2  21
HETATM   21  C   UNK N   1      31.210  24.655  -4.374  0.00  0.00     0.004 C 
HETATM   22  C   UNK N   1      31.213  26.019  -3.690  0.00  0.00     0.011 C 
HETATM   23  C   UNK N   1      31.458  24.851  -5.865  0.00  0.00     0.011 C 
ENDBRANCH   2  21
BRANCH   2  24
HETATM   24  C   UNK N   1      29.969  22.452  -4.805  0.00  0.00    -0.030 A 
HETATM   25  C   UNK N   1      29.225  22.274  -5.968  0.00  0.00     0.048 A 
HETATM   26  C   UNK N   1      29.476  21.206  -6.837  0.00  0.00     0.104 A 
HETATM   27  C   UNK N   1      30.533  20.295  -6.540  0.00  0.00     0.135 A 
HETATM   28  C   UNK N   1      31.248  20.440  -5.314  0.00  0.00     0.104 A 
HETATM   29  C   UNK N   1      30.945  21.506  -4.468  0.00  0.00     0.048 A 
BRANCH  26  30
HETATM   30  O   UNK N   1      28.737  21.072  -7.967  0.00  0.00    -0.353 OA
HETATM   31  C   UNK N   1      28.935  21.845  -9.093  0.00  0.00     0.210 C 
ENDBRANCH  26  30
BRANCH  27  32
HETATM   32  O   UNK N   1      30.890  19.301  -7.398  0.00  0.00    -0.351 OA
HETATM   33  C   UNK N   1      31.823  19.418  -8.403  0.00  0.00     0.210 C 
ENDBRANCH  27  32
BRANCH  28  34
HETATM   34  O   UNK N   1      32.278  19.633  -4.944  0.00  0.00    -0.353 OA
HETATM   35  C   UNK N   1      33.401  20.035  -4.257  0.00  0.00     0.210 C 
ENDBRANCH  28  34
ENDBRANCH   2  24
TORSDOF 14
ENDMDL
MODEL 2
REMARK VINA RESULT:      -6.3      0.561      2.206
REMARK  14 active torsions:
REMARK  status: ('A' for Active; 'I' for Inactive)
REMARK    1  A    between atoms: C_13  and  C_9 
REMARK    2  A    between atoms: C_14  and  C_9 
REMARK    3  A    between atoms: C_15  and  C_12 
REMARK    4  A    between atoms: C_21  and  C_12 
REMARK    5  A    between atoms: C_28  and  C_13 
REMARK    6  A    between atoms: N_30  and  C_14 
REMARK    7  A    between atoms: N_30  and  C_15 
REMARK    8  A    between atoms: C_28  and  C_20 
REMARK    9  A    between atoms: C_28  and  C_22 
REMARK   10  A    between atoms: O_31  and  C_23 
REMARK   11  A    between atoms: O_32  and  C_24 
REMARK   12  A    between atoms: O_33  and  C_25 
REMARK   13  A    between atoms: O_34  and  C_26 
REMARK   14  A    between atoms: O_35  and  C_27 
ROOT
HETATM    1  C   UNK N   1      30.033  23.573  -2.532  0.00  0.00     0.074 C 
HETATM    2  C   UNK N   1      30.023  24.258  -3.844  0.00  0.00     0.079 C 
HETATM    3  N   UNK N   1      30.021  23.023  -1.512  0.00  0.00    -0.196 NA
ENDROOT
BRANCH   2   4
HETATM    4  C   UNK N   1      28.651  24.904  -4.114  0.00  0.00     0.032 C 
BRANCH   4   5
HETATM    5  C   UNK N   1      27.477  24.196  -3.425  0.00  0.00     0.032 C 
BRANCH   5   6
HETATM    6  C   UNK N   1      26.149  24.402  -4.169  0.00  0.00     0.272 C 
BRANCH   6   7
HETATM    7  N   UNK N   1      26.342  24.444  -5.622  0.00  0.00     0.084 N 
HETATM    8  C   UNK N   1      25.862  23.184  -6.161  0.00  0.00     0.309 C 
BRANCH   7   9
HETATM    9  C   UNK N   1      25.629  25.515  -6.337  0.00  0.00     0.276 C 
BRANCH   9  10
HETATM   10  C   UNK N   1      25.092  26.678  -5.487  0.00  0.00     0.068 C 
BRANCH  10  11
HETATM   11  C   UNK N   1      26.124  27.749  -5.354  0.00  0.00    -0.054 A 
HETATM   12  C   UNK N   1      27.024  28.006  -6.391  0.00  0.00     0.010 A 
HETATM   13  C   UNK N   1      27.988  29.004  -6.243  0.00  0.00     0.040 A 
HETATM   14  C   UNK N   1      28.071  29.753  -5.052  0.00  0.00     0.101 A 
HETATM   15  C   UNK N   1      27.161  29.474  -3.996  0.00  0.00     0.102 A 
HETATM   16  C   UNK N   1      26.200  28.481  -4.171  0.00  0.00     0.046 A 
BRANCH  14  17
HETATM   17  O   UNK N   1      28.997  30.734  -4.917  0.00  0.00    -0.353 OA
HETATM   18  C   UNK N   1      30.331  30.571  -5.219  0.00  0.00     0.210 C 
ENDBRANCH  14  17
BRANCH  15  19
HETATM   19  O   UNK N   1      27.162  30.128  -2.805  0.00  0.00    -0.353 OA
HETATM   20  C   UNK N   1      28.002  29.867  -1.750  0.00  0.00     0.210 C 
ENDBRANCH  15  19
ENDBRANCH  10  11
ENDBRANCH   9  10
ENDBRANCH   7   9
ENDBRANCH   6   7
ENDBRANCH   5   6
ENDBRANCH   4   5
ENDBRANCH   2   4
BRANCH   2  21
HETATM   21  C   UNK N   1      31.153  25.334  -3.852  0.00  0.00     0.004 C 
HETATM   22  C   UNK N   1      30.660  26.767  -3.684  0.00  0.00     0.011 C 
HETATM   23  C   UNK N   1      32.036  25.258  -5.091  0.00  0.00     0.011 C 
ENDBRANCH   2  21
BRANCH   2  24
HETATM   24  C   UNK N   1      30.284  23.124  -4.823  0.00  0.00    -0.030 A 
HETATM   25  C   UNK N   1      31.006  22.002  -4.424  0.00  0.00     0.048 A 
HETATM   26  C   UNK N   1      30.976  20.815  -5.166  0.00  0.00     0.104 A 
HETATM   27  C   UNK N   1      30.170  20.744  -6.341  0.00  0.00     0.135 A 
HETATM   28  C   UNK N   1      29.487  21.915  -6.784  0.00  0.00     0.104 A 
HETATM   29  C   UNK N   1      29.566  23.082  -6.024  0.00  0.00     0.048 A 
BRANCH  26  30
HETATM   30  O   UNK N   1      31.683  19.739  -4.738  0.00  0.00    -0.353 OA
HETATM   31  C   UNK N   1      33.059  19.729  -4.644  0.00  0.00     0.210 C 
ENDBRANCH  26  30
BRANCH  27  32
HETATM   32  O   UNK N   1      30.020  19.588  -7.043  0.00  0.00    -0.351 OA
HETATM   33  C   UNK N   1      30.791  19.208  -8.118  0.00  0.00     0.210 C 
ENDBRANCH  27  32
BRANCH  28  34
HETATM   34  O   UNK N   1      28.686  21.949  -7.882  0.00  0.00    -0.353 OA
HETATM   35  C   UNK N   1      29.017  22.509  -9.096  0.00  0.00     0.210 C 
ENDBRANCH  28  34
ENDBRANCH   2  24
TORSDOF 14
ENDMDL
MODEL 3
REMARK VINA RESULT:      -6.2      2.867      4.300
REMARK  14 active torsions:
REMARK  status: ('A' for Active; 'I' for Inactive)
REMARK    1  A    between atoms: C_13  and  C_9 
REMARK    2  A    between atoms: C_14  and  C_9 
REMARK    3  A    between atoms: C_15  and  C_12 
REMARK    4  A    between atoms: C_21  and  C_12 
REMARK    5  A    between atoms: C_28  and  C_13 
REMARK    6  A    between atoms: N_30  and  C_14 
REMARK    7  A    between atoms: N_30  and  C_15 
REMARK    8  A    between atoms: C_28  and  C_20 
REMARK    9  A    between atoms: C_28  and  C_22 
REMARK   10  A    between atoms: O_31  and  C_23 
REMARK   11  A    between atoms: O_32  and  C_24 
REMARK   12  A    between atoms: O_33  and  C_25 
REMARK   13  A    between atoms: O_34  and  C_26 
REMARK   14  A    between atoms: O_35  and  C_27 
ROOT
HETATM    1  C   UNK N   1      30.268  23.320  -2.809  0.00  0.00     0.074 C 
HETATM    2  C   UNK N   1      30.076  23.507  -4.264  0.00  0.00     0.079 C 
HETATM    3  N   UNK N   1      30.404  23.154  -1.669  0.00  0.00    -0.196 NA
ENDROOT
BRANCH   2   4
HETATM    4  C   UNK N   1      28.582  23.668  -4.603  0.00  0.00     0.032 C 
BRANCH   4   5
HETATM    5  C   UNK N   1      27.778  24.434  -3.544  0.00  0.00     0.032 C 
BRANCH   5   6
HETATM    6  C   UNK N   1      26.336  24.717  -3.994  0.00  0.00     0.272 C 
BRANCH   6   7
HETATM    7  N   UNK N   1      26.078  26.156  -4.117  0.00  0.00     0.084 N 
HETATM    8  C   UNK N   1      27.322  26.846  -3.825  0.00  0.00     0.309 C 
BRANCH   7   9
HETATM    9  C   UNK N   1      25.631  26.620  -5.441  0.00  0.00     0.276 C 
BRANCH   9  10
HETATM   10  C   UNK N   1      26.719  26.829  -6.506  0.00  0.00     0.068 C 
BRANCH  10  11
HETATM   11  C   UNK N   1      26.448  25.980  -7.705  0.00  0.00    -0.054 A 
HETATM   12  C   UNK N   1      26.992  26.308  -8.949  0.00  0.00     0.010 A 
HETATM   13  C   UNK N   1      26.719  25.508 -10.059  0.00  0.00     0.040 A 
HETATM   14  C   UNK N   1      25.890  24.374  -9.942  0.00  0.00     0.101 A 
HETATM   15  C   UNK N   1      25.329  24.057  -8.675  0.00  0.00     0.102 A 
HETATM   16  C   UNK N   1      25.625  24.864  -7.579  0.00  0.00     0.046 A 
BRANCH  14  17
HETATM   17  O   UNK N   1      25.641  23.588 -11.019  0.00  0.00    -0.353 OA
HETATM   18  C   UNK N   1      26.593  22.799 -11.624  0.00  0.00     0.210 C 
ENDBRANCH  14  17
BRANCH  15  19
HETATM   19  O   UNK N   1      24.510  22.996  -8.456  0.00  0.00    -0.353 OA
HETATM   20  C   UNK N   1      24.899  21.768  -7.980  0.00  0.00     0.210 C 
ENDBRANCH  15  19
ENDBRANCH  10  11
ENDBRANCH   9  10
ENDBRANCH   7   9
ENDBRANCH   6   7
ENDBRANCH   5   6
ENDBRANCH   4   5
ENDBRANCH   2   4
BRANCH   2  21
HETATM   21  C   UNK N   1      30.885  24.761  -4.716  0.00  0.00     0.004 C 
HETATM   22  C   UNK N   1      30.987  25.859  -3.661  0.00  0.00     0.011 C 
HETATM   23  C   UNK N   1      30.363  25.370  -6.011  0.00  0.00     0.011 C 
ENDBRANCH   2  21
BRANCH   2  24
HETATM   24  C   UNK N   1      30.622  22.214  -4.849  0.00  0.00    -0.030 A 
HETATM   25  C   UNK N   1      29.848  21.454  -5.724  0.00  0.00     0.048 A 
HETATM   26  C   UNK N   1      30.420  20.466  -6.532  0.00  0.00     0.104 A 
HETATM   27  C   UNK N   1      31.830  20.248  -6.481  0.00  0.00     0.135 A 
HETATM   28  C   UNK N   1      32.608  20.979  -5.536  0.00  0.00     0.104 A 
HETATM   29  C   UNK N   1      31.989  21.937  -4.734  0.00  0.00     0.048 A 
BRANCH  26  30
HETATM   30  O   UNK N   1      29.635  19.755  -7.381  0.00  0.00    -0.353 OA
HETATM   31  C   UNK N   1      28.690  20.337  -8.200  0.00  0.00     0.210 C 
ENDBRANCH  26  30
BRANCH  27  32
HETATM   32  O   UNK N   1      32.455  19.376  -7.317  0.00  0.00    -0.351 OA
HETATM   33  C   UNK N   1      32.975  19.695  -8.551  0.00  0.00     0.210 C 
ENDBRANCH  27  32
BRANCH  28  34
HETATM   34  O   UNK N   1      33.958  20.854  -5.415  0.00  0.00    -0.353 OA
HETATM   35  C   UNK N   1      34.629  20.518  -4.262  0.00  0.00     0.210 C 
ENDBRANCH  28  34
ENDBRANCH   2  24
TORSDOF 14
ENDMDL
MODEL 4
REMARK VINA RESULT:      -6.0      3.139      5.247
REMARK  14 active torsions:
REMARK  status: ('A' for Active; 'I' for Inactive)
REMARK    1  A    between atoms: C_13  and  C_9 
REMARK    2  A    between atoms: C_14  and  C_9 
REMARK    3  A    between atoms: C_15  and  C_12 
REMARK    4  A    between atoms: C_21  and  C_12 
REMARK    5  A    between atoms: C_28  and  C_13 
REMARK    6  A    between atoms: N_30  and  C_14 
REMARK    7  A    between atoms: N_30  and  C_15 
REMARK    8  A    between atoms: C_28  and  C_20 
REMARK    9  A    between atoms: C_28  and  C_22 
REMARK   10  A    between atoms: O_31  and  C_23 
REMARK   11  A    between atoms: O_32  and  C_24 
REMARK   12  A    between atoms: O_33  and  C_25 
REMARK   13  A    between atoms: O_34  and  C_26 
REMARK   14  A    between atoms: O_35  and  C_27 
ROOT
HETATM    1  C   UNK N   1      31.615  27.751  -4.633  0.00  0.00     0.074 C 
HETATM    2  C   UNK N   1      30.635  26.709  -5.015  0.00  0.00     0.079 C 
HETATM    3  N   UNK N   1      32.377  28.563  -4.311  0.00  0.00    -0.196 NA
ENDROOT
BRANCH   2   4
HETATM    4  C   UNK N   1      29.254  27.005  -4.400  0.00  0.00     0.032 C 
BRANCH   4   5
HETATM    5  C   UNK N   1      28.963  28.497  -4.197  0.00  0.00     0.032 C 
BRANCH   5   6
HETATM    6  C   UNK N   1      28.207  28.776  -2.889  0.00  0.00     0.272 C 
BRANCH   6   7
HETATM    7  N   UNK N   1      26.797  29.097  -3.135  0.00  0.00     0.084 N 
HETATM    8  C   UNK N   1      26.746  29.959  -4.302  0.00  0.00     0.309 C 
BRANCH   7   9
HETATM    9  C   UNK N   1      25.913  27.952  -3.408  0.00  0.00     0.276 C 
BRANCH   9  10
HETATM   10  C   UNK N   1      25.344  27.840  -4.831  0.00  0.00     0.068 C 
BRANCH  10  11
HETATM   11  C   UNK N   1      25.594  26.478  -5.390  0.00  0.00    -0.054 A 
HETATM   12  C   UNK N   1      25.933  25.414  -4.550  0.00  0.00     0.010 A 
HETATM   13  C   UNK N   1      26.173  24.151  -5.092  0.00  0.00     0.040 A 
HETATM   14  C   UNK N   1      26.087  23.936  -6.483  0.00  0.00     0.101 A 
HETATM   15  C   UNK N   1      25.757  25.028  -7.331  0.00  0.00     0.102 A 
HETATM   16  C   UNK N   1      25.509  26.278  -6.765  0.00  0.00     0.046 A 
BRANCH  14  17
HETATM   17  O   UNK N   1      26.304  22.704  -7.005  0.00  0.00    -0.353 OA
HETATM   18  C   UNK N   1      25.294  21.837  -7.359  0.00  0.00     0.210 C 
ENDBRANCH  14  17
BRANCH  15  19
HETATM   19  O   UNK N   1      25.659  24.933  -8.682  0.00  0.00    -0.353 OA
HETATM   20  C   UNK N   1      25.822  25.967  -9.572  0.00  0.00     0.210 C 
ENDBRANCH  15  19
ENDBRANCH  10  11
ENDBRANCH   9  10
ENDBRANCH   7   9
ENDBRANCH   6   7
ENDBRANCH   5   6
ENDBRANCH   4   5
ENDBRANCH   2   4
BRANCH   2  21
HETATM   21  C   UNK N   1      30.548  26.655  -6.572  0.00  0.00     0.004 C 
HETATM   22  C   UNK N   1      30.768  27.997  -7.263  0.00  0.00     0.011 C 
HETATM   23  C   UNK N   1      29.242  26.051  -7.073  0.00  0.00     0.011 C 
ENDBRANCH   2  21
BRANCH   2  24
HETATM   24  C   UNK N   1      31.230  25.445  -4.416  0.00  0.00    -0.030 A 
HETATM   25  C   UNK N   1      30.650  24.856  -3.295  0.00  0.00     0.048 A 
HETATM   26  C   UNK N   1      30.949  23.540  -2.927  0.00  0.00     0.104 A 
HETATM   27  C   UNK N   1      31.847  22.775  -3.729  0.00  0.00     0.135 A 
HETATM   28  C   UNK N   1      32.492  23.402  -4.836  0.00  0.00     0.104 A 
HETATM   29  C   UNK N   1      32.180  24.724  -5.150  0.00  0.00     0.048 A 
BRANCH  26  30
HETATM   30  O   UNK N   1      30.354  22.997  -1.835  0.00  0.00    -0.353 OA
HETATM   31  C   UNK N   1      28.984  22.932  -1.676  0.00  0.00     0.210 C 
ENDBRANCH  26  30
BRANCH  27  32
HETATM   32  O   UNK N   1      32.095  21.460  -3.480  0.00  0.00    -0.351 OA
HETATM   33  C   UNK N   1      31.485  20.404  -4.118  0.00  0.00     0.210 C 
ENDBRANCH  27  32
BRANCH  28  34
HETATM   34  O   UNK N   1      33.354  22.759  -5.668  0.00  0.00    -0.353 OA
HETATM   35  C   UNK N   1      33.194  22.612  -7.027  0.00  0.00     0.210 C 
ENDBRANCH  28  34
ENDBRANCH   2  24
TORSDOF 14
ENDMDL
MODEL 5
REMARK VINA RESULT:      -6.0     13.212     16.150
REMARK  14 active torsions:
REMARK  status: ('A' for Active; 'I' for Inactive)
REMARK    1  A    between atoms: C_13  and  C_9 
REMARK    2  A    between atoms: C_14  and  C_9 
REMARK    3  A    between atoms: C_15  and  C_12 
REMARK    4  A    between atoms: C_21  and  C_12 
REMARK    5  A    between atoms: C_28  and  C_13 
REMARK    6  A    between atoms: N_30  and  C_14 
REMARK    7  A    between atoms: N_30  and  C_15 
REMARK    8  A    between atoms: C_28  and  C_20 
REMARK    9  A    between atoms: C_28  and  C_22 
REMARK   10  A    between atoms: O_31  and  C_23 
REMARK   11  A    between atoms: O_32  and  C_24 
REMARK   12  A    between atoms: O_33  and  C_25 
REMARK   13  A    between atoms: O_34  and  C_26 
REMARK   14  A    between atoms: O_35  and  C_27 
ROOT
HETATM    1  C   UNK N   1      23.152  15.919   4.226  0.00  0.00     0.074 C 
HETATM    2  C   UNK N   1      22.107  16.942   4.451  0.00  0.00     0.079 C 
HETATM    3  N   UNK N   1      23.979  15.120   4.074  0.00  0.00    -0.196 NA
ENDROOT
BRANCH   2   4
HETATM    4  C   UNK N   1      22.728  18.259   4.952  0.00  0.00     0.032 C 
BRANCH   4   5
HETATM    5  C   UNK N   1      23.929  18.741   4.127  0.00  0.00     0.032 C 
BRANCH   5   6
HETATM    6  C   UNK N   1      25.199  18.902   4.977  0.00  0.00     0.272 C 
BRANCH   6   7
HETATM    7  N   UNK N   1      26.047  19.993   4.484  0.00  0.00     0.084 N 
HETATM    8  C   UNK N   1      26.268  20.905   5.592  0.00  0.00     0.309 C 
BRANCH   7   9
HETATM    9  C   UNK N   1      27.373  19.601   3.979  0.00  0.00     0.276 C 
BRANCH   9  10
HETATM   10  C   UNK N   1      27.710  18.102   4.006  0.00  0.00     0.068 C 
BRANCH  10  11
HETATM   11  C   UNK N   1      28.765  17.820   5.025  0.00  0.00    -0.054 A 
HETATM   12  C   UNK N   1      29.993  17.271   4.648  0.00  0.00     0.010 A 
HETATM   13  C   UNK N   1      30.962  17.005   5.617  0.00  0.00     0.040 A 
HETATM   14  C   UNK N   1      30.712  17.278   6.978  0.00  0.00     0.101 A 
HETATM   15  C   UNK N   1      29.454  17.823   7.353  0.00  0.00     0.102 A 
HETATM   16  C   UNK N   1      28.507  18.090   6.367  0.00  0.00     0.046 A 
BRANCH  14  17
HETATM   17  O   UNK N   1      31.662  17.035   7.915  0.00  0.00    -0.353 OA
HETATM   18  C   UNK N   1      31.886  15.795   8.471  0.00  0.00     0.210 C 
ENDBRANCH  14  17
BRANCH  15  19
HETATM   19  O   UNK N   1      29.108  18.110   8.635  0.00  0.00    -0.353 OA
HETATM   20  C   UNK N   1      28.218  17.400   9.403  0.00  0.00     0.210 C 
ENDBRANCH  15  19
ENDBRANCH  10  11
ENDBRANCH   9  10
ENDBRANCH   7   9
ENDBRANCH   6   7
ENDBRANCH   5   6
ENDBRANCH   4   5
ENDBRANCH   2   4
BRANCH   2  21
HETATM   21  C   UNK N   1      21.335  17.167   3.114  0.00  0.00     0.004 C 
HETATM   22  C   UNK N   1      19.972  17.832   3.277  0.00  0.00     0.011 C 
HETATM   23  C   UNK N   1      21.166  15.887   2.304  0.00  0.00     0.011 C 
ENDBRANCH   2  21
BRANCH   2  24
HETATM   24  C   UNK N   1      21.241  16.314   5.531  0.00  0.00    -0.030 A 
HETATM   25  C   UNK N   1      20.940  14.954   5.490  0.00  0.00     0.048 A 
HETATM   26  C   UNK N   1      20.448  14.283   6.615  0.00  0.00     0.104 A 
HETATM   27  C   UNK N   1      20.275  14.998   7.838  0.00  0.00     0.135 A 
HETATM   28  C   UNK N   1      20.518  16.403   7.858  0.00  0.00     0.104 A 
HETATM   29  C   UNK N   1      20.985  17.033   6.704  0.00  0.00     0.048 A 
BRANCH  26  30
HETATM   30  O   UNK N   1      20.178  12.955   6.539  0.00  0.00    -0.353 OA
HETATM   31  C   UNK N   1      21.159  11.985   6.537  0.00  0.00     0.210 C 
ENDBRANCH  26  30
BRANCH  27  32
HETATM   32  O   UNK N   1      19.899  14.377   8.988  0.00  0.00    -0.351 OA
HETATM   33  C   UNK N   1      20.759  13.781   9.884  0.00  0.00     0.210 C 
ENDBRANCH  27  32
BRANCH  28  34
HETATM   34  O   UNK N   1      20.394  17.172   8.972  0.00  0.00    -0.353 OA
HETATM   35  C   UNK N   1      19.504  18.210   9.132  0.00  0.00     0.210 C 
ENDBRANCH  28  34
ENDBRANCH   2  24
TORSDOF 14
ENDMDL
MODEL 6
REMARK VINA RESULT:      -5.9      2.664      4.734
REMARK  14 active torsions:
REMARK  status: ('A' for Active; 'I' for Inactive)
REMARK    1  A    between atoms: C_13  and  C_9 
REMARK    2  A    between atoms: C_14  and  C_9 
REMARK    3  A    between atoms: C_15  and  C_12 
REMARK    4  A    between atoms: C_21  and  C_12 
REMARK    5  A    between atoms: C_28  and  C_13 
REMARK    6  A    between atoms: N_30  and  C_14 
REMARK    7  A    between atoms: N_30  and  C_15 
REMARK    8  A    between atoms: C_28  and  C_20 
REMARK    9  A    between atoms: C_28  and  C_22 
REMARK   10  A    between atoms: O_31  and  C_23 
REMARK   11  A    between atoms: O_32  and  C_24 
REMARK   12  A    between atoms: O_33  and  C_25 
REMARK   13  A    between atoms: O_34  and  C_26 
REMARK   14  A    between atoms: O_35  and  C_27 
ROOT
HETATM    1  C   UNK N   1      29.973  23.511  -2.809  0.00  0.00     0.074 C 
HETATM    2  C   UNK N   1      29.377  23.979  -4.081  0.00  0.00     0.079 C 
HETATM    3  N   UNK N   1      30.427  23.125  -1.815  0.00  0.00    -0.196 NA
ENDROOT
BRANCH   2   4
HETATM    4  C   UNK N   1      27.839  23.954  -4.007  0.00  0.00     0.032 C 
BRANCH   4   5
HETATM    5  C   UNK N   1      27.217  25.239  -3.446  0.00  0.00     0.032 C 
BRANCH   5   6
HETATM    6  C   UNK N   1      25.871  25.577  -4.107  0.00  0.00     0.272 C 
BRANCH   6   7
HETATM    7  N   UNK N   1      25.772  27.002  -4.437  0.00  0.00     0.084 N 
HETATM    8  C   UNK N   1      27.029  27.624  -4.061  0.00  0.00     0.309 C 
BRANCH   7   9
HETATM    9  C   UNK N   1      25.544  27.321  -5.856  0.00  0.00     0.276 C 
BRANCH   9  10
HETATM   10  C   UNK N   1      26.752  27.196  -6.798  0.00  0.00     0.068 C 
BRANCH  10  11
HETATM   11  C   UNK N   1      26.490  26.171  -7.852  0.00  0.00    -0.054 A 
HETATM   12  C   UNK N   1      26.884  26.391  -9.174  0.00  0.00     0.010 A 
HETATM   13  C   UNK N   1      26.620  25.426 -10.147  0.00  0.00     0.040 A 
HETATM   14  C   UNK N   1      25.951  24.231  -9.813  0.00  0.00     0.101 A 
HETATM   15  C   UNK N   1      25.540  24.023  -8.468  0.00  0.00     0.102 A 
HETATM   16  C   UNK N   1      25.825  24.996  -7.512  0.00  0.00     0.046 A 
BRANCH  14  17
HETATM   17  O   UNK N   1      25.712  23.288 -10.756  0.00  0.00    -0.353 OA
HETATM   18  C   UNK N   1      25.902  23.492 -12.105  0.00  0.00     0.210 C 
ENDBRANCH  14  17
BRANCH  15  19
HETATM   19  O   UNK N   1      24.879  22.915  -8.043  0.00  0.00    -0.353 OA
HETATM   20  C   UNK N   1      25.180  22.186  -6.918  0.00  0.00     0.210 C 
ENDBRANCH  15  19
ENDBRANCH  10  11
ENDBRANCH   9  10
ENDBRANCH   7   9
ENDBRANCH   6   7
ENDBRANCH   5   6
ENDBRANCH   4   5
ENDBRANCH   2   4
BRANCH   2  21
HETATM   21  C   UNK N   1      29.895  25.421  -4.372  0.00  0.00     0.004 C 
HETATM   22  C   UNK N   1      30.019  25.759  -5.854  0.00  0.00     0.011 C 
HETATM   23  C   UNK N   1      31.220  25.727  -3.685  0.00  0.00     0.011 C 
ENDBRANCH   2  21
BRANCH   2  24
HETATM   24  C   UNK N   1      29.882  22.959  -5.089  0.00  0.00    -0.030 A 
HETATM   25  C   UNK N   1      31.070  22.269  -4.859  0.00  0.00     0.048 A 
HETATM   26  C   UNK N   1      31.388  21.106  -5.570  0.00  0.00     0.104 A 
HETATM   27  C   UNK N   1      30.464  20.600  -6.532  0.00  0.00     0.135 A 
HETATM   28  C   UNK N   1      29.281  21.345  -6.814  0.00  0.00     0.104 A 
HETATM   29  C   UNK N   1      29.020  22.512  -6.097  0.00  0.00     0.048 A 
BRANCH  26  30
HETATM   30  O   UNK N   1      32.550  20.456  -5.308  0.00  0.00    -0.353 OA
HETATM   31  C   UNK N   1      33.789  20.966  -5.635  0.00  0.00     0.210 C 
ENDBRANCH  26  30
BRANCH  27  32
HETATM   32  O   UNK N   1      30.671  19.420  -7.178  0.00  0.00    -0.351 OA
HETATM   33  C   UNK N   1      31.349  19.276  -8.367  0.00  0.00     0.210 C 
ENDBRANCH  27  32
BRANCH  28  34
HETATM   34  O   UNK N   1      28.334  20.944  -7.704  0.00  0.00    -0.353 OA
HETATM   35  C   UNK N   1      28.241  21.358  -9.014  0.00  0.00     0.210 C 
ENDBRANCH  28  34
ENDBRANCH   2  24
TORSDOF 14
ENDMDL
MODEL 7
REMARK VINA RESULT:      -5.9     13.591     16.349
REMARK  14 active torsions:
REMARK  status: ('A' for Active; 'I' for Inactive)
REMARK    1  A    between atoms: C_13  and  C_9 
REMARK    2  A    between atoms: C_14  and  C_9 
REMARK    3  A    between atoms: C_15  and  C_12 
REMARK    4  A    between atoms: C_21  and  C_12 
REMARK    5  A    between atoms: C_28  and  C_13 
REMARK    6  A    between atoms: N_30  and  C_14 
REMARK    7  A    between atoms: N_30  and  C_15 
REMARK    8  A    between atoms: C_28  and  C_20 
REMARK    9  A    between atoms: C_28  and  C_22 
REMARK   10  A    between atoms: O_31  and  C_23 
REMARK   11  A    between atoms: O_32  and  C_24 
REMARK   12  A    between atoms: O_33  and  C_25 
REMARK   13  A    between atoms: O_34  and  C_26 
REMARK   14  A    between atoms: O_35  and  C_27 
ROOT
HETATM    1  C   UNK N   1      21.246  18.900   4.270  0.00  0.00     0.074 C 
HETATM    2  C   UNK N   1      21.915  17.591   4.444  0.00  0.00     0.079 C 
HETATM    3  N   UNK N   1      20.702  19.913   4.126  0.00  0.00    -0.196 NA
ENDROOT
BRANCH   2   4
HETATM    4  C   UNK N   1      21.889  16.784   3.132  0.00  0.00     0.032 C 
BRANCH   4   5
HETATM    5  C   UNK N   1      20.700  17.109   2.218  0.00  0.00     0.032 C 
BRANCH   5   6
HETATM    6  C   UNK N   1      20.526  16.080   1.091  0.00  0.00     0.272 C 
BRANCH   6   7
HETATM    7  N   UNK N   1      20.567  14.705   1.601  0.00  0.00     0.084 N 
HETATM    8  C   UNK N   1      19.254  14.124   1.388  0.00  0.00     0.309 C 
BRANCH   7   9
HETATM    9  C   UNK N   1      21.542  13.808   0.960  0.00  0.00     0.276 C 
BRANCH   9  10
HETATM   10  C   UNK N   1      22.302  12.838   1.879  0.00  0.00     0.068 C 
BRANCH  10  11
HETATM   11  C   UNK N   1      23.615  13.422   2.285  0.00  0.00    -0.054 A 
HETATM   12  C   UNK N   1      24.234  14.399   1.502  0.00  0.00     0.010 A 
HETATM   13  C   UNK N   1      25.467  14.924   1.893  0.00  0.00     0.040 A 
HETATM   14  C   UNK N   1      26.101  14.473   3.069  0.00  0.00     0.101 A 
HETATM   15  C   UNK N   1      25.470  13.468   3.851  0.00  0.00     0.102 A 
HETATM   16  C   UNK N   1      24.234  12.967   3.446  0.00  0.00     0.046 A 
BRANCH  14  17
HETATM   17  O   UNK N   1      27.289  14.998   3.456  0.00  0.00    -0.353 OA
HETATM   18  C   UNK N   1      28.159  15.634   2.597  0.00  0.00     0.210 C 
ENDBRANCH  14  17
BRANCH  15  19
HETATM   19  O   UNK N   1      25.999  12.955   4.992  0.00  0.00    -0.353 OA
HETATM   20  C   UNK N   1      25.381  12.925   6.218  0.00  0.00     0.210 C 
ENDBRANCH  15  19
ENDBRANCH  10  11
ENDBRANCH   9  10
ENDBRANCH   7   9
ENDBRANCH   6   7
ENDBRANCH   5   6
ENDBRANCH   4   5
ENDBRANCH   2   4
BRANCH   2  21
HETATM   21  C   UNK N   1      23.382  17.840   4.912  0.00  0.00     0.004 C 
HETATM   22  C   UNK N   1      24.231  18.636   3.927  0.00  0.00     0.011 C 
HETATM   23  C   UNK N   1      24.117  16.554   5.270  0.00  0.00     0.011 C 
ENDBRANCH   2  21
BRANCH   2  24
HETATM   24  C   UNK N   1      21.066  16.913   5.507  0.00  0.00    -0.030 A 
HETATM   25  C   UNK N   1      20.719  15.570   5.382  0.00  0.00     0.048 A 
HETATM   26  C   UNK N   1      20.243  14.835   6.473  0.00  0.00     0.104 A 
HETATM   27  C   UNK N   1      20.136  15.465   7.749  0.00  0.00     0.135 A 
HETATM   28  C   UNK N   1      20.427  16.856   7.859  0.00  0.00     0.104 A 
HETATM   29  C   UNK N   1      20.874  17.554   6.737  0.00  0.00     0.048 A 
BRANCH  26  30
HETATM   30  O   UNK N   1      19.927  13.525   6.313  0.00  0.00    -0.353 OA
HETATM   31  C   UNK N   1      19.790  12.927   5.077  0.00  0.00     0.210 C 
ENDBRANCH  26  30
BRANCH  27  32
HETATM   32  O   UNK N   1      19.780  14.774   8.866  0.00  0.00    -0.351 OA
HETATM   33  C   UNK N   1      20.650  14.096   9.689  0.00  0.00     0.210 C 
ENDBRANCH  27  32
BRANCH  28  34
HETATM   34  O   UNK N   1      20.366  17.547   9.030  0.00  0.00    -0.353 OA
HETATM   35  C   UNK N   1      19.347  18.391   9.407  0.00  0.00     0.210 C 
ENDBRANCH  28  34
ENDBRANCH   2  24
TORSDOF 14
ENDMDL
MODEL 8
REMARK VINA RESULT:      -5.8      3.033      5.268
REMARK  14 active torsions:
REMARK  status: ('A' for Active; 'I' for Inactive)
REMARK    1  A    between atoms: C_13  and  C_9 
REMARK    2  A    between atoms: C_14  and  C_9 
REMARK    3  A    between atoms: C_15  and  C_12 
REMARK    4  A    between atoms: C_21  and  C_12 
REMARK    5  A    between atoms: C_28  and  C_13 
REMARK    6  A    between atoms: N_30  and  C_14 
REMARK    7  A    between atoms: N_30  and  C_15 
REMARK    8  A    between atoms: C_28  and  C_20 
REMARK    9  A    between atoms: C_28  and  C_22 
REMARK   10  A    between atoms: O_31  and  C_23 
REMARK   11  A    between atoms: O_32  and  C_24 
REMARK   12  A    between atoms: O_33  and  C_25 
REMARK   13  A    between atoms: O_34  and  C_26 
REMARK   14  A    between atoms: O_35  and  C_27 
ROOT
HETATM    1  C   UNK N   1      32.282  27.717  -4.554  0.00  0.00     0.074 C 
HETATM    2  C   UNK N   1      30.893  27.208  -4.528  0.00  0.00     0.079 C 
HETATM    3  N   UNK N   1      33.375  28.106  -4.553  0.00  0.00    -0.196 NA
ENDROOT
BRANCH   2   4
HETATM    4  C   UNK N   1      30.153  27.700  -3.269  0.00  0.00     0.032 C 
BRANCH   4   5
HETATM    5  C   UNK N   1      29.530  29.094  -3.412  0.00  0.00     0.032 C 
BRANCH   5   6
HETATM    6  C   UNK N   1      28.560  29.424  -2.266  0.00  0.00     0.272 C 
BRANCH   6   7
HETATM    7  N   UNK N   1      27.197  29.649  -2.758  0.00  0.00     0.084 N 
HETATM    8  C   UNK N   1      27.076  31.062  -3.069  0.00  0.00     0.309 C 
BRANCH   7   9
HETATM    9  C   UNK N   1      26.819  28.909  -3.972  0.00  0.00     0.276 C 
BRANCH   9  10
HETATM   10  C   UNK N   1      25.614  27.961  -3.859  0.00  0.00     0.068 C 
BRANCH  10  11
HETATM   11  C   UNK N   1      25.943  26.624  -4.437  0.00  0.00    -0.054 A 
HETATM   12  C   UNK N   1      26.693  25.697  -3.709  0.00  0.00     0.010 A 
HETATM   13  C   UNK N   1      27.000  24.457  -4.270  0.00  0.00     0.040 A 
HETATM   14  C   UNK N   1      26.568  24.130  -5.572  0.00  0.00     0.101 A 
HETATM   15  C   UNK N   1      25.818  25.085  -6.311  0.00  0.00     0.102 A 
HETATM   16  C   UNK N   1      25.514  26.312  -5.725  0.00  0.00     0.046 A 
BRANCH  14  17
HETATM   17  O   UNK N   1      26.852  22.917  -6.108  0.00  0.00    -0.353 OA
HETATM   18  C   UNK N   1      28.028  22.631  -6.767  0.00  0.00     0.210 C 
ENDBRANCH  14  17
BRANCH  15  19
HETATM   19  O   UNK N   1      25.365  24.875  -7.574  0.00  0.00    -0.353 OA
HETATM   20  C   UNK N   1      26.001  25.262  -8.728  0.00  0.00     0.210 C 
ENDBRANCH  15  19
ENDBRANCH  10  11
ENDBRANCH   9  10
ENDBRANCH   7   9
ENDBRANCH   6   7
ENDBRANCH   5   6
ENDBRANCH   4   5
ENDBRANCH   2   4
BRANCH   2  21
HETATM   21  C   UNK N   1      30.163  27.686  -5.821  0.00  0.00     0.004 C 
HETATM   22  C   UNK N   1      29.166  26.682  -6.390  0.00  0.00     0.011 C 
HETATM   23  C   UNK N   1      31.126  28.105  -6.925  0.00  0.00     0.011 C 
ENDBRANCH   2  21
BRANCH   2  24
HETATM   24  C   UNK N   1      31.083  25.700  -4.483  0.00  0.00    -0.030 A 
HETATM   25  C   UNK N   1      31.986  25.078  -5.342  0.00  0.00     0.048 A 
HETATM   26  C   UNK N   1      32.434  23.774  -5.108  0.00  0.00     0.104 A 
HETATM   27  C   UNK N   1      31.978  23.073  -3.952  0.00  0.00     0.135 A 
HETATM   28  C   UNK N   1      31.001  23.686  -3.112  0.00  0.00     0.104 A 
HETATM   29  C   UNK N   1      30.566  24.980  -3.400  0.00  0.00     0.048 A 
BRANCH  26  30
HETATM   30  O   UNK N   1      33.324  23.206  -5.961  0.00  0.00    -0.353 OA
HETATM   31  C   UNK N   1      34.539  23.781  -6.275  0.00  0.00     0.210 C 
ENDBRANCH  26  30
BRANCH  27  32
HETATM   32  O   UNK N   1      32.457  21.845  -3.617  0.00  0.00    -0.351 OA
HETATM   33  C   UNK N   1      31.999  20.650  -4.125  0.00  0.00     0.210 C 
ENDBRANCH  27  32
BRANCH  28  34
HETATM   34  O   UNK N   1      30.510  23.109  -1.983  0.00  0.00    -0.353 OA
HETATM   35  C   UNK N   1      29.177  22.926  -1.693  0.00  0.00     0.210 C 
ENDBRANCH  28  34
ENDBRANCH   2  24
TORSDOF 14
ENDMDL
MODEL 9
REMARK VINA RESULT:      -5.8      2.705      4.643
REMARK  14 active torsions:
REMARK  status: ('A' for Active; 'I' for Inactive)
REMARK    1  A    between atoms: C_13  and  C_9 
REMARK    2  A    between atoms: C_14  and  C_9 
REMARK    3  A    between atoms: C_15  and  C_12 
REMARK    4  A    between atoms: C_21  and  C_12 
REMARK    5  A    between atoms: C_28  and  C_13 
REMARK    6  A    between atoms: N_30  and  C_14 
REMARK    7  A    between atoms: N_30  and  C_15 
REMARK    8  A    between atoms: C_28  and  C_20 
REMARK    9  A    between atoms: C_28  and  C_22 
REMARK   10  A    between atoms: O_31  and  C_23 
REMARK   11  A    between atoms: O_32  and  C_24 
REMARK   12  A    between atoms: O_33  and  C_25 
REMARK   13  A    between atoms: O_34  and  C_26 
REMARK   14  A    between atoms: O_35  and  C_27 
ROOT
HETATM    1  C   UNK N   1      27.419  24.495  -4.010  0.00  0.00     0.074 C 
HETATM    2  C   UNK N   1      28.753  24.375  -4.640  0.00  0.00     0.079 C 
HETATM    3  N   UNK N   1      26.368  24.606  -3.532  0.00  0.00    -0.196 NA
ENDROOT
BRANCH   2   4
HETATM    4  C   UNK N   1      29.491  25.727  -4.618  0.00  0.00     0.032 C 
BRANCH   4   5
HETATM    5  C   UNK N   1      29.152  26.608  -3.409  0.00  0.00     0.032 C 
BRANCH   5   6
HETATM    6  C   UNK N   1      29.725  28.028  -3.537  0.00  0.00     0.272 C 
BRANCH   6   7
HETATM    7  N   UNK N   1      28.808  29.035  -2.994  0.00  0.00     0.084 N 
HETATM    8  C   UNK N   1      29.114  30.297  -3.643  0.00  0.00     0.309 C 
BRANCH   7   9
HETATM    9  C   UNK N   1      27.373  28.781  -3.205  0.00  0.00     0.276 C 
BRANCH   9  10
HETATM   10  C   UNK N   1      26.730  29.427  -4.443  0.00  0.00     0.068 C 
BRANCH  10  11
HETATM   11  C   UNK N   1      26.687  28.456  -5.577  0.00  0.00    -0.054 A 
HETATM   12  C   UNK N   1      25.703  27.466  -5.632  0.00  0.00     0.010 A 
HETATM   13  C   UNK N   1      25.686  26.561  -6.694  0.00  0.00     0.040 A 
HETATM   14  C   UNK N   1      26.658  26.629  -7.712  0.00  0.00     0.101 A 
HETATM   15  C   UNK N   1      27.665  27.630  -7.640  0.00  0.00     0.102 A 
HETATM   16  C   UNK N   1      27.654  28.530  -6.576  0.00  0.00     0.046 A 
BRANCH  14  17
HETATM   17  O   UNK N   1      26.629  25.760  -8.753  0.00  0.00    -0.353 OA
HETATM   18  C   UNK N   1      25.467  25.253  -9.291  0.00  0.00     0.210 C 
ENDBRANCH  14  17
BRANCH  15  19
HETATM   19  O   UNK N   1      28.653  27.775  -8.560  0.00  0.00    -0.353 OA
HETATM   20  C   UNK N   1      29.890  28.327  -8.327  0.00  0.00     0.210 C 
ENDBRANCH  15  19
ENDBRANCH  10  11
ENDBRANCH   9  10
ENDBRANCH   7   9
ENDBRANCH   6   7
ENDBRANCH   5   6
ENDBRANCH   4   5
ENDBRANCH   2   4
BRANCH   2  21
HETATM   21  C   UNK N   1      29.567  23.286  -3.877  0.00  0.00     0.004 C 
HETATM   22  C   UNK N   1      29.151  23.090  -2.423  0.00  0.00     0.011 C 
HETATM   23  C   UNK N   1      31.071  23.522  -3.932  0.00  0.00     0.011 C 
ENDBRANCH   2  21
BRANCH   2  24
HETATM   24  C   UNK N   1      28.420  23.969  -6.067  0.00  0.00    -0.030 A 
HETATM   25  C   UNK N   1      29.324  24.215  -7.098  0.00  0.00     0.048 A 
HETATM   26  C   UNK N   1      29.213  23.568  -8.334  0.00  0.00     0.104 A 
HETATM   27  C   UNK N   1      28.170  22.616  -8.535  0.00  0.00     0.135 A 
HETATM   28  C   UNK N   1      27.206  22.417  -7.503  0.00  0.00     0.104 A 
HETATM   29  C   UNK N   1      27.344  23.104  -6.297  0.00  0.00     0.048 A 
BRANCH  26  30
HETATM   30  O   UNK N   1      30.121  23.825  -9.310  0.00  0.00    -0.353 OA
HETATM   31  C   UNK N   1      31.456  23.492  -9.205  0.00  0.00     0.210 C 
ENDBRANCH  26  30
BRANCH  27  32
HETATM   32  O   UNK N   1      28.075  21.882  -9.676  0.00  0.00    -0.351 OA
HETATM   33  C   UNK N   1      28.693  20.671  -9.893  0.00  0.00     0.210 C 
ENDBRANCH  27  32
BRANCH  28  34
HETATM   34  O   UNK N   1      26.182  21.527  -7.591  0.00  0.00    -0.353 OA
HETATM   35  C   UNK N   1      24.891  21.829  -7.962  0.00  0.00     0.210 C 
ENDBRANCH  28  34
ENDBRANCH   2  24
TORSDOF 14
ENDMDL
