REMARK  4 active torsions:
REMARK  status: ('A' for Active; 'I' for Inactive)
REMARK    1  A    between atoms: C_8  and  C_23 
REMARK    2  A    between atoms: C_8  and  O_27 
REMARK    3  A    between atoms: C_23  and  C_25 
REMARK    4  A    between atoms: C_25  and  O_26 
ROOT
HETATM    1  C   UNK N   1       0.798  -3.317  -0.839  0.00  0.00     0.015 C 
HETATM    2  C   UNK N   1       1.445  -2.045  -0.327  0.00  0.00     0.012 C 
HETATM    3  C   UNK N   1       2.644  -1.706  -1.208  0.00  0.00     0.014 C 
HETATM    4  C   UNK N   1       3.281  -0.359  -0.847  0.00  0.00     0.004 C 
HETATM    5  C   UNK N   1       4.107  -0.398   0.450  0.00  0.00     0.002 C 
HETATM    6  C   UNK N   1       5.279  -1.362   0.266  0.00  0.00     0.009 C 
HETATM    7  C   UNK N   1       6.510  -0.507  -0.040  0.00  0.00     0.047 C 
HETATM    8  C   UNK N   1       6.023   0.939  -0.166  0.00  0.00     0.128 C 
HETATM    9  C   UNK N   1       4.785   0.961   0.763  0.00  0.00     0.005 C 
HETATM   10  C   UNK N   1       3.848   2.199   0.634  0.00  0.00     0.091 C 
HETATM   11  C   UNK N   1       2.883   2.071  -0.505  0.00  0.00     0.133 C 
HETATM   12  O   UNK N   1       2.724   2.974  -1.312  0.00  0.00    -0.297 OA
HETATM   13  C   UNK N   1       2.242   0.739  -0.677  0.00  0.00     0.076 C 
HETATM   14  C   UNK N   1       0.756   0.440  -0.935  0.00  0.00     0.008 C 
HETATM   15  C   UNK N   1       0.456  -0.898  -0.234  0.00  0.00    -0.059 C 
HETATM   16  C   UNK N   1      -0.628  -1.056   0.541  0.00  0.00     0.059 C 
HETATM   17  C   UNK N   1      -1.576   0.044   0.747  0.00  0.00     0.172 C 
HETATM   18  O   UNK N   1      -2.637  -0.157   1.311  0.00  0.00    -0.289 OA
HETATM   19  C   UNK N   1      -1.224   1.392   0.283  0.00  0.00     0.052 C 
HETATM   20  C   UNK N   1      -0.140   1.581  -0.482  0.00  0.00    -0.008 C 
HETATM   21  C   UNK N   1       0.548   0.284  -2.431  0.00  0.00     0.025 C 
HETATM   22  C   UNK N   1       5.222   0.919   2.229  0.00  0.00     0.019 C 
ENDROOT
BRANCH   8  23
HETATM   23  C   UNK N   1       7.085   1.961   0.203  0.00  0.00     0.184 C 
HETATM   24  O   UNK N   1       6.820   3.151   0.142  0.00  0.00    -0.292 OA
BRANCH  23  25
HETATM   25  C   UNK N   1       8.453   1.550   0.666  0.00  0.00     0.245 C 
BRANCH  25  26
HETATM   26  O   UNK N   1       9.124   0.859  -0.345  0.00  0.00    -0.393 OA
HETATM   27  H   UNK N   1       8.941   0.216  -1.047  0.00  0.00     0.209 HD
ENDBRANCH  25  26
ENDBRANCH  23  25
ENDBRANCH   8  23
BRANCH   8  28
HETATM   28  O   UNK N   1       5.647   1.151  -1.497  0.00  0.00    -0.381 OA
HETATM   29  H   UNK N   1       5.644   1.451  -2.420  0.00  0.00     0.211 HD
ENDBRANCH   8  28
TORSDOF 4
