MODEL 1
REMARK VINA RESULT:      -8.1      0.000      0.000
REMARK  17 active torsions:
REMARK  status: ('A' for Active; 'I' for Inactive)
REMARK    1  A    between atoms: C_4  and  O_57 
REMARK    2  A    between atoms: C_12  and  O_53 
REMARK    3  A    between atoms: C_14  and  O_42 
REMARK    4  A    between atoms: C_15  and  O_41 
REMARK    5  A    between atoms: C_20  and  O_21 
REMARK    6  A    between atoms: O_21  and  C_22 
REMARK    7  A    between atoms: C_22  and  C_24 
REMARK    8  A    between atoms: C_24  and  C_25 
REMARK    9  A    between atoms: C_24  and  O_40 
REMARK   10  A    between atoms: C_25  and  C_26 
REMARK   11  A    between atoms: C_25  and  N_32 
REMARK       I    between atoms: N_32  and  C_33 
REMARK   12  A    between atoms: C_33  and  O_35 
REMARK   13  A    between atoms: O_35  and  C_36 
REMARK   14  A    between atoms: O_42  and  C_43 
REMARK   15  A    between atoms: C_43  and  C_45 
REMARK   16  A    between atoms: O_53  and  C_54 
REMARK   17  A    between atoms: O_57  and  C_58 
ROOT
HETATM    1  C   UNK N   1      25.486  19.698   3.234  0.00  0.00     0.046 C 
HETATM    2  C   UNK N   1      25.210  18.420   3.940  0.00  0.00    -0.048 C 
HETATM    3  C   UNK N   1      23.939  17.959   4.049  0.00  0.00    -0.028 C 
HETATM    4  C   UNK N   1      22.542  18.446   3.471  0.00  0.00     0.232 C 
HETATM    5  C   UNK N   1      21.282  17.419   3.729  0.00  0.00     0.170 C 
HETATM    6  O   UNK N   1      20.243  17.942   4.101  0.00  0.00    -0.294 OA
HETATM    7  C   UNK N   1      21.276  15.765   3.672  0.00  0.00     0.037 A 
HETATM    8  C   UNK N   1      21.089  15.333   2.226  0.00  0.00     0.024 A 
HETATM    9  C   UNK N   1      19.913  15.262   3.167  0.00  0.00     0.006 A 
HETATM   10  C   UNK N   1      19.646  13.776   3.408  0.00  0.00     0.041 C 
HETATM   11  C   UNK N   1      19.826  13.339   4.870  0.00  0.00     0.159 A 
HETATM   12  C   UNK N   1      21.150  13.753   5.483  0.00  0.00     0.125 A 
HETATM   13  C   UNK N   1      22.098  14.564   4.564  0.00  0.00     0.074 C 
HETATM   14  C   UNK N   1      23.736  14.440   4.944  0.00  0.00     0.176 C 
HETATM   15  C   UNK N   1      24.722  15.698   5.141  0.00  0.00     0.098 C 
HETATM   16  C   UNK N   1      23.802  16.669   4.545  0.00  0.00     0.013 C 
HETATM   17  C   UNK N   1      22.819  16.929   5.770  0.00  0.00     0.023 C 
HETATM   18  C   UNK N   1      23.761  16.134   3.003  0.00  0.00     0.023 C 
HETATM   19  C   UNK N   1      26.045  15.925   4.368  0.00  0.00     0.078 C 
HETATM   20  C   UNK N   1      26.383  17.467   4.343  0.00  0.00     0.164 C 
HETATM   21  C   UNK N   1      20.279  14.612   6.362  0.00  0.00     0.210 A 
HETATM   22  O   UNK N   1      19.093  14.159   5.745  0.00  0.00    -0.380 OA
ENDROOT
BRANCH  20  23
HETATM   23  O   UNK N   1      26.977  17.806   5.534  0.00  0.00    -0.309 OA
BRANCH  23  24
HETATM   24  C   UNK N   1      28.320  17.963   5.611  0.00  0.00     0.290 C 
HETATM   25  O   UNK N   1      28.871  18.789   4.901  0.00  0.00    -0.262 OA
BRANCH  24  26
HETATM   26  C   UNK N   1      29.139  17.081   6.524  0.00  0.00     0.244 C 
BRANCH  26  27
HETATM   27  C   UNK N   1      30.243  16.329   5.779  0.00  0.00     0.158 C 
BRANCH  27  28
HETATM   28  C   UNK N   1      29.670  15.457   4.685  0.00  0.00    -0.032 A 
HETATM   29  C   UNK N   1      29.197  14.177   4.999  0.00  0.00     0.009 A 
HETATM   30  C   UNK N   1      28.699  13.346   3.991  0.00  0.00     0.001 A 
HETATM   31  C   UNK N   1      28.686  13.783   2.663  0.00  0.00     0.000 A 
HETATM   32  C   UNK N   1      29.164  15.056   2.341  0.00  0.00     0.001 A 
HETATM   33  C   UNK N   1      29.651  15.892   3.349  0.00  0.00     0.009 A 
ENDBRANCH  27  28
BRANCH  27  34
HETATM   34  N   UNK N   1      31.207  17.266   5.240  0.00  0.00    -0.325 N 
HETATM   35  C   UNK N   1      32.519  17.237   5.567  0.00  0.00     0.361 C 
HETATM   36  O   UNK N   1      33.286  18.013   5.020  0.00  0.00    -0.238 OA
HETATM   37  H   UNK N   1      30.894  17.954   4.609  0.00  0.00     0.165 HD
BRANCH  35  38
HETATM   38  O   UNK N   1      32.974  16.327   6.473  0.00  0.00    -0.294 OA
BRANCH  38  39
HETATM   39  C   UNK N   1      33.301  16.595   7.790  0.00  0.00     0.061 C 
HETATM   40  C   UNK N   1      32.387  15.782   8.682  0.00  0.00     0.046 C 
HETATM   41  C   UNK N   1      33.107  18.066   8.119  0.00  0.00     0.046 C 
HETATM   42  C   UNK N   1      34.735  16.183   8.075  0.00  0.00     0.046 C 
ENDBRANCH  38  39
ENDBRANCH  35  38
ENDBRANCH  27  34
ENDBRANCH  26  27
BRANCH  26  43
HETATM   43  O   UNK N   1      29.660  17.816   7.591  0.00  0.00    -0.383 OA
HETATM   44  H   UNK N   1      29.752  17.404   8.464  0.00  0.00     0.210 HD
ENDBRANCH  26  43
ENDBRANCH  24  26
ENDBRANCH  23  24
ENDBRANCH  20  23
BRANCH  15  45
HETATM   45  O   UNK N   1      25.009  15.894   6.505  0.00  0.00    -0.386 OA
HETATM   46  H   UNK N   1      25.404  15.923   7.390  0.00  0.00     0.210 HD
ENDBRANCH  15  45
BRANCH  14  47
HETATM   47  O   UNK N   1      24.321  13.207   5.129  0.00  0.00    -0.308 OA
BRANCH  47  48
HETATM   48  C   UNK N   1      24.795  12.477   4.086  0.00  0.00     0.293 C 
HETATM   49  O   UNK N   1      25.789  11.773   4.223  0.00  0.00    -0.259 OA
BRANCH  48  50
HETATM   50  C   UNK N   1      24.086  12.487   2.795  0.00  0.00     0.039 A 
HETATM   51  C   UNK N   1      24.610  13.192   1.705  0.00  0.00     0.017 A 
HETATM   52  C   UNK N   1      23.924  13.214   0.488  0.00  0.00     0.001 A 
HETATM   53  C   UNK N   1      22.703  12.544   0.359  0.00  0.00     0.000 A 
HETATM   54  C   UNK N   1      22.171  11.846   1.447  0.00  0.00     0.001 A 
HETATM   55  C   UNK N   1      22.862  11.815   2.661  0.00  0.00     0.017 A 
ENDBRANCH  48  50
ENDBRANCH  47  48
ENDBRANCH  14  47
BRANCH   4  56
HETATM   56  O   UNK N   1      22.205  19.776   3.708  0.00  0.00    -0.304 OA
BRANCH  56  57
HETATM   57  C   UNK N   1      21.997  20.765   2.796  0.00  0.00     0.255 C 
HETATM   58  O   UNK N   1      22.594  21.829   2.858  0.00  0.00    -0.266 OA
HETATM   59  C   UNK N   1      21.006  20.552   1.705  0.00  0.00     0.126 C 
ENDBRANCH  56  57
ENDBRANCH   4  56
BRANCH  12  60
HETATM   60  O   UNK N   1      21.726  12.735   6.227  0.00  0.00    -0.305 OA
BRANCH  60  61
HETATM   61  C   UNK N   1      21.872  12.727   7.579  0.00  0.00     0.255 C 
HETATM   62  O   UNK N   1      20.983  12.259   8.272  0.00  0.00    -0.266 OA
HETATM   63  C   UNK N   1      23.083  13.302   8.247  0.00  0.00     0.126 C 
ENDBRANCH  60  61
ENDBRANCH  12  60
TORSDOF 17
ENDMDL
MODEL 2
REMARK VINA RESULT:      -8.0      2.405      4.822
REMARK  17 active torsions:
REMARK  status: ('A' for Active; 'I' for Inactive)
REMARK    1  A    between atoms: C_4  and  O_57 
REMARK    2  A    between atoms: C_12  and  O_53 
REMARK    3  A    between atoms: C_14  and  O_42 
REMARK    4  A    between atoms: C_15  and  O_41 
REMARK    5  A    between atoms: C_20  and  O_21 
REMARK    6  A    between atoms: O_21  and  C_22 
REMARK    7  A    between atoms: C_22  and  C_24 
REMARK    8  A    between atoms: C_24  and  C_25 
REMARK    9  A    between atoms: C_24  and  O_40 
REMARK   10  A    between atoms: C_25  and  C_26 
REMARK   11  A    between atoms: C_25  and  N_32 
REMARK       I    between atoms: N_32  and  C_33 
REMARK   12  A    between atoms: C_33  and  O_35 
REMARK   13  A    between atoms: O_35  and  C_36 
REMARK   14  A    between atoms: O_42  and  C_43 
REMARK   15  A    between atoms: C_43  and  C_45 
REMARK   16  A    between atoms: O_53  and  C_54 
REMARK   17  A    between atoms: O_57  and  C_58 
ROOT
HETATM    1  C   UNK N   1      21.377  18.328   6.410  0.00  0.00     0.046 C 
HETATM    2  C   UNK N   1      22.192  17.246   5.798  0.00  0.00    -0.048 C 
HETATM    3  C   UNK N   1      21.953  15.948   6.111  0.00  0.00    -0.028 C 
HETATM    4  C   UNK N   1      20.847  15.217   6.984  0.00  0.00     0.232 C 
HETATM    5  C   UNK N   1      20.863  13.573   6.900  0.00  0.00     0.170 C 
HETATM    6  O   UNK N   1      20.743  12.989   7.967  0.00  0.00    -0.294 OA
HETATM    7  C   UNK N   1      21.146  12.614   5.581  0.00  0.00     0.037 A 
HETATM    8  C   UNK N   1      19.845  12.454   4.813  0.00  0.00     0.024 A 
HETATM    9  C   UNK N   1      20.321  11.321   5.685  0.00  0.00     0.006 A 
HETATM   10  C   UNK N   1      20.755  10.202   4.737  0.00  0.00     0.041 C 
HETATM   11  C   UNK N   1      22.247   9.849   4.832  0.00  0.00     0.159 A 
HETATM   12  C   UNK N   1      23.176  11.041   4.717  0.00  0.00     0.125 A 
HETATM   13  C   UNK N   1      22.491  12.420   4.548  0.00  0.00     0.074 C 
HETATM   14  C   UNK N   1      23.424  13.588   3.768  0.00  0.00     0.176 C 
HETATM   15  C   UNK N   1      23.684  15.073   4.336  0.00  0.00     0.098 C 
HETATM   16  C   UNK N   1      22.625  15.006   5.344  0.00  0.00     0.013 C 
HETATM   17  C   UNK N   1      23.360  14.172   6.483  0.00  0.00     0.023 C 
HETATM   18  C   UNK N   1      21.306  14.918   4.387  0.00  0.00     0.023 C 
HETATM   19  C   UNK N   1      23.380  16.386   3.573  0.00  0.00     0.078 C 
HETATM   20  C   UNK N   1      23.158  17.557   4.608  0.00  0.00     0.164 C 
HETATM   21  C   UNK N   1      23.510  10.702   6.146  0.00  0.00     0.210 A 
HETATM   22  O   UNK N   1      22.631   9.597   6.161  0.00  0.00    -0.380 OA
ENDROOT
BRANCH  20  23
HETATM   23  O   UNK N   1      24.384  18.030   5.007  0.00  0.00    -0.309 OA
BRANCH  23  24
HETATM   24  C   UNK N   1      24.977  19.048   4.341  0.00  0.00     0.290 C 
HETATM   25  O   UNK N   1      24.452  19.496   3.334  0.00  0.00    -0.262 OA
BRANCH  24  26
HETATM   26  C   UNK N   1      26.311  19.586   4.803  0.00  0.00     0.244 C 
BRANCH  26  27
HETATM   27  C   UNK N   1      27.368  18.491   4.951  0.00  0.00     0.158 C 
BRANCH  27  28
HETATM   28  C   UNK N   1      27.597  18.144   6.405  0.00  0.00    -0.032 A 
HETATM   29  C   UNK N   1      28.246  19.062   7.239  0.00  0.00     0.009 A 
HETATM   30  C   UNK N   1      28.498  18.738   8.576  0.00  0.00     0.001 A 
HETATM   31  C   UNK N   1      28.117  17.491   9.081  0.00  0.00     0.000 A 
HETATM   32  C   UNK N   1      27.476  16.567   8.251  0.00  0.00     0.001 A 
HETATM   33  C   UNK N   1      27.214  16.894   6.919  0.00  0.00     0.009 A 
ENDBRANCH  27  28
BRANCH  27  34
HETATM   34  N   UNK N   1      26.978  17.318   4.195  0.00  0.00    -0.325 N 
HETATM   35  C   UNK N   1      27.862  16.566   3.501  0.00  0.00     0.361 C 
HETATM   36  O   UNK N   1      27.473  15.551   2.946  0.00  0.00    -0.238 OA
HETATM   37  H   UNK N   1      26.029  17.057   4.187  0.00  0.00     0.165 HD
BRANCH  35  38
HETATM   38  O   UNK N   1      29.175  16.929   3.456  0.00  0.00    -0.294 OA
BRANCH  38  39
HETATM   39  C   UNK N   1      30.201  16.327   4.160  0.00  0.00     0.061 C 
HETATM   40  C   UNK N   1      31.169  15.722   3.166  0.00  0.00     0.046 C 
HETATM   41  C   UNK N   1      29.680  15.218   5.058  0.00  0.00     0.046 C 
HETATM   42  C   UNK N   1      30.952  17.357   4.988  0.00  0.00     0.046 C 
ENDBRANCH  38  39
ENDBRANCH  35  38
ENDBRANCH  27  34
ENDBRANCH  26  27
BRANCH  26  43
HETATM   43  O   UNK N   1      26.756  20.607   3.959  0.00  0.00    -0.383 OA
HETATM   44  H   UNK N   1      27.319  21.314   4.309  0.00  0.00     0.210 HD
ENDBRANCH  26  43
ENDBRANCH  24  26
ENDBRANCH  23  24
ENDBRANCH  20  23
BRANCH  15  45
HETATM   45  O   UNK N   1      24.993  15.189   4.839  0.00  0.00    -0.386 OA
HETATM   46  H   UNK N   1      25.902  15.043   5.145  0.00  0.00     0.210 HD
ENDBRANCH  15  45
BRANCH  14  47
HETATM   47  O   UNK N   1      24.045  13.305   2.573  0.00  0.00    -0.308 OA
BRANCH  47  48
HETATM   48  C   UNK N   1      23.460  13.583   1.378  0.00  0.00     0.293 C 
HETATM   49  O   UNK N   1      24.095  14.142   0.492  0.00  0.00    -0.259 OA
BRANCH  48  50
HETATM   50  C   UNK N   1      22.070  13.169   1.124  0.00  0.00     0.039 A 
HETATM   51  C   UNK N   1      21.742  11.812   1.025  0.00  0.00     0.017 A 
HETATM   52  C   UNK N   1      20.425  11.425   0.764  0.00  0.00     0.001 A 
HETATM   53  C   UNK N   1      19.432  12.393   0.588  0.00  0.00     0.000 A 
HETATM   54  C   UNK N   1      19.755  13.750   0.676  0.00  0.00     0.001 A 
HETATM   55  C   UNK N   1      21.070  14.136   0.947  0.00  0.00     0.017 A 
ENDBRANCH  48  50
ENDBRANCH  47  48
ENDBRANCH  14  47
BRANCH   4  56
HETATM   56  O   UNK N   1      20.677  15.684   8.285  0.00  0.00    -0.304 OA
BRANCH  56  57
HETATM   57  C   UNK N   1      19.522  16.067   8.897  0.00  0.00     0.255 C 
HETATM   58  O   UNK N   1      18.764  15.253   9.400  0.00  0.00    -0.266 OA
HETATM   59  C   UNK N   1      19.167  17.513   8.940  0.00  0.00     0.126 C 
ENDBRANCH  56  57
ENDBRANCH   4  56
BRANCH  12  60
HETATM   60  O   UNK N   1      24.264  10.782   3.897  0.00  0.00    -0.305 OA
BRANCH  60  61
HETATM   61  C   UNK N   1      25.543  10.583   4.315  0.00  0.00     0.255 C 
HETATM   62  O   UNK N   1      26.267  11.548   4.497  0.00  0.00    -0.266 OA
HETATM   63  C   UNK N   1      26.098   9.210   4.532  0.00  0.00     0.126 C 
ENDBRANCH  60  61
ENDBRANCH  12  60
TORSDOF 17
ENDMDL
MODEL 3
REMARK VINA RESULT:      -7.9      2.051      5.905
REMARK  17 active torsions:
REMARK  status: ('A' for Active; 'I' for Inactive)
REMARK    1  A    between atoms: C_4  and  O_57 
REMARK    2  A    between atoms: C_12  and  O_53 
REMARK    3  A    between atoms: C_14  and  O_42 
REMARK    4  A    between atoms: C_15  and  O_41 
REMARK    5  A    between atoms: C_20  and  O_21 
REMARK    6  A    between atoms: O_21  and  C_22 
REMARK    7  A    between atoms: C_22  and  C_24 
REMARK    8  A    between atoms: C_24  and  C_25 
REMARK    9  A    between atoms: C_24  and  O_40 
REMARK   10  A    between atoms: C_25  and  C_26 
REMARK   11  A    between atoms: C_25  and  N_32 
REMARK       I    between atoms: N_32  and  C_33 
REMARK   12  A    between atoms: C_33  and  O_35 
REMARK   13  A    between atoms: O_35  and  C_36 
REMARK   14  A    between atoms: O_42  and  C_43 
REMARK   15  A    between atoms: C_43  and  C_45 
REMARK   16  A    between atoms: O_53  and  C_54 
REMARK   17  A    between atoms: O_57  and  C_58 
ROOT
HETATM    1  C   UNK N   1      27.784  12.457   4.497  0.00  0.00     0.046 C 
HETATM    2  C   UNK N   1      27.041  13.717   4.234  0.00  0.00    -0.048 C 
HETATM    3  C   UNK N   1      25.723  13.681   3.916  0.00  0.00    -0.028 C 
HETATM    4  C   UNK N   1      24.645  12.518   3.838  0.00  0.00     0.232 C 
HETATM    5  C   UNK N   1      23.095  13.015   3.589  0.00  0.00     0.170 C 
HETATM    6  O   UNK N   1      22.462  12.374   2.764  0.00  0.00    -0.294 OA
HETATM    7  C   UNK N   1      22.328  14.341   4.216  0.00  0.00     0.037 A 
HETATM    8  C   UNK N   1      21.794  13.982   5.594  0.00  0.00     0.024 A 
HETATM    9  C   UNK N   1      20.837  14.032   4.430  0.00  0.00     0.006 A 
HETATM   10  C   UNK N   1      19.952  15.258   4.655  0.00  0.00     0.041 C 
HETATM   11  C   UNK N   1      20.086  16.332   3.564  0.00  0.00     0.159 A 
HETATM   12  C   UNK N   1      21.515  16.747   3.273  0.00  0.00     0.125 A 
HETATM   13  C   UNK N   1      22.611  16.018   4.091  0.00  0.00     0.074 C 
HETATM   14  C   UNK N   1      24.045  16.885   4.290  0.00  0.00     0.176 C 
HETATM   15  C   UNK N   1      25.511  16.301   3.972  0.00  0.00     0.098 C 
HETATM   16  C   UNK N   1      25.073  14.907   3.885  0.00  0.00     0.013 C 
HETATM   17  C   UNK N   1      24.470  14.882   2.412  0.00  0.00     0.023 C 
HETATM   18  C   UNK N   1      24.608  14.643   5.428  0.00  0.00     0.023 C 
HETATM   19  C   UNK N   1      26.690  16.252   4.976  0.00  0.00     0.078 C 
HETATM   20  C   UNK N   1      27.688  15.102   4.561  0.00  0.00     0.164 C 
HETATM   21  C   UNK N   1      21.243  16.119   1.932  0.00  0.00     0.210 A 
HETATM   22  O   UNK N   1      19.917  15.784   2.281  0.00  0.00    -0.380 OA
ENDROOT
BRANCH  20  23
HETATM   23  O   UNK N   1      28.509  15.571   3.564  0.00  0.00    -0.309 OA
BRANCH  23  24
HETATM   24  C   UNK N   1      29.807  15.857   3.822  0.00  0.00     0.290 C 
HETATM   25  O   UNK N   1      30.680  15.100   3.430  0.00  0.00    -0.262 OA
BRANCH  24  26
HETATM   26  C   UNK N   1      30.171  17.072   4.643  0.00  0.00     0.244 C 
BRANCH  26  27
HETATM   27  C   UNK N   1      30.845  16.708   5.967  0.00  0.00     0.158 C 
BRANCH  27  28
HETATM   28  C   UNK N   1      30.150  17.370   7.135  0.00  0.00    -0.032 A 
HETATM   29  C   UNK N   1      30.912  18.027   8.109  0.00  0.00     0.009 A 
HETATM   30  C   UNK N   1      30.286  18.610   9.214  0.00  0.00     0.001 A 
HETATM   31  C   UNK N   1      28.898  18.527   9.360  0.00  0.00     0.000 A 
HETATM   32  C   UNK N   1      28.132  17.867   8.396  0.00  0.00     0.001 A 
HETATM   33  C   UNK N   1      28.755  17.293   7.286  0.00  0.00     0.009 A 
ENDBRANCH  27  28
BRANCH  27  34
HETATM   34  N   UNK N   1      30.873  15.269   6.130  0.00  0.00    -0.325 N 
HETATM   35  C   UNK N   1      31.984  14.595   6.504  0.00  0.00     0.361 C 
HETATM   36  O   UNK N   1      31.916  13.391   6.691  0.00  0.00    -0.238 OA
HETATM   37  H   UNK N   1      30.047  14.759   5.963  0.00  0.00     0.165 HD
BRANCH  35  38
HETATM   38  O   UNK N   1      33.153  15.268   6.698  0.00  0.00    -0.294 OA
BRANCH  38  39
HETATM   39  C   UNK N   1      33.819  15.395   7.903  0.00  0.00     0.061 C 
HETATM   40  C   UNK N   1      34.388  16.795   7.987  0.00  0.00     0.046 C 
HETATM   41  C   UNK N   1      34.968  14.405   8.007  0.00  0.00     0.046 C 
HETATM   42  C   UNK N   1      32.858  15.200   9.064  0.00  0.00     0.046 C 
ENDBRANCH  38  39
ENDBRANCH  35  38
ENDBRANCH  27  34
ENDBRANCH  26  27
BRANCH  26  43
HETATM   43  O   UNK N   1      30.957  17.957   3.902  0.00  0.00    -0.383 OA
HETATM   44  H   UNK N   1      30.562  18.469   3.180  0.00  0.00     0.210 HD
ENDBRANCH  26  43
ENDBRANCH  24  26
ENDBRANCH  23  24
ENDBRANCH  20  23
BRANCH  15  45
HETATM   45  O   UNK N   1      26.017  16.852   2.779  0.00  0.00    -0.386 OA
HETATM   46  H   UNK N   1      26.170  17.148   1.868  0.00  0.00     0.210 HD
ENDBRANCH  15  45
BRANCH  14  47
HETATM   47  O   UNK N   1      24.019  18.188   4.731  0.00  0.00    -0.308 OA
BRANCH  47  48
HETATM   48  C   UNK N   1      24.769  19.158   4.143  0.00  0.00     0.293 C 
HETATM   49  O   UNK N   1      24.492  19.558   3.019  0.00  0.00    -0.259 OA
BRANCH  48  50
HETATM   50  C   UNK N   1      25.891  19.769   4.875  0.00  0.00     0.039 A 
HETATM   51  C   UNK N   1      25.663  20.460   6.071  0.00  0.00     0.017 A 
HETATM   52  C   UNK N   1      26.728  21.055   6.753  0.00  0.00     0.001 A 
HETATM   53  C   UNK N   1      28.024  20.973   6.234  0.00  0.00     0.000 A 
HETATM   54  C   UNK N   1      28.256  20.293   5.035  0.00  0.00     0.001 A 
HETATM   55  C   UNK N   1      27.193  19.690   4.360  0.00  0.00     0.017 A 
ENDBRANCH  48  50
ENDBRANCH  47  48
ENDBRANCH  14  47
BRANCH   4  56
HETATM   56  O   UNK N   1      24.983  11.412   3.062  0.00  0.00    -0.304 OA
BRANCH  56  57
HETATM   57  C   UNK N   1      25.521  11.396   1.811  0.00  0.00     0.255 C 
HETATM   58  O   UNK N   1      24.939  11.889   0.858  0.00  0.00    -0.266 OA
HETATM   59  C   UNK N   1      26.845  10.749   1.598  0.00  0.00     0.126 C 
ENDBRANCH  56  57
ENDBRANCH   4  56
BRANCH  12  60
HETATM   60  O   UNK N   1      21.647  18.121   3.142  0.00  0.00    -0.305 OA
BRANCH  60  61
HETATM   61  C   UNK N   1      20.764  19.049   3.599  0.00  0.00     0.255 C 
HETATM   62  O   UNK N   1      20.899  19.496   4.727  0.00  0.00    -0.266 OA
HETATM   63  C   UNK N   1      19.611  19.520   2.768  0.00  0.00     0.126 C 
ENDBRANCH  60  61
ENDBRANCH  12  60
TORSDOF 17
ENDMDL
MODEL 4
REMARK VINA RESULT:      -7.8      1.253      2.771
REMARK  17 active torsions:
REMARK  status: ('A' for Active; 'I' for Inactive)
REMARK    1  A    between atoms: C_4  and  O_57 
REMARK    2  A    between atoms: C_12  and  O_53 
REMARK    3  A    between atoms: C_14  and  O_42 
REMARK    4  A    between atoms: C_15  and  O_41 
REMARK    5  A    between atoms: C_20  and  O_21 
REMARK    6  A    between atoms: O_21  and  C_22 
REMARK    7  A    between atoms: C_22  and  C_24 
REMARK    8  A    between atoms: C_24  and  C_25 
REMARK    9  A    between atoms: C_24  and  O_40 
REMARK   10  A    between atoms: C_25  and  C_26 
REMARK   11  A    between atoms: C_25  and  N_32 
REMARK       I    between atoms: N_32  and  C_33 
REMARK   12  A    between atoms: C_33  and  O_35 
REMARK   13  A    between atoms: O_35  and  C_36 
REMARK   14  A    between atoms: O_42  and  C_43 
REMARK   15  A    between atoms: C_43  and  C_45 
REMARK   16  A    between atoms: O_53  and  C_54 
REMARK   17  A    between atoms: O_57  and  C_58 
ROOT
HETATM    1  C   UNK N   1      25.510  19.726   3.219  0.00  0.00     0.046 C 
HETATM    2  C   UNK N   1      25.268  18.444   3.931  0.00  0.00    -0.048 C 
HETATM    3  C   UNK N   1      24.009  17.954   4.049  0.00  0.00    -0.028 C 
HETATM    4  C   UNK N   1      22.598  18.405   3.478  0.00  0.00     0.232 C 
HETATM    5  C   UNK N   1      21.364  17.350   3.747  0.00  0.00     0.170 C 
HETATM    6  O   UNK N   1      20.314  17.850   4.124  0.00  0.00    -0.294 OA
HETATM    7  C   UNK N   1      21.397  15.696   3.695  0.00  0.00     0.037 A 
HETATM    8  C   UNK N   1      21.211  15.255   2.251  0.00  0.00     0.024 A 
HETATM    9  C   UNK N   1      20.043  15.159   3.200  0.00  0.00     0.006 A 
HETATM   10  C   UNK N   1      19.812  13.668   3.447  0.00  0.00     0.041 C 
HETATM   11  C   UNK N   1      20.012  13.241   4.909  0.00  0.00     0.159 A 
HETATM   12  C   UNK N   1      21.329  13.688   5.513  0.00  0.00     0.125 A 
HETATM   13  C   UNK N   1      22.251  14.518   4.585  0.00  0.00     0.074 C 
HETATM   14  C   UNK N   1      23.895  14.434   4.956  0.00  0.00     0.176 C 
HETATM   15  C   UNK N   1      24.852  15.716   5.143  0.00  0.00     0.098 C 
HETATM   16  C   UNK N   1      23.906  16.662   4.550  0.00  0.00     0.013 C 
HETATM   17  C   UNK N   1      22.924  16.903   5.779  0.00  0.00     0.023 C 
HETATM   18  C   UNK N   1      23.868  16.122   3.010  0.00  0.00     0.023 C 
HETATM   19  C   UNK N   1      26.165  15.971   4.362  0.00  0.00     0.078 C 
HETATM   20  C   UNK N   1      26.466  17.520   4.330  0.00  0.00     0.164 C 
HETATM   21  C   UNK N   1      20.443  14.528   6.394  0.00  0.00     0.210 A 
HETATM   22  O   UNK N   1      19.264  14.046   5.786  0.00  0.00    -0.380 OA
ENDROOT
BRANCH  20  23
HETATM   23  O   UNK N   1      27.059  17.877   5.516  0.00  0.00    -0.309 OA
BRANCH  23  24
HETATM   24  C   UNK N   1      28.405  17.991   5.603  0.00  0.00     0.290 C 
HETATM   25  O   UNK N   1      29.003  18.696   4.805  0.00  0.00    -0.262 OA
BRANCH  24  26
HETATM   26  C   UNK N   1      29.171  17.204   6.640  0.00  0.00     0.244 C 
BRANCH  26  27
HETATM   27  C   UNK N   1      30.349  16.433   6.043  0.00  0.00     0.158 C 
BRANCH  27  28
HETATM   28  C   UNK N   1      31.612  16.659   6.842  0.00  0.00    -0.032 A 
HETATM   29  C   UNK N   1      32.608  17.503   6.337  0.00  0.00     0.009 A 
HETATM   30  C   UNK N   1      33.797  17.690   7.048  0.00  0.00     0.001 A 
HETATM   31  C   UNK N   1      34.004  17.022   8.259  0.00  0.00     0.000 A 
HETATM   32  C   UNK N   1      33.018  16.171   8.765  0.00  0.00     0.001 A 
HETATM   33  C   UNK N   1      31.825  15.992   8.061  0.00  0.00     0.009 A 
ENDBRANCH  27  28
BRANCH  27  34
HETATM   34  N   UNK N   1      30.032  15.022   5.965  0.00  0.00    -0.325 N 
HETATM   35  C   UNK N   1      30.425  14.238   4.936  0.00  0.00     0.361 C 
HETATM   36  O   UNK N   1      30.182  13.042   4.971  0.00  0.00    -0.238 OA
HETATM   37  H   UNK N   1      29.508  14.616   6.693  0.00  0.00     0.165 HD
BRANCH  35  38
HETATM   38  O   UNK N   1      31.112  14.782   3.891  0.00  0.00    -0.294 OA
BRANCH  38  39
HETATM   39  C   UNK N   1      32.434  14.528   3.578  0.00  0.00     0.061 C 
HETATM   40  C   UNK N   1      33.052  15.807   3.053  0.00  0.00     0.046 C 
HETATM   41  C   UNK N   1      32.554  13.462   2.502  0.00  0.00     0.046 C 
HETATM   42  C   UNK N   1      33.202  14.103   4.819  0.00  0.00     0.046 C 
ENDBRANCH  38  39
ENDBRANCH  35  38
ENDBRANCH  27  34
ENDBRANCH  26  27
BRANCH  26  43
HETATM   43  O   UNK N   1      29.586  18.031   7.687  0.00  0.00    -0.383 OA
HETATM   44  H   UNK N   1      28.966  18.265   8.395  0.00  0.00     0.210 HD
ENDBRANCH  26  43
ENDBRANCH  24  26
ENDBRANCH  23  24
ENDBRANCH  20  23
BRANCH  15  45
HETATM   45  O   UNK N   1      25.143  15.923   6.504  0.00  0.00    -0.386 OA
HETATM   46  H   UNK N   1      25.114  16.075   7.462  0.00  0.00     0.210 HD
ENDBRANCH  15  45
BRANCH  14  47
HETATM   47  O   UNK N   1      24.509  13.216   5.141  0.00  0.00    -0.308 OA
BRANCH  47  48
HETATM   48  C   UNK N   1      24.980  12.486   4.096  0.00  0.00     0.293 C 
HETATM   49  O   UNK N   1      26.047  11.890   4.186  0.00  0.00    -0.259 OA
BRANCH  48  50
HETATM   50  C   UNK N   1      24.184  12.365   2.863  0.00  0.00     0.039 A 
HETATM   51  C   UNK N   1      23.012  11.600   2.849  0.00  0.00     0.017 A 
HETATM   52  C   UNK N   1      22.270  11.473   1.672  0.00  0.00     0.001 A 
HETATM   53  C   UNK N   1      22.705  12.098   0.499  0.00  0.00     0.000 A 
HETATM   54  C   UNK N   1      23.879  12.855   0.504  0.00  0.00     0.001 A 
HETATM   55  C   UNK N   1      24.615  12.991   1.684  0.00  0.00     0.017 A 
ENDBRANCH  48  50
ENDBRANCH  47  48
ENDBRANCH  14  47
BRANCH   4  56
HETATM   56  O   UNK N   1      22.231  19.728   3.713  0.00  0.00    -0.304 OA
BRANCH  56  57
HETATM   57  C   UNK N   1      22.001  20.712   2.800  0.00  0.00     0.255 C 
HETATM   58  O   UNK N   1      22.574  21.788   2.861  0.00  0.00    -0.266 OA
HETATM   59  C   UNK N   1      21.018  20.474   1.707  0.00  0.00     0.126 C 
ENDBRANCH  56  57
ENDBRANCH   4  56
BRANCH  12  60
HETATM   60  O   UNK N   1      21.933  12.686   6.256  0.00  0.00    -0.305 OA
BRANCH  60  61
HETATM   61  C   UNK N   1      22.046  12.663   7.612  0.00  0.00     0.255 C 
HETATM   62  O   UNK N   1      21.149  12.172   8.276  0.00  0.00    -0.266 OA
HETATM   63  C   UNK N   1      23.231  13.250   8.316  0.00  0.00     0.126 C 
ENDBRANCH  60  61
ENDBRANCH  12  60
TORSDOF 17
ENDMDL
MODEL 5
REMARK VINA RESULT:      -7.7      1.837      3.110
REMARK  17 active torsions:
REMARK  status: ('A' for Active; 'I' for Inactive)
REMARK    1  A    between atoms: C_4  and  O_57 
REMARK    2  A    between atoms: C_12  and  O_53 
REMARK    3  A    between atoms: C_14  and  O_42 
REMARK    4  A    between atoms: C_15  and  O_41 
REMARK    5  A    between atoms: C_20  and  O_21 
REMARK    6  A    between atoms: O_21  and  C_22 
REMARK    7  A    between atoms: C_22  and  C_24 
REMARK    8  A    between atoms: C_24  and  C_25 
REMARK    9  A    between atoms: C_24  and  O_40 
REMARK   10  A    between atoms: C_25  and  C_26 
REMARK   11  A    between atoms: C_25  and  N_32 
REMARK       I    between atoms: N_32  and  C_33 
REMARK   12  A    between atoms: C_33  and  O_35 
REMARK   13  A    between atoms: O_35  and  C_36 
REMARK   14  A    between atoms: O_42  and  C_43 
REMARK   15  A    between atoms: C_43  and  C_45 
REMARK   16  A    between atoms: O_53  and  C_54 
REMARK   17  A    between atoms: O_57  and  C_58 
ROOT
HETATM    1  C   UNK N   1      28.005  17.574   3.432  0.00  0.00     0.046 C 
HETATM    2  C   UNK N   1      27.237  16.433   3.996  0.00  0.00    -0.048 C 
HETATM    3  C   UNK N   1      25.955  16.607   4.402  0.00  0.00    -0.028 C 
HETATM    4  C   UNK N   1      24.936  17.823   4.331  0.00  0.00     0.232 C 
HETATM    5  C   UNK N   1      23.396  17.474   4.794  0.00  0.00     0.170 C 
HETATM    6  O   UNK N   1      22.864  18.298   5.523  0.00  0.00    -0.294 OA
HETATM    7  C   UNK N   1      22.523  16.098   4.503  0.00  0.00     0.037 A 
HETATM    8  C   UNK N   1      21.885  16.213   3.128  0.00  0.00     0.024 A 
HETATM    9  C   UNK N   1      21.032  16.445   4.350  0.00  0.00     0.006 A 
HETATM   10  C   UNK N   1      20.081  15.252   4.441  0.00  0.00     0.041 C 
HETATM   11  C   UNK N   1      20.265  14.404   5.709  0.00  0.00     0.159 A 
HETATM   12  C   UNK N   1      21.696  13.971   5.964  0.00  0.00     0.125 A 
HETATM   13  C   UNK N   1      22.745  14.463   4.936  0.00  0.00     0.074 C 
HETATM   14  C   UNK N   1      24.119  13.493   4.801  0.00  0.00     0.176 C 
HETATM   15  C   UNK N   1      25.631  14.041   4.882  0.00  0.00     0.098 C 
HETATM   16  C   UNK N   1      25.259  15.449   4.726  0.00  0.00     0.013 C 
HETATM   17  C   UNK N   1      24.790  15.793   6.207  0.00  0.00     0.023 C 
HETATM   18  C   UNK N   1      24.673  15.435   3.202  0.00  0.00     0.023 C 
HETATM   19  C   UNK N   1      26.718  13.827   3.799  0.00  0.00     0.078 C 
HETATM   20  C   UNK N   1      27.795  14.976   3.900  0.00  0.00     0.164 C 
HETATM   21  C   UNK N   1      21.569  14.861   7.172  0.00  0.00     0.210 A 
HETATM   22  O   UNK N   1      20.233  15.199   6.868  0.00  0.00    -0.380 OA
ENDROOT
BRANCH  20  23
HETATM   23  O   UNK N   1      28.680  14.662   4.902  0.00  0.00    -0.309 OA
BRANCH  23  24
HETATM   24  C   UNK N   1      30.014  14.785   4.703  0.00  0.00     0.290 C 
HETATM   25  O   UNK N   1      30.651  13.829   4.289  0.00  0.00    -0.262 OA
BRANCH  24  26
HETATM   26  C   UNK N   1      30.720  16.075   5.047  0.00  0.00     0.244 C 
BRANCH  26  27
HETATM   27  C   UNK N   1      31.258  16.087   6.479  0.00  0.00     0.158 C 
BRANCH  27  28
HETATM   28  C   UNK N   1      30.396  16.942   7.380  0.00  0.00    -0.032 A 
HETATM   29  C   UNK N   1      29.040  17.115   7.077  0.00  0.00     0.009 A 
HETATM   30  C   UNK N   1      28.240  17.934   7.880  0.00  0.00     0.001 A 
HETATM   31  C   UNK N   1      28.794  18.596   8.980  0.00  0.00     0.000 A 
HETATM   32  C   UNK N   1      30.149  18.435   9.283  0.00  0.00     0.001 A 
HETATM   33  C   UNK N   1      30.946  17.609   8.488  0.00  0.00     0.009 A 
ENDBRANCH  27  28
BRANCH  27  34
HETATM   34  N   UNK N   1      31.351  14.734   6.987  0.00  0.00    -0.325 N 
HETATM   35  C   UNK N   1      32.497  14.215   7.485  0.00  0.00     0.361 C 
HETATM   36  O   UNK N   1      32.484  13.091   7.960  0.00  0.00    -0.238 OA
HETATM   37  H   UNK N   1      30.547  14.167   6.969  0.00  0.00     0.165 HD
BRANCH  35  38
HETATM   38  O   UNK N   1      33.638  14.960   7.480  0.00  0.00    -0.294 OA
BRANCH  38  39
HETATM   39  C   UNK N   1      34.275  15.463   8.599  0.00  0.00     0.061 C 
HETATM   40  C   UNK N   1      35.600  14.747   8.754  0.00  0.00     0.046 C 
HETATM   41  C   UNK N   1      33.454  15.229   9.856  0.00  0.00     0.046 C 
HETATM   42  C   UNK N   1      34.554  16.948   8.428  0.00  0.00     0.046 C 
ENDBRANCH  38  39
ENDBRANCH  35  38
ENDBRANCH  27  34
ENDBRANCH  26  27
BRANCH  26  43
HETATM   43  O   UNK N   1      31.733  16.350   4.125  0.00  0.00    -0.383 OA
HETATM   44  H   UNK N   1      32.436  16.978   4.351  0.00  0.00     0.210 HD
ENDBRANCH  26  43
ENDBRANCH  24  26
ENDBRANCH  23  24
ENDBRANCH  20  23
BRANCH  15  45
HETATM   45  O   UNK N   1      26.216  13.703   6.117  0.00  0.00    -0.386 OA
HETATM   46  H   UNK N   1      26.612  13.698   7.002  0.00  0.00     0.210 HD
ENDBRANCH  15  45
BRANCH  14  47
HETATM   47  O   UNK N   1      24.001  12.132   4.629  0.00  0.00    -0.308 OA
BRANCH  47  48
HETATM   48  C   UNK N   1      23.827  11.579   3.400  0.00  0.00     0.293 C 
HETATM   49  O   UNK N   1      24.487  10.604   3.060  0.00  0.00    -0.259 OA
BRANCH  48  50
HETATM   50  C   UNK N   1      22.806  12.118   2.486  0.00  0.00     0.039 A 
HETATM   51  C   UNK N   1      23.184  12.851   1.355  0.00  0.00     0.017 A 
HETATM   52  C   UNK N   1      22.210  13.377   0.502  0.00  0.00     0.001 A 
HETATM   53  C   UNK N   1      20.854  13.185   0.783  0.00  0.00     0.000 A 
HETATM   54  C   UNK N   1      20.471  12.462   1.915  0.00  0.00     0.001 A 
HETATM   55  C   UNK N   1      21.444  11.927   2.763  0.00  0.00     0.017 A 
ENDBRANCH  48  50
ENDBRANCH  47  48
ENDBRANCH  14  47
BRANCH   4  56
HETATM   56  O   UNK N   1      25.387  19.037   4.845  0.00  0.00    -0.304 OA
BRANCH  56  57
HETATM   57  C   UNK N   1      25.843  20.122   4.160  0.00  0.00     0.255 C 
HETATM   58  O   UNK N   1      26.701  20.856   4.624  0.00  0.00    -0.266 OA
HETATM   59  C   UNK N   1      25.272  20.428   2.819  0.00  0.00     0.126 C 
ENDBRANCH  56  57
ENDBRANCH   4  56
BRANCH  12  60
HETATM   60  O   UNK N   1      21.782  12.643   6.354  0.00  0.00    -0.305 OA
BRANCH  60  61
HETATM   61  C   UNK N   1      22.021  12.203   7.618  0.00  0.00     0.255 C 
HETATM   62  O   UNK N   1      21.119  12.230   8.439  0.00  0.00    -0.266 OA
HETATM   63  C   UNK N   1      23.370  11.709   8.041  0.00  0.00     0.126 C 
ENDBRANCH  60  61
ENDBRANCH  12  60
TORSDOF 17
ENDMDL
MODEL 6
REMARK VINA RESULT:      -7.6      2.098      5.441
REMARK  17 active torsions:
REMARK  status: ('A' for Active; 'I' for Inactive)
REMARK    1  A    between atoms: C_4  and  O_57 
REMARK    2  A    between atoms: C_12  and  O_53 
REMARK    3  A    between atoms: C_14  and  O_42 
REMARK    4  A    between atoms: C_15  and  O_41 
REMARK    5  A    between atoms: C_20  and  O_21 
REMARK    6  A    between atoms: O_21  and  C_22 
REMARK    7  A    between atoms: C_22  and  C_24 
REMARK    8  A    between atoms: C_24  and  C_25 
REMARK    9  A    between atoms: C_24  and  O_40 
REMARK   10  A    between atoms: C_25  and  C_26 
REMARK   11  A    between atoms: C_25  and  N_32 
REMARK       I    between atoms: N_32  and  C_33 
REMARK   12  A    between atoms: C_33  and  O_35 
REMARK   13  A    between atoms: O_35  and  C_36 
REMARK   14  A    between atoms: O_42  and  C_43 
REMARK   15  A    between atoms: C_43  and  C_45 
REMARK   16  A    between atoms: O_53  and  C_54 
REMARK   17  A    between atoms: O_57  and  C_58 
ROOT
HETATM    1  C   UNK N   1      27.532  13.583   5.256  0.00  0.00     0.046 C 
HETATM    2  C   UNK N   1      26.271  14.369   5.309  0.00  0.00    -0.048 C 
HETATM    3  C   UNK N   1      25.478  14.465   4.214  0.00  0.00    -0.028 C 
HETATM    4  C   UNK N   1      25.515  13.804   2.771  0.00  0.00     0.232 C 
HETATM    5  C   UNK N   1      24.192  14.089   1.835  0.00  0.00     0.170 C 
HETATM    6  O   UNK N   1      24.421  14.385   0.672  0.00  0.00    -0.294 OA
HETATM    7  C   UNK N   1      22.603  14.150   2.295  0.00  0.00     0.037 A 
HETATM    8  C   UNK N   1      22.052  12.733   2.315  0.00  0.00     0.024 A 
HETATM    9  C   UNK N   1      21.707  13.634   1.156  0.00  0.00     0.006 A 
HETATM   10  C   UNK N   1      20.223  13.971   1.301  0.00  0.00     0.041 C 
HETATM   11  C   UNK N   1      19.941  15.465   1.516  0.00  0.00     0.159 A 
HETATM   12  C   UNK N   1      20.747  16.095   2.636  0.00  0.00     0.125 A 
HETATM   13  C   UNK N   1      21.737  15.154   3.368  0.00  0.00     0.074 C 
HETATM   14  C   UNK N   1      22.103  15.601   4.953  0.00  0.00     0.176 C 
HETATM   15  C   UNK N   1      23.598  15.743   5.536  0.00  0.00     0.098 C 
HETATM   16  C   UNK N   1      24.233  15.047   4.416  0.00  0.00     0.013 C 
HETATM   17  C   UNK N   1      24.276  16.213   3.334  0.00  0.00     0.023 C 
HETATM   18  C   UNK N   1      23.619  13.546   4.610  0.00  0.00     0.023 C 
HETATM   19  C   UNK N   1      24.143  15.005   6.783  0.00  0.00     0.078 C 
HETATM   20  C   UNK N   1      25.714  14.881   6.678  0.00  0.00     0.164 C 
HETATM   21  C   UNK N   1      21.375  16.878   1.513  0.00  0.00     0.210 A 
HETATM   22  O   UNK N   1      20.571  16.252   0.536  0.00  0.00    -0.380 OA
ENDROOT
BRANCH  20  23
HETATM   23  O   UNK N   1      26.276  16.066   7.088  0.00  0.00    -0.309 OA
BRANCH  23  24
HETATM   24  C   UNK N   1      26.871  16.159   8.300  0.00  0.00     0.290 C 
HETATM   25  O   UNK N   1      26.494  15.442   9.213  0.00  0.00    -0.262 OA
BRANCH  24  26
HETATM   26  C   UNK N   1      27.953  17.185   8.541  0.00  0.00     0.244 C 
BRANCH  26  27
HETATM   27  C   UNK N   1      28.825  17.422   7.307  0.00  0.00     0.158 C 
BRANCH  27  28
HETATM   28  C   UNK N   1      28.199  18.441   6.382  0.00  0.00    -0.032 A 
HETATM   29  C   UNK N   1      27.828  18.061   5.086  0.00  0.00     0.009 A 
HETATM   30  C   UNK N   1      27.283  19.002   4.208  0.00  0.00     0.001 A 
HETATM   31  C   UNK N   1      27.121  20.331   4.614  0.00  0.00     0.000 A 
HETATM   32  C   UNK N   1      27.497  20.719   5.902  0.00  0.00     0.001 A 
HETATM   33  C   UNK N   1      28.031  19.777   6.784  0.00  0.00     0.009 A 
ENDBRANCH  27  28
BRANCH  27  34
HETATM   34  N   UNK N   1      30.153  17.836   7.709  0.00  0.00    -0.325 N 
HETATM   35  C   UNK N   1      31.278  17.253   7.235  0.00  0.00     0.361 C 
HETATM   36  O   UNK N   1      32.365  17.701   7.564  0.00  0.00    -0.238 OA
HETATM   37  H   UNK N   1      30.242  18.575   8.353  0.00  0.00     0.165 HD
BRANCH  35  38
HETATM   38  O   UNK N   1      31.186  16.198   6.377  0.00  0.00    -0.294 OA
BRANCH  38  39
HETATM   39  C   UNK N   1      31.526  16.219   5.037  0.00  0.00     0.061 C 
HETATM   40  C   UNK N   1      31.469  17.652   4.554  0.00  0.00     0.046 C 
HETATM   41  C   UNK N   1      30.555  15.395   4.208  0.00  0.00     0.046 C 
HETATM   42  C   UNK N   1      32.943  15.706   4.840  0.00  0.00     0.046 C 
ENDBRANCH  38  39
ENDBRANCH  35  38
ENDBRANCH  27  34
ENDBRANCH  26  27
BRANCH  26  43
HETATM   43  O   UNK N   1      27.409  18.382   9.012  0.00  0.00    -0.383 OA
HETATM   44  H   UNK N   1      27.669  18.723   9.882  0.00  0.00     0.210 HD
ENDBRANCH  26  43
ENDBRANCH  24  26
ENDBRANCH  23  24
ENDBRANCH  20  23
BRANCH  15  45
HETATM   45  O   UNK N   1      23.947  17.099   5.682  0.00  0.00    -0.386 OA
HETATM   46  H   UNK N   1      24.319  17.952   5.953  0.00  0.00     0.210 HD
ENDBRANCH  15  45
BRANCH  14  47
HETATM   47  O   UNK N   1      21.099  15.895   5.847  0.00  0.00    -0.308 OA
BRANCH  47  48
HETATM   48  C   UNK N   1      20.298  14.928   6.368  0.00  0.00     0.293 C 
HETATM   49  O   UNK N   1      19.212  14.681   5.858  0.00  0.00    -0.259 OA
BRANCH  48  50
HETATM   50  C   UNK N   1      20.756  14.134   7.521  0.00  0.00     0.039 A 
HETATM   51  C   UNK N   1      20.707  14.669   8.814  0.00  0.00     0.017 A 
HETATM   52  C   UNK N   1      21.160  13.919   9.902  0.00  0.00     0.001 A 
HETATM   53  C   UNK N   1      21.677  12.635   9.701  0.00  0.00     0.000 A 
HETATM   54  C   UNK N   1      21.737  12.099   8.412  0.00  0.00     0.001 A 
HETATM   55  C   UNK N   1      21.275  12.846   7.325  0.00  0.00     0.017 A 
ENDBRANCH  48  50
ENDBRANCH  47  48
ENDBRANCH  14  47
BRANCH   4  56
HETATM   56  O   UNK N   1      26.708  13.933   2.063  0.00  0.00    -0.304 OA
BRANCH  56  57
HETATM   57  C   UNK N   1      27.623  12.966   1.774  0.00  0.00     0.255 C 
HETATM   58  O   UNK N   1      28.811  13.223   1.661  0.00  0.00    -0.266 OA
HETATM   59  C   UNK N   1      27.162  11.564   1.578  0.00  0.00     0.126 C 
ENDBRANCH  56  57
ENDBRANCH   4  56
BRANCH  12  60
HETATM   60  O   UNK N   1      19.978  16.930   3.432  0.00  0.00    -0.305 OA
BRANCH  60  61
HETATM   61  C   UNK N   1      19.986  18.290   3.393  0.00  0.00     0.255 C 
HETATM   62  O   UNK N   1      19.142  18.872   2.732  0.00  0.00    -0.266 OA
HETATM   63  C   UNK N   1      21.020  19.095   4.117  0.00  0.00     0.126 C 
ENDBRANCH  60  61
ENDBRANCH  12  60
TORSDOF 17
ENDMDL
MODEL 7
REMARK VINA RESULT:      -7.5      1.978      3.108
REMARK  17 active torsions:
REMARK  status: ('A' for Active; 'I' for Inactive)
REMARK    1  A    between atoms: C_4  and  O_57 
REMARK    2  A    between atoms: C_12  and  O_53 
REMARK    3  A    between atoms: C_14  and  O_42 
REMARK    4  A    between atoms: C_15  and  O_41 
REMARK    5  A    between atoms: C_20  and  O_21 
REMARK    6  A    between atoms: O_21  and  C_22 
REMARK    7  A    between atoms: C_22  and  C_24 
REMARK    8  A    between atoms: C_24  and  C_25 
REMARK    9  A    between atoms: C_24  and  O_40 
REMARK   10  A    between atoms: C_25  and  C_26 
REMARK   11  A    between atoms: C_25  and  N_32 
REMARK       I    between atoms: N_32  and  C_33 
REMARK   12  A    between atoms: C_33  and  O_35 
REMARK   13  A    between atoms: O_35  and  C_36 
REMARK   14  A    between atoms: O_42  and  C_43 
REMARK   15  A    between atoms: C_43  and  C_45 
REMARK   16  A    between atoms: O_53  and  C_54 
REMARK   17  A    between atoms: O_57  and  C_58 
ROOT
HETATM    1  C   UNK N   1      24.258  19.073   3.850  0.00  0.00     0.046 C 
HETATM    2  C   UNK N   1      24.053  17.642   4.196  0.00  0.00    -0.048 C 
HETATM    3  C   UNK N   1      22.836  17.065   4.030  0.00  0.00    -0.028 C 
HETATM    4  C   UNK N   1      21.463  17.562   3.408  0.00  0.00     0.232 C 
HETATM    5  C   UNK N   1      20.304  16.403   3.255  0.00  0.00     0.170 C 
HETATM    6  O   UNK N   1      19.179  16.732   3.603  0.00  0.00    -0.294 OA
HETATM    7  C   UNK N   1      20.488  14.819   2.812  0.00  0.00     0.037 A 
HETATM    8  C   UNK N   1      20.502  14.741   1.294  0.00  0.00     0.024 A 
HETATM    9  C   UNK N   1      19.250  14.344   2.034  0.00  0.00     0.006 A 
HETATM   10  C   UNK N   1      19.125  12.828   1.884  0.00  0.00     0.041 C 
HETATM   11  C   UNK N   1      19.199  12.062   3.214  0.00  0.00     0.159 A 
HETATM   12  C   UNK N   1      20.397  12.421   4.071  0.00  0.00     0.125 A 
HETATM   13  C   UNK N   1      21.340  13.508   3.497  0.00  0.00     0.074 C 
HETATM   14  C   UNK N   1      22.933  13.430   4.044  0.00  0.00     0.176 C 
HETATM   15  C   UNK N   1      23.747  14.679   4.655  0.00  0.00     0.098 C 
HETATM   16  C   UNK N   1      22.793  15.687   4.189  0.00  0.00     0.013 C 
HETATM   17  C   UNK N   1      21.664  15.556   5.304  0.00  0.00     0.023 C 
HETATM   18  C   UNK N   1      22.972  15.545   2.573  0.00  0.00     0.023 C 
HETATM   19  C   UNK N   1      25.110  15.197   4.133  0.00  0.00     0.078 C 
HETATM   20  C   UNK N   1      25.275  16.720   4.512  0.00  0.00     0.164 C 
HETATM   21  C   UNK N   1      19.349  12.963   5.007  0.00  0.00     0.210 A 
HETATM   22  O   UNK N   1      18.291  12.579   4.155  0.00  0.00    -0.380 OA
ENDROOT
BRANCH  20  23
HETATM   23  O   UNK N   1      25.701  16.805   5.816  0.00  0.00    -0.309 OA
BRANCH  23  24
HETATM   24  C   UNK N   1      26.779  16.101   6.232  0.00  0.00     0.290 C 
HETATM   25  O   UNK N   1      26.661  15.301   7.146  0.00  0.00    -0.262 OA
BRANCH  24  26
HETATM   26  C   UNK N   1      28.135  16.346   5.612  0.00  0.00     0.244 C 
BRANCH  26  27
HETATM   27  C   UNK N   1      28.890  17.494   6.284  0.00  0.00     0.158 C 
BRANCH  27  28
HETATM   28  C   UNK N   1      28.234  18.825   5.994  0.00  0.00    -0.032 A 
HETATM   29  C   UNK N   1      27.749  19.600   7.054  0.00  0.00     0.009 A 
HETATM   30  C   UNK N   1      27.106  20.815   6.797  0.00  0.00     0.001 A 
HETATM   31  C   UNK N   1      26.931  21.253   5.481  0.00  0.00     0.000 A 
HETATM   32  C   UNK N   1      27.406  20.480   4.418  0.00  0.00     0.001 A 
HETATM   33  C   UNK N   1      28.058  19.272   4.674  0.00  0.00     0.009 A 
ENDBRANCH  27  28
BRANCH  27  34
HETATM   34  N   UNK N   1      28.979  17.262   7.711  0.00  0.00    -0.325 N 
HETATM   35  C   UNK N   1      30.126  17.423   8.410  0.00  0.00     0.361 C 
HETATM   36  O   UNK N   1      30.110  17.278   9.622  0.00  0.00    -0.238 OA
HETATM   37  H   UNK N   1      28.171  16.975   8.194  0.00  0.00     0.165 HD
BRANCH  35  38
HETATM   38  O   UNK N   1      31.272  17.774   7.763  0.00  0.00    -0.294 OA
BRANCH  38  39
HETATM   39  C   UNK N   1      32.360  16.949   7.546  0.00  0.00     0.061 C 
HETATM   40  C   UNK N   1      33.029  17.373   6.255  0.00  0.00     0.046 C 
HETATM   41  C   UNK N   1      31.934  15.497   7.409  0.00  0.00     0.046 C 
HETATM   42  C   UNK N   1      33.368  17.092   8.674  0.00  0.00     0.046 C 
ENDBRANCH  38  39
ENDBRANCH  35  38
ENDBRANCH  27  34
ENDBRANCH  26  27
BRANCH  26  43
HETATM   43  O   UNK N   1      28.898  15.176   5.602  0.00  0.00    -0.383 OA
HETATM   44  H   UNK N   1      29.774  15.165   6.019  0.00  0.00     0.210 HD
ENDBRANCH  26  43
ENDBRANCH  24  26
ENDBRANCH  23  24
ENDBRANCH  20  23
BRANCH  15  45
HETATM   45  O   UNK N   1      23.867  14.557   6.052  0.00  0.00    -0.386 OA
HETATM   46  H   UNK N   1      24.159  14.561   6.977  0.00  0.00     0.210 HD
ENDBRANCH  15  45
BRANCH  14  47
HETATM   47  O   UNK N   1      23.628  12.242   4.009  0.00  0.00    -0.308 OA
BRANCH  47  48
HETATM   48  C   UNK N   1      24.606  12.012   3.093  0.00  0.00     0.293 C 
HETATM   49  O   UNK N   1      25.785  12.107   3.408  0.00  0.00    -0.259 OA
BRANCH  48  50
HETATM   50  C   UNK N   1      24.251  11.596   1.726  0.00  0.00     0.039 A 
HETATM   51  C   UNK N   1      24.468  10.278   1.307  0.00  0.00     0.017 A 
HETATM   52  C   UNK N   1      24.148   9.893   0.003  0.00  0.00     0.001 A 
HETATM   53  C   UNK N   1      23.621  10.828  -0.894  0.00  0.00     0.000 A 
HETATM   54  C   UNK N   1      23.410  12.147  -0.485  0.00  0.00     0.001 A 
HETATM   55  C   UNK N   1      23.721  12.529   0.822  0.00  0.00     0.017 A 
ENDBRANCH  48  50
ENDBRANCH  47  48
ENDBRANCH  14  47
BRANCH   4  56
HETATM   56  O   UNK N   1      20.957  18.761   3.904  0.00  0.00    -0.304 OA
BRANCH  56  57
HETATM   57  C   UNK N   1      20.682  19.905   3.218  0.00  0.00     0.255 C 
HETATM   58  O   UNK N   1      20.297  20.915   3.787  0.00  0.00    -0.266 OA
HETATM   59  C   UNK N   1      20.841  19.922   1.738  0.00  0.00     0.126 C 
ENDBRANCH  56  57
ENDBRANCH   4  56
BRANCH  12  60
HETATM   60  O   UNK N   1      21.001  11.303   4.624  0.00  0.00    -0.305 OA
BRANCH  60  61
HETATM   61  C   UNK N   1      20.804  10.017   4.226  0.00  0.00     0.255 C 
HETATM   62  O   UNK N   1      20.176   9.260   4.948  0.00  0.00    -0.266 OA
HETATM   63  C   UNK N   1      21.361   9.494   2.938  0.00  0.00     0.126 C 
ENDBRANCH  60  61
ENDBRANCH  12  60
TORSDOF 17
ENDMDL
MODEL 8
REMARK VINA RESULT:      -7.4      3.138      5.764
REMARK  17 active torsions:
REMARK  status: ('A' for Active; 'I' for Inactive)
REMARK    1  A    between atoms: C_4  and  O_57 
REMARK    2  A    between atoms: C_12  and  O_53 
REMARK    3  A    between atoms: C_14  and  O_42 
REMARK    4  A    between atoms: C_15  and  O_41 
REMARK    5  A    between atoms: C_20  and  O_21 
REMARK    6  A    between atoms: O_21  and  C_22 
REMARK    7  A    between atoms: C_22  and  C_24 
REMARK    8  A    between atoms: C_24  and  C_25 
REMARK    9  A    between atoms: C_24  and  O_40 
REMARK   10  A    between atoms: C_25  and  C_26 
REMARK   11  A    between atoms: C_25  and  N_32 
REMARK       I    between atoms: N_32  and  C_33 
REMARK   12  A    between atoms: C_33  and  O_35 
REMARK   13  A    between atoms: O_35  and  C_36 
REMARK   14  A    between atoms: O_42  and  C_43 
REMARK   15  A    between atoms: C_43  and  C_45 
REMARK   16  A    between atoms: O_53  and  C_54 
REMARK   17  A    between atoms: O_57  and  C_58 
ROOT
HETATM    1  C   UNK N   1      30.907  18.099   4.068  0.00  0.00     0.046 C 
HETATM    2  C   UNK N   1      30.462  16.681   4.085  0.00  0.00    -0.048 C 
HETATM    3  C   UNK N   1      29.140  16.379   4.078  0.00  0.00    -0.028 C 
HETATM    4  C   UNK N   1      27.817  17.247   3.950  0.00  0.00     0.232 C 
HETATM    5  C   UNK N   1      26.424  16.382   3.796  0.00  0.00     0.170 C 
HETATM    6  O   UNK N   1      25.485  16.770   4.475  0.00  0.00    -0.294 OA
HETATM    7  C   UNK N   1      26.170  14.989   2.940  0.00  0.00     0.037 A 
HETATM    8  C   UNK N   1      25.882  15.357   1.494  0.00  0.00     0.024 A 
HETATM    9  C   UNK N   1      24.734  14.965   2.390  0.00  0.00     0.006 A 
HETATM   10  C   UNK N   1      24.254  13.599   1.901  0.00  0.00     0.041 C 
HETATM   11  C   UNK N   1      24.406  12.477   2.939  0.00  0.00     0.159 A 
HETATM   12  C   UNK N   1      25.793  12.374   3.544  0.00  0.00     0.125 A 
HETATM   13  C   UNK N   1      26.826  13.418   3.049  0.00  0.00     0.074 C 
HETATM   14  C   UNK N   1      28.437  12.931   3.159  0.00  0.00     0.176 C 
HETATM   15  C   UNK N   1      29.605  13.801   3.848  0.00  0.00     0.098 C 
HETATM   16  C   UNK N   1      28.825  15.039   3.893  0.00  0.00     0.013 C 
HETATM   17  C   UNK N   1      27.925  14.769   5.178  0.00  0.00     0.023 C 
HETATM   18  C   UNK N   1      28.663  15.349   2.299  0.00  0.00     0.023 C 
HETATM   19  C   UNK N   1      30.926  14.225   3.159  0.00  0.00     0.078 C 
HETATM   20  C   UNK N   1      31.490  15.525   3.856  0.00  0.00     0.164 C 
HETATM   21  C   UNK N   1      25.084  12.778   4.809  0.00  0.00     0.210 A 
HETATM   22  O   UNK N   1      23.827  12.833   4.169  0.00  0.00    -0.380 OA
ENDROOT
BRANCH  20  23
HETATM   23  O   UNK N   1      32.160  15.156   4.997  0.00  0.00    -0.309 OA
BRANCH  23  24
HETATM   24  C   UNK N   1      33.288  15.805   5.370  0.00  0.00     0.290 C 
HETATM   25  O   UNK N   1      34.368  15.431   4.940  0.00  0.00    -0.262 OA
BRANCH  24  26
HETATM   26  C   UNK N   1      33.220  16.946   6.358  0.00  0.00     0.244 C 
BRANCH  26  27
HETATM   27  C   UNK N   1      32.705  16.507   7.729  0.00  0.00     0.158 C 
BRANCH  27  28
HETATM   28  C   UNK N   1      31.390  17.176   8.060  0.00  0.00    -0.032 A 
HETATM   29  C   UNK N   1      30.203  16.673   7.514  0.00  0.00     0.009 A 
HETATM   30  C   UNK N   1      28.985  17.306   7.781  0.00  0.00     0.001 A 
HETATM   31  C   UNK N   1      28.949  18.452   8.581  0.00  0.00     0.000 A 
HETATM   32  C   UNK N   1      30.131  18.965   9.121  0.00  0.00     0.001 A 
HETATM   33  C   UNK N   1      31.347  18.327   8.865  0.00  0.00     0.009 A 
ENDBRANCH  27  28
BRANCH  27  34
HETATM   34  N   UNK N   1      32.575  15.064   7.773  0.00  0.00    -0.325 N 
HETATM   35  C   UNK N   1      32.897  14.332   8.864  0.00  0.00     0.361 C 
HETATM   36  O   UNK N   1      32.695  13.129   8.854  0.00  0.00    -0.238 OA
HETATM   37  H   UNK N   1      32.238  14.597   6.975  0.00  0.00     0.165 HD
BRANCH  35  38
HETATM   38  O   UNK N   1      33.409  14.946   9.967  0.00  0.00    -0.294 OA
BRANCH  38  39
HETATM   39  C   UNK N   1      34.732  14.912  10.366  0.00  0.00     0.061 C 
HETATM   40  C   UNK N   1      35.104  16.280  10.898  0.00  0.00     0.046 C 
HETATM   41  C   UNK N   1      35.653  14.585   9.203  0.00  0.00     0.046 C 
HETATM   42  C   UNK N   1      34.924  13.900  11.483  0.00  0.00     0.046 C 
ENDBRANCH  38  39
ENDBRANCH  35  38
ENDBRANCH  27  34
ENDBRANCH  26  27
BRANCH  26  43
HETATM   43  O   UNK N   1      34.457  17.587   6.465  0.00  0.00    -0.383 OA
HETATM   44  H   UNK N   1      35.016  17.695   5.680  0.00  0.00     0.210 HD
ENDBRANCH  26  43
ENDBRANCH  24  26
ENDBRANCH  23  24
ENDBRANCH  20  23
BRANCH  15  45
HETATM   45  O   UNK N   1      29.955  13.259   5.099  0.00  0.00    -0.386 OA
HETATM   46  H   UNK N   1      29.970  12.906   6.002  0.00  0.00     0.210 HD
ENDBRANCH  15  45
BRANCH  14  47
HETATM   47  O   UNK N   1      28.836  11.711   2.662  0.00  0.00    -0.308 OA
BRANCH  47  48
HETATM   48  C   UNK N   1      28.920  11.475   1.326  0.00  0.00     0.293 C 
HETATM   49  O   UNK N   1      27.909  11.263   0.669  0.00  0.00    -0.259 OA
BRANCH  48  50
HETATM   50  C   UNK N   1      30.228  11.524   0.650  0.00  0.00     0.039 A 
HETATM   51  C   UNK N   1      30.318  11.919  -0.690  0.00  0.00     0.017 A 
HETATM   52  C   UNK N   1      31.558  11.945  -1.332  0.00  0.00     0.001 A 
HETATM   53  C   UNK N   1      32.713  11.563  -0.642  0.00  0.00     0.000 A 
HETATM   54  C   UNK N   1      32.628  11.159   0.693  0.00  0.00     0.001 A 
HETATM   55  C   UNK N   1      31.389  11.143   1.338  0.00  0.00     0.017 A 
ENDBRANCH  48  50
ENDBRANCH  47  48
ENDBRANCH  14  47
BRANCH   4  56
HETATM   56  O   UNK N   1      27.688  18.313   4.837  0.00  0.00    -0.304 OA
BRANCH  56  57
HETATM   57  C   UNK N   1      27.514  19.632   4.546  0.00  0.00     0.255 C 
HETATM   58  O   UNK N   1      27.189  20.003   3.428  0.00  0.00    -0.266 OA
HETATM   59  C   UNK N   1      27.737  20.648   5.611  0.00  0.00     0.126 C 
ENDBRANCH  56  57
ENDBRANCH   4  56
BRANCH  12  60
HETATM   60  O   UNK N   1      26.230  11.062   3.637  0.00  0.00    -0.305 OA
BRANCH  60  61
HETATM   61  C   UNK N   1      25.519   9.962   3.270  0.00  0.00     0.255 C 
HETATM   62  O   UNK N   1      25.524   9.612   2.101  0.00  0.00    -0.266 OA
HETATM   63  C   UNK N   1      24.707   9.181   4.256  0.00  0.00     0.126 C 
ENDBRANCH  60  61
ENDBRANCH  12  60
TORSDOF 17
ENDMDL
MODEL 9
REMARK VINA RESULT:      -7.3      2.104      3.784
REMARK  17 active torsions:
REMARK  status: ('A' for Active; 'I' for Inactive)
REMARK    1  A    between atoms: C_4  and  O_57 
REMARK    2  A    between atoms: C_12  and  O_53 
REMARK    3  A    between atoms: C_14  and  O_42 
REMARK    4  A    between atoms: C_15  and  O_41 
REMARK    5  A    between atoms: C_20  and  O_21 
REMARK    6  A    between atoms: O_21  and  C_22 
REMARK    7  A    between atoms: C_22  and  C_24 
REMARK    8  A    between atoms: C_24  and  C_25 
REMARK    9  A    between atoms: C_24  and  O_40 
REMARK   10  A    between atoms: C_25  and  C_26 
REMARK   11  A    between atoms: C_25  and  N_32 
REMARK       I    between atoms: N_32  and  C_33 
REMARK   12  A    between atoms: C_33  and  O_35 
REMARK   13  A    between atoms: O_35  and  C_36 
REMARK   14  A    between atoms: O_42  and  C_43 
REMARK   15  A    between atoms: C_43  and  C_45 
REMARK   16  A    between atoms: O_53  and  C_54 
REMARK   17  A    between atoms: O_57  and  C_58 
ROOT
HETATM    1  C   UNK N   1      28.526  18.272   3.762  0.00  0.00     0.046 C 
HETATM    2  C   UNK N   1      28.153  16.846   3.956  0.00  0.00    -0.048 C 
HETATM    3  C   UNK N   1      26.878  16.509   4.271  0.00  0.00    -0.028 C 
HETATM    4  C   UNK N   1      25.527  17.332   4.406  0.00  0.00     0.232 C 
HETATM    5  C   UNK N   1      24.172  16.423   4.624  0.00  0.00     0.170 C 
HETATM    6  O   UNK N   1      23.399  16.826   5.480  0.00  0.00    -0.294 OA
HETATM    7  C   UNK N   1      23.784  14.974   3.925  0.00  0.00     0.037 A 
HETATM    8  C   UNK N   1      23.158  15.246   2.567  0.00  0.00     0.024 A 
HETATM    9  C   UNK N   1      22.263  14.879   3.723  0.00  0.00     0.006 A 
HETATM   10  C   UNK N   1      21.738  13.473   3.431  0.00  0.00     0.041 C 
HETATM   11  C   UNK N   1      22.169  12.421   4.464  0.00  0.00     0.159 A 
HETATM   12  C   UNK N   1      23.660  12.392   4.737  0.00  0.00     0.125 A 
HETATM   13  C   UNK N   1      24.510  13.430   3.963  0.00  0.00     0.074 C 
HETATM   14  C   UNK N   1      26.122  12.994   3.723  0.00  0.00     0.176 C 
HETATM   15  C   UNK N   1      27.380  13.935   4.076  0.00  0.00     0.098 C 
HETATM   16  C   UNK N   1      26.583  15.152   4.235  0.00  0.00     0.013 C 
HETATM   17  C   UNK N   1      26.013  14.937   5.705  0.00  0.00     0.023 C 
HETATM   18  C   UNK N   1      26.048  15.360   2.707  0.00  0.00     0.023 C 
HETATM   19  C   UNK N   1      28.491  14.351   3.080  0.00  0.00     0.078 C 
HETATM   20  C   UNK N   1      29.147  15.705   3.558  0.00  0.00     0.164 C 
HETATM   21  C   UNK N   1      23.244  12.853   6.109  0.00  0.00     0.210 A 
HETATM   22  O   UNK N   1      21.873  12.836   5.774  0.00  0.00    -0.380 OA
ENDROOT
BRANCH  20  23
HETATM   23  O   UNK N   1      30.074  15.424   4.531  0.00  0.00    -0.309 OA
BRANCH  23  24
HETATM   24  C   UNK N   1      31.306  15.983   4.486  0.00  0.00     0.290 C 
HETATM   25  O   UNK N   1      32.154  15.515   3.742  0.00  0.00    -0.262 OA
BRANCH  24  26
HETATM   26  C   UNK N   1      31.652  17.142   5.392  0.00  0.00     0.244 C 
BRANCH  26  27
HETATM   27  C   UNK N   1      31.750  16.729   6.862  0.00  0.00     0.158 C 
BRANCH  27  28
HETATM   28  C   UNK N   1      30.618  17.318   7.673  0.00  0.00    -0.032 A 
HETATM   29  C   UNK N   1      29.294  17.082   7.283  0.00  0.00     0.009 A 
HETATM   30  C   UNK N   1      28.239  17.653   8.002  0.00  0.00     0.001 A 
HETATM   31  C   UNK N   1      28.501  18.474   9.103  0.00  0.00     0.000 A 
HETATM   32  C   UNK N   1      29.820  18.720   9.492  0.00  0.00     0.001 A 
HETATM   33  C   UNK N   1      30.875  18.142   8.782  0.00  0.00     0.009 A 
ENDBRANCH  27  28
BRANCH  27  34
HETATM   34  N   UNK N   1      31.767  15.285   6.972  0.00  0.00    -0.325 N 
HETATM   35  C   UNK N   1      32.376  14.635   7.991  0.00  0.00     0.361 C 
HETATM   36  O   UNK N   1      32.289  13.419   8.057  0.00  0.00    -0.238 OA
HETATM   37  H   UNK N   1      31.317  14.753   6.277  0.00  0.00     0.165 HD
BRANCH  35  38
HETATM   38  O   UNK N   1      33.047  15.342   8.943  0.00  0.00    -0.294 OA
BRANCH  38  39
HETATM   39  C   UNK N   1      34.407  15.587   8.955  0.00  0.00     0.061 C 
HETATM   40  C   UNK N   1      34.621  17.073   9.155  0.00  0.00     0.046 C 
HETATM   41  C   UNK N   1      35.053  15.184   7.639  0.00  0.00     0.046 C 
HETATM   42  C   UNK N   1      35.070  14.851  10.107  0.00  0.00     0.046 C 
ENDBRANCH  38  39
ENDBRANCH  35  38
ENDBRANCH  27  34
ENDBRANCH  26  27
BRANCH  26  43
HETATM   43  O   UNK N   1      32.821  17.777   4.967  0.00  0.00    -0.383 OA
HETATM   44  H   UNK N   1      33.329  18.322   5.587  0.00  0.00     0.210 HD
ENDBRANCH  26  43
ENDBRANCH  24  26
ENDBRANCH  23  24
ENDBRANCH  20  23
BRANCH  15  45
HETATM   45  O   UNK N   1      28.029  13.479   5.240  0.00  0.00    -0.386 OA
HETATM   46  H   UNK N   1      28.396  13.363   6.129  0.00  0.00     0.210 HD
ENDBRANCH  15  45
BRANCH  14  47
HETATM   47  O   UNK N   1      26.444  11.757   3.213  0.00  0.00    -0.308 OA
BRANCH  47  48
HETATM   48  C   UNK N   1      26.609  11.554   1.879  0.00  0.00     0.293 C 
HETATM   49  O   UNK N   1      27.727  11.597   1.379  0.00  0.00    -0.259 OA
BRANCH  48  50
HETATM   50  C   UNK N   1      25.448  11.230   1.033  0.00  0.00     0.039 A 
HETATM   51  C   UNK N   1      25.303   9.947   0.491  0.00  0.00     0.017 A 
HETATM   52  C   UNK N   1      24.210   9.650  -0.327  0.00  0.00     0.001 A 
HETATM   53  C   UNK N   1      23.263  10.638  -0.618  0.00  0.00     0.000 A 
HETATM   54  C   UNK N   1      23.408  11.922  -0.087  0.00  0.00     0.001 A 
HETATM   55  C   UNK N   1      24.496  12.216   0.739  0.00  0.00     0.017 A 
ENDBRANCH  48  50
ENDBRANCH  47  48
ENDBRANCH  14  47
BRANCH   4  56
HETATM   56  O   UNK N   1      25.563  18.446   5.241  0.00  0.00    -0.304 OA
BRANCH  56  57
HETATM   57  C   UNK N   1      25.571  19.762   4.887  0.00  0.00     0.255 C 
HETATM   58  O   UNK N   1      25.977  20.626   5.648  0.00  0.00    -0.266 OA
HETATM   59  C   UNK N   1      25.058  20.157   3.546  0.00  0.00     0.126 C 
ENDBRANCH  56  57
ENDBRANCH   4  56
BRANCH  12  60
HETATM   60  O   UNK N   1      24.158  11.100   4.796  0.00  0.00    -0.305 OA
BRANCH  60  61
HETATM   61  C   UNK N   1      23.431   9.961   4.635  0.00  0.00     0.255 C 
HETATM   62  O   UNK N   1      23.013   9.377   5.621  0.00  0.00    -0.266 OA
HETATM   63  C   UNK N   1      23.152   9.387   3.281  0.00  0.00     0.126 C 
ENDBRANCH  60  61
ENDBRANCH  12  60
TORSDOF 17
ENDMDL
