MODEL 1
REMARK VINA RESULT:      -8.5      0.000      0.000
REMARK  10 active torsions:
REMARK  status: ('A' for Active; 'I' for Inactive)
REMARK    1  A    between atoms: C_17  and  C_4 
REMARK    2  A    between atoms: N_34  and  C_17 
REMARK    3  A    between atoms: C_27  and  C_18 
REMARK    4  A    between atoms: C_27  and  C_19 
REMARK    5  A    between atoms: C_20  and  N_35 
REMARK    6  A    between atoms: C_29  and  C_23 
REMARK    7  A    between atoms: C_28  and  C_24 
REMARK    8  A    between atoms: N_34  and  C_25 
REMARK    9  A    between atoms: N_37  and  C_26 
REMARK   10  A    between atoms: O_39  and  C_28 
ROOT
HETATM    1  C   UNK N   1      28.134  17.374   7.994  0.00  0.00     0.147 C 
HETATM    2  N   UNK N   1      27.378  17.886   7.074  0.00  0.00    -0.366 N 
ATOM      3  HN  UNK N   1      26.376  17.701   7.115  1.00  0.00     0.162 HD
HETATM    4  O   UNK N   1      27.563  16.746   9.037  0.00  0.00    -0.346 OA
HETATM    5  H   UNK N   1      27.111  16.253   9.692  0.00  0.00     0.219 HD
ENDROOT
BRANCH   1   6
HETATM    6  C   UNK N   1      29.618  17.437   7.922  0.00  0.00     0.022 A 
HETATM    7  C   UNK N   1      30.295  16.736   6.919  0.00  0.00     0.046 A 
HETATM    8  C   UNK N   1      31.698  16.780   6.824  0.00  0.00     0.043 A 
HETATM    9  C   UNK N   1      32.432  17.583   7.733  0.00  0.00     0.041 A 
HETATM   10  C   UNK N   1      31.741  18.276   8.738  0.00  0.00     0.026 A 
HETATM   11  C   UNK N   1      30.354  18.199   8.848  0.00  0.00    -0.046 A 
HETATM   12  C   UNK N   1      29.681  18.966   9.937  0.00  0.00     0.049 C 
BRANCH   8  13
HETATM   13  N   UNK N   1      32.377  16.005   5.842  0.00  0.00    -0.385 N 
HETATM   14  H   UNK N   1      33.016  15.325   6.156  0.00  0.00     0.160 HD
BRANCH  13  15
HETATM   15  C   UNK N   1      32.191  16.147   4.415  0.00  0.00     0.077 C 
HETATM   16  C   UNK N   1      32.093  17.628   4.093  0.00  0.00     0.032 C 
BRANCH  15  17
HETATM   17  C   UNK N   1      33.375  15.538   3.662  0.00  0.00     0.020 C 
HETATM   18  C   UNK N   1      34.315  14.793   4.597  0.00  0.00     0.007 C 
ENDBRANCH  15  17
ENDBRANCH  13  15
ENDBRANCH   8  13
BRANCH   9  19
HETATM   19  C   UNK N   1      33.916  17.723   7.661  0.00  0.00     0.146 C 
HETATM   20  N   UNK N   1      34.608  17.790   8.740  0.00  0.00    -0.379 N 
HETATM   21  H   UNK N   1      35.563  18.033   8.737  0.00  0.00     0.158 HD
ATOM     22  HN  UNK N   1      34.155  17.586   9.630  1.00  0.00     0.158 HD
BRANCH  19  23
HETATM   23  O   UNK N   1      34.547  17.809   6.474  0.00  0.00    -0.346 OA
HETATM   24  H   UNK N   1      35.168  17.157   6.216  0.00  0.00     0.219 HD
ENDBRANCH  19  23
ENDBRANCH   9  19
ENDBRANCH   1   6
BRANCH   2  25
HETATM   25  C   UNK N   1      27.883  18.706   5.993  0.00  0.00     0.087 C 
HETATM   26  C   UNK N   1      27.601  18.017   4.647  0.00  0.00     0.050 C 
HETATM   27  C   UNK N   1      26.315  18.486   3.965  0.00  0.00     0.088 C 
HETATM   28  C   UNK N   1      26.587  19.801   3.215  0.00  0.00     0.027 C 
HETATM   29  N   UNK N   1      25.371  18.927   4.949  0.00  0.00    -0.358 N 
HETATM   30  C   UNK N   1      26.082  20.924   4.158  0.00  0.00     0.027 C 
HETATM   31  C   UNK N   1      25.818  20.200   5.463  0.00  0.00     0.088 C 
HETATM   32  C   UNK N   1      27.220  20.095   6.117  0.00  0.00     0.050 C 
BRANCH  29  33
HETATM   33  C   UNK N   1      23.985  18.617   4.750  0.00  0.00     0.103 A 
HETATM   34  C   UNK N   1      23.230  19.286   3.777  0.00  0.00     0.049 A 
HETATM   35  C   UNK N   1      21.991  18.769   3.392  0.00  0.00     0.020 A 
HETATM   36  C   UNK N   1      21.506  17.592   3.980  0.00  0.00     0.026 A 
HETATM   37  C   UNK N   1      22.250  17.001   5.003  0.00  0.00     0.104 A 
HETATM   38  N   UNK N   1      23.457  17.509   5.353  0.00  0.00    -0.351 N 
ATOM     39  HN  UNK N   1      23.989  17.050   6.091  1.00  0.00     0.166 HD
BRANCH  36  40
HETATM   40  C   UNK N   1      20.280  16.922   3.482  0.00  0.00     0.165 C 
HETATM   41  O   UNK N   1      19.329  16.769   4.236  0.00  0.00    -0.292 OA
BRANCH  40  42
HETATM   42  C   UNK N   1      20.191  16.379   2.079  0.00  0.00     0.061 A 
HETATM   43  C   UNK N   1      20.014  14.866   2.131  0.00  0.00     0.013 A 
HETATM   44  C   UNK N   1      21.359  15.448   1.781  0.00  0.00     0.013 A 
ENDBRANCH  40  42
ENDBRANCH  36  40
ENDBRANCH  29  33
ENDBRANCH   2  25
TORSDOF 10
ENDMDL
MODEL 2
REMARK VINA RESULT:      -8.2      2.268     10.179
REMARK  10 active torsions:
REMARK  status: ('A' for Active; 'I' for Inactive)
REMARK    1  A    between atoms: C_17  and  C_4 
REMARK    2  A    between atoms: N_34  and  C_17 
REMARK    3  A    between atoms: C_27  and  C_18 
REMARK    4  A    between atoms: C_27  and  C_19 
REMARK    5  A    between atoms: C_20  and  N_35 
REMARK    6  A    between atoms: C_29  and  C_23 
REMARK    7  A    between atoms: C_28  and  C_24 
REMARK    8  A    between atoms: N_34  and  C_25 
REMARK    9  A    between atoms: N_37  and  C_26 
REMARK   10  A    between atoms: O_39  and  C_28 
ROOT
HETATM    1  C   UNK N   1      25.850  19.046   5.419  0.00  0.00     0.147 C 
HETATM    2  N   UNK N   1      26.621  18.018   5.251  0.00  0.00    -0.366 N 
ATOM      3  HN  UNK N   1      27.494  17.977   5.777  1.00  0.00     0.162 HD
HETATM    4  O   UNK N   1      26.152  19.940   6.377  0.00  0.00    -0.346 OA
HETATM    5  H   UNK N   1      26.460  20.567   7.002  0.00  0.00     0.219 HD
ENDROOT
BRANCH   1   6
HETATM    6  C   UNK N   1      24.654  19.283   4.570  0.00  0.00     0.022 A 
HETATM    7  C   UNK N   1      23.439  18.671   4.893  0.00  0.00     0.046 A 
HETATM    8  C   UNK N   1      22.290  18.882   4.109  0.00  0.00     0.043 A 
HETATM    9  C   UNK N   1      22.355  19.762   3.000  0.00  0.00     0.041 A 
HETATM   10  C   UNK N   1      23.581  20.366   2.684  0.00  0.00     0.026 A 
HETATM   11  C   UNK N   1      24.724  20.124   3.443  0.00  0.00    -0.046 A 
HETATM   12  C   UNK N   1      25.996  20.802   3.055  0.00  0.00     0.049 C 
BRANCH   8  13
HETATM   13  N   UNK N   1      21.079  18.195   4.410  0.00  0.00    -0.385 N 
HETATM   14  H   UNK N   1      20.293  18.737   4.650  0.00  0.00     0.160 HD
BRANCH  13  15
HETATM   15  C   UNK N   1      20.925  16.758   4.386  0.00  0.00     0.077 C 
HETATM   16  C   UNK N   1      19.443  16.439   4.313  0.00  0.00     0.032 C 
BRANCH  15  17
HETATM   17  C   UNK N   1      21.636  16.168   3.166  0.00  0.00     0.020 C 
HETATM   18  C   UNK N   1      20.649  15.606   2.156  0.00  0.00     0.007 C 
ENDBRANCH  15  17
ENDBRANCH  13  15
ENDBRANCH   8  13
BRANCH   9  19
HETATM   19  C   UNK N   1      21.166  20.077   2.156  0.00  0.00     0.146 C 
HETATM   20  N   UNK N   1      20.758  21.289   2.046  0.00  0.00    -0.379 N 
HETATM   21  H   UNK N   1      19.896  21.517   1.627  0.00  0.00     0.158 HD
ATOM     22  HN  UNK N   1      21.345  22.041   2.406  1.00  0.00     0.158 HD
BRANCH  19  23
HETATM   23  O   UNK N   1      20.488  19.100   1.523  0.00  0.00    -0.346 OA
HETATM   24  H   UNK N   1      19.629  19.259   1.184  0.00  0.00     0.219 HD
ENDBRANCH  19  23
ENDBRANCH   9  19
ENDBRANCH   1   6
BRANCH   2  25
HETATM   25  C   UNK N   1      26.308  16.925   4.353  0.00  0.00     0.087 C 
HETATM   26  C   UNK N   1      27.165  17.038   3.082  0.00  0.00     0.050 C 
HETATM   27  C   UNK N   1      28.447  16.206   3.119  0.00  0.00     0.088 C 
HETATM   28  C   UNK N   1      28.120  14.750   2.747  0.00  0.00     0.027 C 
HETATM   29  N   UNK N   1      28.888  16.046   4.473  0.00  0.00    -0.358 N 
HETATM   30  C   UNK N   1      28.007  13.996   4.098  0.00  0.00     0.027 C 
HETATM   31  C   UNK N   1      28.005  15.110   5.127  0.00  0.00     0.088 C 
HETATM   32  C   UNK N   1      26.537  15.610   5.128  0.00  0.00     0.050 C 
BRANCH  29  33
HETATM   33  C   UNK N   1      30.296  16.098   4.741  0.00  0.00     0.103 A 
HETATM   34  C   UNK N   1      31.088  17.136   4.233  0.00  0.00     0.049 A 
HETATM   35  C   UNK N   1      32.371  17.339   4.748  0.00  0.00     0.020 A 
HETATM   36  C   UNK N   1      32.862  16.505   5.762  0.00  0.00     0.026 A 
HETATM   37  C   UNK N   1      32.074  15.432   6.184  0.00  0.00     0.104 A 
HETATM   38  N   UNK N   1      30.826  15.260   5.683  0.00  0.00    -0.351 N 
ATOM     39  HN  UNK N   1      30.264  14.479   6.020  1.00  0.00     0.166 HD
BRANCH  36  40
HETATM   40  C   UNK N   1      34.146  16.789   6.450  0.00  0.00     0.165 C 
HETATM   41  O   UNK N   1      35.115  16.077   6.230  0.00  0.00    -0.292 OA
BRANCH  40  42
HETATM   42  C   UNK N   1      34.274  17.907   7.451  0.00  0.00     0.061 A 
HETATM   43  C   UNK N   1      34.094  17.350   8.858  0.00  0.00     0.013 A 
HETATM   44  C   UNK N   1      32.969  18.112   8.208  0.00  0.00     0.013 A 
ENDBRANCH  40  42
ENDBRANCH  36  40
ENDBRANCH  29  33
ENDBRANCH   2  25
TORSDOF 10
ENDMDL
MODEL 3
REMARK VINA RESULT:      -8.0      5.922     12.177
REMARK  10 active torsions:
REMARK  status: ('A' for Active; 'I' for Inactive)
REMARK    1  A    between atoms: C_17  and  C_4 
REMARK    2  A    between atoms: N_34  and  C_17 
REMARK    3  A    between atoms: C_27  and  C_18 
REMARK    4  A    between atoms: C_27  and  C_19 
REMARK    5  A    between atoms: C_20  and  N_35 
REMARK    6  A    between atoms: C_29  and  C_23 
REMARK    7  A    between atoms: C_28  and  C_24 
REMARK    8  A    between atoms: N_34  and  C_25 
REMARK    9  A    between atoms: N_37  and  C_26 
REMARK   10  A    between atoms: O_39  and  C_28 
ROOT
HETATM    1  C   UNK N   1      31.807  15.487   9.644  0.00  0.00     0.147 C 
HETATM    2  N   UNK N   1      32.999  15.286  10.112  0.00  0.00    -0.366 N 
ATOM      3  HN  UNK N   1      33.102  15.117  11.113  1.00  0.00     0.162 HD
HETATM    4  O   UNK N   1      30.748  15.326  10.456  0.00  0.00    -0.346 OA
HETATM    5  H   UNK N   1      30.060  15.278  11.090  0.00  0.00     0.219 HD
ENDROOT
BRANCH   1   6
HETATM    6  C   UNK N   1      31.574  15.917   8.240  0.00  0.00     0.022 A 
HETATM    7  C   UNK N   1      31.832  15.031   7.190  0.00  0.00     0.046 A 
HETATM    8  C   UNK N   1      31.615  15.410   5.852  0.00  0.00     0.043 A 
HETATM    9  C   UNK N   1      31.087  16.694   5.568  0.00  0.00     0.041 A 
HETATM   10  C   UNK N   1      30.837  17.575   6.631  0.00  0.00     0.026 A 
HETATM   11  C   UNK N   1      31.088  17.206   7.952  0.00  0.00    -0.046 A 
HETATM   12  C   UNK N   1      30.796  18.190   9.035  0.00  0.00     0.049 C 
BRANCH   8  13
HETATM   13  N   UNK N   1      31.950  14.522   4.791  0.00  0.00    -0.385 N 
HETATM   14  H   UNK N   1      31.212  14.136   4.266  0.00  0.00     0.160 HD
BRANCH  13  15
HETATM   15  C   UNK N   1      33.300  14.149   4.430  0.00  0.00     0.077 C 
HETATM   16  C   UNK N   1      33.342  13.903   2.933  0.00  0.00     0.032 C 
BRANCH  15  17
HETATM   17  C   UNK N   1      34.275  15.271   4.792  0.00  0.00     0.020 C 
HETATM   18  C   UNK N   1      35.483  14.745   5.550  0.00  0.00     0.007 C 
ENDBRANCH  15  17
ENDBRANCH  13  15
ENDBRANCH   8  13
BRANCH   9  19
HETATM   19  C   UNK N   1      30.780  17.146   4.181  0.00  0.00     0.146 C 
HETATM   20  N   UNK N   1      29.561  17.293   3.806  0.00  0.00    -0.379 N 
HETATM   21  H   UNK N   1      29.315  17.440   2.864  0.00  0.00     0.158 HD
ATOM     22  HN  UNK N   1      28.823  17.254   4.508  1.00  0.00     0.158 HD
BRANCH  19  23
HETATM   23  O   UNK N   1      31.767  17.378   3.294  0.00  0.00    -0.346 OA
HETATM   24  H   UNK N   1      32.402  18.049   3.451  0.00  0.00     0.219 HD
ENDBRANCH  19  23
ENDBRANCH   9  19
ENDBRANCH   1   6
BRANCH   2  25
HETATM   25  C   UNK N   1      34.190  15.288   9.289  0.00  0.00     0.087 C 
HETATM   26  C   UNK N   1      35.315  16.051  10.008  0.00  0.00     0.050 C 
HETATM   27  C   UNK N   1      36.264  15.157  10.805  0.00  0.00     0.088 C 
HETATM   28  C   UNK N   1      37.310  14.549   9.855  0.00  0.00     0.027 C 
HETATM   29  N   UNK N   1      35.577  13.977  11.240  0.00  0.00    -0.358 N 
HETATM   30  C   UNK N   1      36.794  13.122   9.535  0.00  0.00     0.027 C 
HETATM   31  C   UNK N   1      35.385  13.120  10.094  0.00  0.00     0.088 C 
HETATM   32  C   UNK N   1      34.548  13.816   8.990  0.00  0.00     0.050 C 
BRANCH  29  33
HETATM   33  C   UNK N   1      35.862  13.466  12.549  0.00  0.00     0.103 A 
HETATM   34  C   UNK N   1      36.415  14.289  13.539  0.00  0.00     0.049 A 
HETATM   35  C   UNK N   1      36.400  13.870  14.871  0.00  0.00     0.020 A 
HETATM   36  C   UNK N   1      35.841  12.630  15.212  0.00  0.00     0.026 A 
HETATM   37  C   UNK N   1      35.375  11.803  14.188  0.00  0.00     0.104 A 
HETATM   38  N   UNK N   1      35.384  12.234  12.903  0.00  0.00    -0.351 N 
ATOM     39  HN  UNK N   1      35.023  11.619  12.175  1.00  0.00     0.166 HD
BRANCH  36  40
HETATM   40  C   UNK N   1      35.654  12.223  16.627  0.00  0.00     0.165 C 
HETATM   41  O   UNK N   1      36.232  11.232  17.048  0.00  0.00    -0.292 OA
BRANCH  40  42
HETATM   42  C   UNK N   1      34.729  12.975  17.549  0.00  0.00     0.061 A 
HETATM   43  C   UNK N   1      35.462  14.177  18.131  0.00  0.00     0.013 A 
HETATM   44  C   UNK N   1      35.250  12.950  18.980  0.00  0.00     0.013 A 
ENDBRANCH  40  42
ENDBRANCH  36  40
ENDBRANCH  29  33
ENDBRANCH   2  25
TORSDOF 10
ENDMDL
MODEL 4
REMARK VINA RESULT:      -8.0      6.187     12.429
REMARK  10 active torsions:
REMARK  status: ('A' for Active; 'I' for Inactive)
REMARK    1  A    between atoms: C_17  and  C_4 
REMARK    2  A    between atoms: N_34  and  C_17 
REMARK    3  A    between atoms: C_27  and  C_18 
REMARK    4  A    between atoms: C_27  and  C_19 
REMARK    5  A    between atoms: C_20  and  N_35 
REMARK    6  A    between atoms: C_29  and  C_23 
REMARK    7  A    between atoms: C_28  and  C_24 
REMARK    8  A    between atoms: N_34  and  C_25 
REMARK    9  A    between atoms: N_37  and  C_26 
REMARK   10  A    between atoms: O_39  and  C_28 
ROOT
HETATM    1  C   UNK N   1      32.795  15.421   8.952  0.00  0.00     0.147 C 
HETATM    2  N   UNK N   1      33.829  14.913   9.547  0.00  0.00    -0.366 N 
ATOM      3  HN  UNK N   1      33.819  14.853  10.565  1.00  0.00     0.162 HD
HETATM    4  O   UNK N   1      31.701  15.714   9.677  0.00  0.00    -0.346 OA
HETATM    5  H   UNK N   1      31.004  15.971  10.247  0.00  0.00     0.219 HD
ENDROOT
BRANCH   1   6
HETATM    6  C   UNK N   1      32.788  15.716   7.496  0.00  0.00     0.022 A 
HETATM    7  C   UNK N   1      32.340  14.747   6.592  0.00  0.00     0.046 A 
HETATM    8  C   UNK N   1      32.318  15.001   5.209  0.00  0.00     0.043 A 
HETATM    9  C   UNK N   1      32.716  16.273   4.727  0.00  0.00     0.041 A 
HETATM   10  C   UNK N   1      33.169  17.234   5.643  0.00  0.00     0.026 A 
HETATM   11  C   UNK N   1      33.223  16.964   7.009  0.00  0.00    -0.046 A 
HETATM   12  C   UNK N   1      33.711  18.032   7.930  0.00  0.00     0.049 C 
BRANCH   8  13
HETATM   13  N   UNK N   1      31.925  13.980   4.297  0.00  0.00    -0.385 N 
HETATM   14  H   UNK N   1      32.636  13.477   3.838  0.00  0.00     0.160 HD
BRANCH  13  15
HETATM   15  C   UNK N   1      30.553  13.632   3.999  0.00  0.00     0.077 C 
HETATM   16  C   UNK N   1      30.285  12.242   4.549  0.00  0.00     0.032 C 
BRANCH  15  17
HETATM   17  C   UNK N   1      29.598  14.633   4.651  0.00  0.00     0.020 C 
HETATM   18  C   UNK N   1      28.969  15.563   3.626  0.00  0.00     0.007 C 
ENDBRANCH  15  17
ENDBRANCH  13  15
ENDBRANCH   8  13
BRANCH   9  19
HETATM   19  C   UNK N   1      32.669  16.634   3.281  0.00  0.00     0.146 C 
HETATM   20  N   UNK N   1      31.870  17.551   2.872  0.00  0.00    -0.379 N 
HETATM   21  H   UNK N   1      31.699  17.712   1.915  0.00  0.00     0.158 HD
ATOM     22  HN  UNK N   1      31.394  18.133   3.561  1.00  0.00     0.158 HD
BRANCH  19  23
HETATM   23  O   UNK N   1      33.436  15.989   2.380  0.00  0.00    -0.346 OA
HETATM   24  H   UNK N   1      34.326  15.774   2.579  0.00  0.00     0.219 HD
ENDBRANCH  19  23
ENDBRANCH   9  19
ENDBRANCH   1   6
BRANCH   2  25
HETATM   25  C   UNK N   1      34.996  14.428   8.840  0.00  0.00     0.087 C 
HETATM   26  C   UNK N   1      36.269  14.841   9.599  0.00  0.00     0.050 C 
HETATM   27  C   UNK N   1      36.803  13.768  10.548  0.00  0.00     0.088 C 
HETATM   28  C   UNK N   1      37.632  12.748   9.749  0.00  0.00     0.027 C 
HETATM   29  N   UNK N   1      35.727  12.941  11.008  0.00  0.00    -0.358 N 
HETATM   30  C   UNK N   1      36.678  11.552   9.496  0.00  0.00     0.027 C 
HETATM   31  C   UNK N   1      35.323  12.083   9.920  0.00  0.00     0.088 C 
HETATM   32  C   UNK N   1      34.844  12.899   8.691  0.00  0.00     0.050 C 
BRANCH  29  33
HETATM   33  C   UNK N   1      35.740  12.504  12.374  0.00  0.00     0.103 A 
HETATM   34  C   UNK N   1      36.857  12.726  13.190  0.00  0.00     0.049 A 
HETATM   35  C   UNK N   1      36.740  12.575  14.574  0.00  0.00     0.020 A 
HETATM   36  C   UNK N   1      35.513  12.200  15.139  0.00  0.00     0.026 A 
HETATM   37  C   UNK N   1      34.446  11.909  14.287  0.00  0.00     0.104 A 
HETATM   38  N   UNK N   1      34.575  12.075  12.947  0.00  0.00    -0.351 N 
ATOM     39  HN  UNK N   1      33.776  11.873  12.347  1.00  0.00     0.166 HD
BRANCH  36  40
HETATM   40  C   UNK N   1      35.302  12.193  16.608  0.00  0.00     0.165 C 
HETATM   41  O   UNK N   1      35.564  11.185  17.248  0.00  0.00    -0.292 OA
BRANCH  40  42
HETATM   42  C   UNK N   1      34.727  13.385  17.328  0.00  0.00     0.061 A 
HETATM   43  C   UNK N   1      35.861  14.290  17.794  0.00  0.00     0.013 A 
HETATM   44  C   UNK N   1      35.162  13.400  18.788  0.00  0.00     0.013 A 
ENDBRANCH  40  42
ENDBRANCH  36  40
ENDBRANCH  29  33
ENDBRANCH   2  25
TORSDOF 10
ENDMDL
MODEL 5
REMARK VINA RESULT:      -7.9      6.341     12.436
REMARK  10 active torsions:
REMARK  status: ('A' for Active; 'I' for Inactive)
REMARK    1  A    between atoms: C_17  and  C_4 
REMARK    2  A    between atoms: N_34  and  C_17 
REMARK    3  A    between atoms: C_27  and  C_18 
REMARK    4  A    between atoms: C_27  and  C_19 
REMARK    5  A    between atoms: C_20  and  N_35 
REMARK    6  A    between atoms: C_29  and  C_23 
REMARK    7  A    between atoms: C_28  and  C_24 
REMARK    8  A    between atoms: N_34  and  C_25 
REMARK    9  A    between atoms: N_37  and  C_26 
REMARK   10  A    between atoms: O_39  and  C_28 
ROOT
HETATM    1  C   UNK N   1      32.686  15.519   9.123  0.00  0.00     0.147 C 
HETATM    2  N   UNK N   1      33.742  15.107   9.749  0.00  0.00    -0.366 N 
ATOM      3  HN  UNK N   1      33.715  15.068  10.768  1.00  0.00     0.162 HD
HETATM    4  O   UNK N   1      31.557  15.742   9.819  0.00  0.00    -0.346 OA
HETATM    5  H   UNK N   1      30.829  15.956  10.369  0.00  0.00     0.219 HD
ENDROOT
BRANCH   1   6
HETATM    6  C   UNK N   1      32.687  15.781   7.660  0.00  0.00     0.022 A 
HETATM    7  C   UNK N   1      32.282  14.779   6.774  0.00  0.00     0.046 A 
HETATM    8  C   UNK N   1      32.269  15.001   5.384  0.00  0.00     0.043 A 
HETATM    9  C   UNK N   1      32.632  16.275   4.879  0.00  0.00     0.041 A 
HETATM   10  C   UNK N   1      33.043  17.269   5.778  0.00  0.00     0.026 A 
HETATM   11  C   UNK N   1      33.088  17.031   7.151  0.00  0.00    -0.046 A 
HETATM   12  C   UNK N   1      33.530  18.135   8.053  0.00  0.00     0.049 C 
BRANCH   8  13
HETATM   13  N   UNK N   1      31.921  13.948   4.491  0.00  0.00    -0.385 N 
HETATM   14  H   UNK N   1      32.648  13.387   4.138  0.00  0.00     0.160 HD
BRANCH  13  15
HETATM   15  C   UNK N   1      30.571  13.645   4.069  0.00  0.00     0.077 C 
HETATM   16  C   UNK N   1      30.310  12.173   4.330  0.00  0.00     0.032 C 
BRANCH  15  17
HETATM   17  C   UNK N   1      29.567  14.490   4.856  0.00  0.00     0.020 C 
HETATM   18  C   UNK N   1      28.854  15.494   3.965  0.00  0.00     0.007 C 
ENDBRANCH  15  17
ENDBRANCH  13  15
ENDBRANCH   8  13
BRANCH   9  19
HETATM   19  C   UNK N   1      32.592  16.601   3.424  0.00  0.00     0.146 C 
HETATM   20  N   UNK N   1      31.768  17.482   2.985  0.00  0.00    -0.379 N 
HETATM   21  H   UNK N   1      31.604  17.615   2.023  0.00  0.00     0.158 HD
ATOM     22  HN  UNK N   1      31.265  18.062   3.655  1.00  0.00     0.158 HD
BRANCH  19  23
HETATM   23  O   UNK N   1      33.391  15.962   2.548  0.00  0.00    -0.346 OA
HETATM   24  H   UNK N   1      34.220  16.325   2.306  0.00  0.00     0.219 HD
ENDBRANCH  19  23
ENDBRANCH   9  19
ENDBRANCH   1   6
BRANCH   2  25
HETATM   25  C   UNK N   1      34.959  14.699   9.078  0.00  0.00     0.087 C 
HETATM   26  C   UNK N   1      36.179  15.172   9.885  0.00  0.00     0.050 C 
HETATM   27  C   UNK N   1      36.742  14.119  10.838  0.00  0.00     0.088 C 
HETATM   28  C   UNK N   1      37.654  13.159  10.057  0.00  0.00     0.027 C 
HETATM   29  N   UNK N   1      35.701  13.225  11.252  0.00  0.00    -0.358 N 
HETATM   30  C   UNK N   1      36.780  11.914   9.756  0.00  0.00     0.027 C 
HETATM   31  C   UNK N   1      35.383  12.361  10.140  0.00  0.00     0.088 C 
HETATM   32  C   UNK N   1      34.900  13.165   8.905  0.00  0.00     0.050 C 
BRANCH  29  33
HETATM   33  C   UNK N   1      35.692  12.771  12.611  0.00  0.00     0.103 A 
HETATM   34  C   UNK N   1      36.668  13.201  13.520  0.00  0.00     0.049 A 
HETATM   35  C   UNK N   1      36.472  13.000  14.888  0.00  0.00     0.020 A 
HETATM   36  C   UNK N   1      35.308  12.366  15.346  0.00  0.00     0.026 A 
HETATM   37  C   UNK N   1      34.399  11.879  14.406  0.00  0.00     0.104 A 
HETATM   38  N   UNK N   1      34.599  12.098  13.083  0.00  0.00    -0.351 N 
ATOM     39  HN  UNK N   1      33.912  11.747  12.416  1.00  0.00     0.166 HD
BRANCH  36  40
HETATM   40  C   UNK N   1      34.984  12.284  16.792  0.00  0.00     0.165 C 
HETATM   41  O   UNK N   1      34.790  13.313  17.424  0.00  0.00    -0.292 OA
BRANCH  40  42
HETATM   42  C   UNK N   1      34.934  10.963  17.516  0.00  0.00     0.061 A 
HETATM   43  C   UNK N   1      36.035  10.921  18.569  0.00  0.00     0.013 A 
HETATM   44  C   UNK N   1      36.208  10.163  17.278  0.00  0.00     0.013 A 
ENDBRANCH  40  42
ENDBRANCH  36  40
ENDBRANCH  29  33
ENDBRANCH   2  25
TORSDOF 10
ENDMDL
MODEL 6
REMARK VINA RESULT:      -7.8      2.352      3.406
REMARK  10 active torsions:
REMARK  status: ('A' for Active; 'I' for Inactive)
REMARK    1  A    between atoms: C_17  and  C_4 
REMARK    2  A    between atoms: N_34  and  C_17 
REMARK    3  A    between atoms: C_27  and  C_18 
REMARK    4  A    between atoms: C_27  and  C_19 
REMARK    5  A    between atoms: C_20  and  N_35 
REMARK    6  A    between atoms: C_29  and  C_23 
REMARK    7  A    between atoms: C_28  and  C_24 
REMARK    8  A    between atoms: N_34  and  C_25 
REMARK    9  A    between atoms: N_37  and  C_26 
REMARK   10  A    between atoms: O_39  and  C_28 
ROOT
HETATM    1  C   UNK N   1      28.399  17.802   5.685  0.00  0.00     0.147 C 
HETATM    2  N   UNK N   1      27.353  17.095   5.394  0.00  0.00    -0.366 N 
ATOM      3  HN  UNK N   1      26.609  17.533   4.850  1.00  0.00     0.162 HD
HETATM    4  O   UNK N   1      28.532  19.027   5.146  0.00  0.00    -0.346 OA
HETATM    5  H   UNK N   1      28.527  19.899   4.805  0.00  0.00     0.219 HD
ENDROOT
BRANCH   1   6
HETATM    6  C   UNK N   1      29.447  17.314   6.619  0.00  0.00     0.022 A 
HETATM    7  C   UNK N   1      30.552  16.617   6.121  0.00  0.00     0.046 A 
HETATM    8  C   UNK N   1      31.561  16.147   6.982  0.00  0.00     0.043 A 
HETATM    9  C   UNK N   1      31.477  16.423   8.370  0.00  0.00     0.041 A 
HETATM   10  C   UNK N   1      30.360  17.118   8.857  0.00  0.00     0.026 A 
HETATM   11  C   UNK N   1      29.346  17.549   8.004  0.00  0.00    -0.046 A 
HETATM   12  C   UNK N   1      28.188  18.288   8.587  0.00  0.00     0.049 C 
BRANCH   8  13
HETATM   13  N   UNK N   1      32.644  15.378   6.468  0.00  0.00    -0.385 N 
HETATM   14  H   UNK N   1      32.750  14.458   6.800  0.00  0.00     0.160 HD
BRANCH  13  15
HETATM   15  C   UNK N   1      33.596  15.857   5.490  0.00  0.00     0.077 C 
HETATM   16  C   UNK N   1      33.887  17.317   5.785  0.00  0.00     0.032 C 
BRANCH  15  17
HETATM   17  C   UNK N   1      34.893  15.050   5.574  0.00  0.00     0.020 C 
HETATM   18  C   UNK N   1      35.339  14.846   7.013  0.00  0.00     0.007 C 
ENDBRANCH  15  17
ENDBRANCH  13  15
ENDBRANCH   8  13
BRANCH   9  19
HETATM   19  C   UNK N   1      32.534  16.005   9.335  0.00  0.00     0.146 C 
HETATM   20  N   UNK N   1      32.340  14.995  10.103  0.00  0.00    -0.379 N 
HETATM   21  H   UNK N   1      32.942  14.781  10.853  0.00  0.00     0.158 HD
ATOM     22  HN  UNK N   1      31.534  14.394   9.933  1.00  0.00     0.158 HD
BRANCH  19  23
HETATM   23  O   UNK N   1      33.689  16.690   9.439  0.00  0.00    -0.346 OA
HETATM   24  H   UNK N   1      34.291  16.508  10.133  0.00  0.00     0.219 HD
ENDBRANCH  19  23
ENDBRANCH   9  19
ENDBRANCH   1   6
BRANCH   2  25
HETATM   25  C   UNK N   1      27.185  15.716   5.801  0.00  0.00     0.087 C 
HETATM   26  C   UNK N   1      26.159  15.634   6.944  0.00  0.00     0.050 C 
HETATM   27  C   UNK N   1      24.735  15.328   6.482  0.00  0.00     0.088 C 
HETATM   28  C   UNK N   1      24.584  13.813   6.264  0.00  0.00     0.027 C 
HETATM   29  N   UNK N   1      24.537  15.814   5.148  0.00  0.00    -0.358 N 
HETATM   30  C   UNK N   1      24.752  13.599   4.737  0.00  0.00     0.027 C 
HETATM   31  C   UNK N   1      25.249  14.943   4.242  0.00  0.00     0.088 C 
HETATM   32  C   UNK N   1      26.768  14.911   4.550  0.00  0.00     0.050 C 
BRANCH  29  33
HETATM   33  C   UNK N   1      23.273  16.405   4.818  0.00  0.00     0.103 A 
HETATM   34  C   UNK N   1      22.714  17.405   5.625  0.00  0.00     0.049 A 
HETATM   35  C   UNK N   1      21.656  18.174   5.136  0.00  0.00     0.020 A 
HETATM   36  C   UNK N   1      21.154  17.941   3.847  0.00  0.00     0.026 A 
HETATM   37  C   UNK N   1      21.684  16.883   3.106  0.00  0.00     0.104 A 
HETATM   38  N   UNK N   1      22.720  16.157   3.592  0.00  0.00    -0.351 N 
ATOM     39  HN  UNK N   1      23.101  15.401   3.025  1.00  0.00     0.166 HD
BRANCH  36  40
HETATM   40  C   UNK N   1      20.150  18.841   3.229  0.00  0.00     0.165 C 
HETATM   41  O   UNK N   1      19.095  18.374   2.820  0.00  0.00    -0.292 OA
BRANCH  40  42
HETATM   42  C   UNK N   1      20.414  20.313   3.046  0.00  0.00     0.061 A 
HETATM   43  C   UNK N   1      20.703  20.597   1.578  0.00  0.00     0.013 A 
HETATM   44  C   UNK N   1      21.839  20.554   2.566  0.00  0.00     0.013 A 
ENDBRANCH  40  42
ENDBRANCH  36  40
ENDBRANCH  29  33
ENDBRANCH   2  25
TORSDOF 10
ENDMDL
MODEL 7
REMARK VINA RESULT:      -7.6      3.466      5.314
REMARK  10 active torsions:
REMARK  status: ('A' for Active; 'I' for Inactive)
REMARK    1  A    between atoms: C_17  and  C_4 
REMARK    2  A    between atoms: N_34  and  C_17 
REMARK    3  A    between atoms: C_27  and  C_18 
REMARK    4  A    between atoms: C_27  and  C_19 
REMARK    5  A    between atoms: C_20  and  N_35 
REMARK    6  A    between atoms: C_29  and  C_23 
REMARK    7  A    between atoms: C_28  and  C_24 
REMARK    8  A    between atoms: N_34  and  C_25 
REMARK    9  A    between atoms: N_37  and  C_26 
REMARK   10  A    between atoms: O_39  and  C_28 
ROOT
HETATM    1  C   UNK N   1      31.510  16.701   8.511  0.00  0.00     0.147 C 
HETATM    2  N   UNK N   1      30.993  16.521   7.336  0.00  0.00    -0.366 N 
ATOM      3  HN  UNK N   1      30.044  16.856   7.169  1.00  0.00     0.162 HD
HETATM    4  O   UNK N   1      30.841  17.440   9.414  0.00  0.00    -0.346 OA
HETATM    5  H   UNK N   1      30.292  17.894  10.022  0.00  0.00     0.219 HD
ENDROOT
BRANCH   1   6
HETATM    6  C   UNK N   1      32.808  16.094   8.904  0.00  0.00     0.022 A 
HETATM    7  C   UNK N   1      32.846  14.778   9.375  0.00  0.00     0.046 A 
HETATM    8  C   UNK N   1      34.062  14.177   9.750  0.00  0.00     0.043 A 
HETATM    9  C   UNK N   1      35.271  14.903   9.607  0.00  0.00     0.041 A 
HETATM   10  C   UNK N   1      35.218  16.224   9.139  0.00  0.00     0.026 A 
HETATM   11  C   UNK N   1      34.007  16.826   8.803  0.00  0.00    -0.046 A 
HETATM   12  C   UNK N   1      34.022  18.233   8.307  0.00  0.00     0.049 C 
BRANCH   8  13
HETATM   13  N   UNK N   1      34.076  12.861  10.293  0.00  0.00    -0.385 N 
HETATM   14  H   UNK N   1      34.356  12.756  11.231  0.00  0.00     0.160 HD
BRANCH  13  15
HETATM   15  C   UNK N   1      33.705  11.670   9.563  0.00  0.00     0.077 C 
HETATM   16  C   UNK N   1      34.504  11.634   8.273  0.00  0.00     0.032 C 
BRANCH  15  17
HETATM   17  C   UNK N   1      34.014  10.421  10.391  0.00  0.00     0.020 C 
HETATM   18  C   UNK N   1      34.396  10.773  11.820  0.00  0.00     0.007 C 
ENDBRANCH  15  17
ENDBRANCH  13  15
ENDBRANCH   8  13
BRANCH   9  19
HETATM   19  C   UNK N   1      36.602  14.315   9.932  0.00  0.00     0.146 C 
HETATM   20  N   UNK N   1      37.093  14.446  11.111  0.00  0.00    -0.379 N 
HETATM   21  H   UNK N   1      38.025  14.208  11.322  0.00  0.00     0.158 HD
ATOM     22  HN  UNK N   1      36.498  14.811  11.854  1.00  0.00     0.158 HD
BRANCH  19  23
HETATM   23  O   UNK N   1      37.321  13.665   8.995  0.00  0.00    -0.346 OA
HETATM   24  H   UNK N   1      37.894  12.964   9.235  0.00  0.00     0.219 HD
ENDBRANCH  19  23
ENDBRANCH   9  19
ENDBRANCH   1   6
BRANCH   2  25
HETATM   25  C   UNK N   1      31.693  15.870   6.249  0.00  0.00     0.087 C 
HETATM   26  C   UNK N   1      30.764  14.848   5.573  0.00  0.00     0.050 C 
HETATM   27  C   UNK N   1      30.034  15.389   4.343  0.00  0.00     0.088 C 
HETATM   28  C   UNK N   1      30.969  15.318   3.124  0.00  0.00     0.027 C 
HETATM   29  N   UNK N   1      29.855  16.806   4.463  0.00  0.00    -0.358 N 
HETATM   30  C   UNK N   1      31.555  16.745   2.971  0.00  0.00     0.027 C 
HETATM   31  C   UNK N   1      31.134  17.441   4.251  0.00  0.00     0.088 C 
HETATM   32  C   UNK N   1      32.187  16.973   5.289  0.00  0.00     0.050 C 
BRANCH  29  33
HETATM   33  C   UNK N   1      28.623  17.378   4.005  0.00  0.00     0.103 A 
HETATM   34  C   UNK N   1      27.554  16.563   3.609  0.00  0.00     0.049 A 
HETATM   35  C   UNK N   1      26.281  17.119   3.463  0.00  0.00     0.020 A 
HETATM   36  C   UNK N   1      26.078  18.485   3.706  0.00  0.00     0.026 A 
HETATM   37  C   UNK N   1      27.182  19.279   4.020  0.00  0.00     0.104 A 
HETATM   38  N   UNK N   1      28.407  18.718   4.171  0.00  0.00    -0.351 N 
ATOM     39  HN  UNK N   1      29.195  19.316   4.417  1.00  0.00     0.166 HD
BRANCH  36  40
HETATM   40  C   UNK N   1      24.718  19.077   3.727  0.00  0.00     0.165 C 
HETATM   41  O   UNK N   1      24.479  20.058   3.036  0.00  0.00    -0.292 OA
BRANCH  40  42
HETATM   42  C   UNK N   1      23.631  18.530   4.615  0.00  0.00     0.061 A 
HETATM   43  C   UNK N   1      22.830  17.484   3.850  0.00  0.00     0.013 A 
HETATM   44  C   UNK N   1      22.253  18.860   4.056  0.00  0.00     0.013 A 
ENDBRANCH  40  42
ENDBRANCH  36  40
ENDBRANCH  29  33
ENDBRANCH   2  25
TORSDOF 10
ENDMDL
MODEL 8
REMARK VINA RESULT:      -7.4      8.007     11.728
REMARK  10 active torsions:
REMARK  status: ('A' for Active; 'I' for Inactive)
REMARK    1  A    between atoms: C_17  and  C_4 
REMARK    2  A    between atoms: N_34  and  C_17 
REMARK    3  A    between atoms: C_27  and  C_18 
REMARK    4  A    between atoms: C_27  and  C_19 
REMARK    5  A    between atoms: C_20  and  N_35 
REMARK    6  A    between atoms: C_29  and  C_23 
REMARK    7  A    between atoms: C_28  and  C_24 
REMARK    8  A    between atoms: N_34  and  C_25 
REMARK    9  A    between atoms: N_37  and  C_26 
REMARK   10  A    between atoms: O_39  and  C_28 
ROOT
HETATM    1  C   UNK N   1      33.818  10.516  11.491  0.00  0.00     0.147 C 
HETATM    2  N   UNK N   1      34.275  11.505  10.789  0.00  0.00    -0.366 N 
ATOM      3  HN  UNK N   1      33.799  11.740   9.918  1.00  0.00     0.162 HD
HETATM    4  O   UNK N   1      32.663   9.933  11.125  0.00  0.00    -0.346 OA
HETATM    5  H   UNK N   1      31.900   9.518  10.774  0.00  0.00     0.219 HD
ENDROOT
BRANCH   1   6
HETATM    6  C   UNK N   1      34.544   9.986  12.674  0.00  0.00     0.022 A 
HETATM    7  C   UNK N   1      34.227  10.455  13.952  0.00  0.00     0.046 A 
HETATM    8  C   UNK N   1      34.895   9.968  15.090  0.00  0.00     0.043 A 
HETATM    9  C   UNK N   1      35.874   8.954  14.942  0.00  0.00     0.041 A 
HETATM   10  C   UNK N   1      36.187   8.496  13.654  0.00  0.00     0.026 A 
HETATM   11  C   UNK N   1      35.547   9.009  12.527  0.00  0.00    -0.046 A 
HETATM   12  C   UNK N   1      35.924   8.474  11.186  0.00  0.00     0.049 C 
BRANCH   8  13
HETATM   13  N   UNK N   1      34.610  10.507  16.377  0.00  0.00    -0.385 N 
HETATM   14  H   UNK N   1      33.807  10.179  16.844  0.00  0.00     0.160 HD
BRANCH  13  15
HETATM   15  C   UNK N   1      35.418  11.502  17.045  0.00  0.00     0.077 C 
HETATM   16  C   UNK N   1      34.857  12.873  16.713  0.00  0.00     0.032 C 
BRANCH  15  17
HETATM   17  C   UNK N   1      35.381  11.287  18.560  0.00  0.00     0.020 C 
HETATM   18  C   UNK N   1      35.308  12.605  19.314  0.00  0.00     0.007 C 
ENDBRANCH  15  17
ENDBRANCH  13  15
ENDBRANCH   8  13
BRANCH   9  19
HETATM   19  C   UNK N   1      36.585   8.350  16.106  0.00  0.00     0.146 C 
HETATM   20  N   UNK N   1      37.868   8.296  16.119  0.00  0.00    -0.379 N 
HETATM   21  H   UNK N   1      38.365   7.774  16.790  0.00  0.00     0.158 HD
ATOM     22  HN  UNK N   1      38.389   8.809  15.409  1.00  0.00     0.158 HD
BRANCH  19  23
HETATM   23  O   UNK N   1      35.901   7.830  17.143  0.00  0.00    -0.346 OA
HETATM   24  H   UNK N   1      35.969   8.207  17.998  0.00  0.00     0.219 HD
ENDBRANCH  19  23
ENDBRANCH   9  19
ENDBRANCH   1   6
BRANCH   2  25
HETATM   25  C   UNK N   1      35.426  12.294  11.178  0.00  0.00     0.087 C 
HETATM   26  C   UNK N   1      36.166  12.783   9.922  0.00  0.00     0.050 C 
HETATM   27  C   UNK N   1      35.767  14.188   9.472  0.00  0.00     0.088 C 
HETATM   28  C   UNK N   1      36.534  15.228  10.307  0.00  0.00     0.027 C 
HETATM   29  N   UNK N   1      34.418  14.466   9.869  0.00  0.00    -0.358 N 
HETATM   30  C   UNK N   1      35.544  15.679  11.412  0.00  0.00     0.027 C 
HETATM   31  C   UNK N   1      34.405  14.685  11.296  0.00  0.00     0.088 C 
HETATM   32  C   UNK N   1      34.917  13.444  12.073  0.00  0.00     0.050 C 
BRANCH  29  33
HETATM   33  C   UNK N   1      33.579  15.199   8.967  0.00  0.00     0.103 A 
HETATM   34  C   UNK N   1      32.963  14.564   7.880  0.00  0.00     0.049 A 
HETATM   35  C   UNK N   1      31.924  15.209   7.204  0.00  0.00     0.020 A 
HETATM   36  C   UNK N   1      31.507  16.485   7.609  0.00  0.00     0.026 A 
HETATM   37  C   UNK N   1      32.200  17.117   8.643  0.00  0.00     0.104 A 
HETATM   38  N   UNK N   1      33.196  16.470   9.296  0.00  0.00    -0.351 N 
ATOM     39  HN  UNK N   1      33.675  16.946  10.059  1.00  0.00     0.166 HD
BRANCH  36  40
HETATM   40  C   UNK N   1      30.303  17.131   7.029  0.00  0.00     0.165 C 
HETATM   41  O   UNK N   1      29.968  16.859   5.885  0.00  0.00    -0.292 OA
BRANCH  40  42
HETATM   42  C   UNK N   1      29.507  18.152   7.799  0.00  0.00     0.061 A 
HETATM   43  C   UNK N   1      28.273  17.486   8.397  0.00  0.00     0.013 A 
HETATM   44  C   UNK N   1      28.133  18.355   7.174  0.00  0.00     0.013 A 
ENDBRANCH  40  42
ENDBRANCH  36  40
ENDBRANCH  29  33
ENDBRANCH   2  25
TORSDOF 10
ENDMDL
MODEL 9
REMARK VINA RESULT:      -7.4      2.887     10.492
REMARK  10 active torsions:
REMARK  status: ('A' for Active; 'I' for Inactive)
REMARK    1  A    between atoms: C_17  and  C_4 
REMARK    2  A    between atoms: N_34  and  C_17 
REMARK    3  A    between atoms: C_27  and  C_18 
REMARK    4  A    between atoms: C_27  and  C_19 
REMARK    5  A    between atoms: C_20  and  N_35 
REMARK    6  A    between atoms: C_29  and  C_23 
REMARK    7  A    between atoms: C_28  and  C_24 
REMARK    8  A    between atoms: N_34  and  C_25 
REMARK    9  A    between atoms: N_37  and  C_26 
REMARK   10  A    between atoms: O_39  and  C_28 
ROOT
HETATM    1  C   UNK N   1      23.708  15.810   5.451  0.00  0.00     0.147 C 
HETATM    2  N   UNK N   1      24.791  15.233   5.035  0.00  0.00    -0.366 N 
ATOM      3  HN  UNK N   1      25.515  15.013   5.720  1.00  0.00     0.162 HD
HETATM    4  O   UNK N   1      23.515  15.966   6.772  0.00  0.00    -0.346 OA
HETATM    5  H   UNK N   1      23.477  16.117   7.696  0.00  0.00     0.219 HD
ENDROOT
BRANCH   1   6
HETATM    6  C   UNK N   1      22.681  16.331   4.512  0.00  0.00     0.022 A 
HETATM    7  C   UNK N   1      21.680  15.479   4.034  0.00  0.00     0.046 A 
HETATM    8  C   UNK N   1      20.692  15.946   3.148  0.00  0.00     0.043 A 
HETATM    9  C   UNK N   1      20.687  17.312   2.767  0.00  0.00     0.041 A 
HETATM   10  C   UNK N   1      21.700  18.154   3.249  0.00  0.00     0.026 A 
HETATM   11  C   UNK N   1      22.696  17.677   4.098  0.00  0.00    -0.046 A 
HETATM   12  C   UNK N   1      23.742  18.627   4.578  0.00  0.00     0.049 C 
BRANCH   8  13
HETATM   13  N   UNK N   1      19.722  15.050   2.616  0.00  0.00    -0.385 N 
HETATM   14  H   UNK N   1      18.808  15.095   2.979  0.00  0.00     0.160 HD
BRANCH  13  15
HETATM   15  C   UNK N   1      19.987  14.079   1.577  0.00  0.00     0.077 C 
HETATM   16  C   UNK N   1      18.802  14.060   0.629  0.00  0.00     0.032 C 
BRANCH  15  17
HETATM   17  C   UNK N   1      21.253  14.459   0.806  0.00  0.00     0.020 C 
HETATM   18  C   UNK N   1      22.322  13.384   0.912  0.00  0.00     0.007 C 
ENDBRANCH  15  17
ENDBRANCH  13  15
ENDBRANCH   8  13
BRANCH   9  19
HETATM   19  C   UNK N   1      19.642  17.891   1.875  0.00  0.00     0.146 C 
HETATM   20  N   UNK N   1      18.746  18.674   2.358  0.00  0.00    -0.379 N 
HETATM   21  H   UNK N   1      17.957  18.953   1.839  0.00  0.00     0.158 HD
ATOM     22  HN  UNK N   1      18.854  19.017   3.312  1.00  0.00     0.158 HD
BRANCH  19  23
HETATM   23  O   UNK N   1      19.601  17.584   0.565  0.00  0.00    -0.346 OA
HETATM   24  H   UNK N   1      18.782  17.428   0.136  0.00  0.00     0.219 HD
ENDBRANCH  19  23
ENDBRANCH   9  19
ENDBRANCH   1   6
BRANCH   2  25
HETATM   25  C   UNK N   1      25.028  14.886   3.649  0.00  0.00     0.087 C 
HETATM   26  C   UNK N   1      25.741  16.049   2.939  0.00  0.00     0.050 C 
HETATM   27  C   UNK N   1      27.262  15.911   2.891  0.00  0.00     0.088 C 
HETATM   28  C   UNK N   1      27.654  14.984   1.728  0.00  0.00     0.027 C 
HETATM   29  N   UNK N   1      27.720  15.145   4.013  0.00  0.00    -0.358 N 
HETATM   30  C   UNK N   1      27.898  13.595   2.373  0.00  0.00     0.027 C 
HETATM   31  C   UNK N   1      27.372  13.762   3.785  0.00  0.00     0.088 C 
HETATM   32  C   UNK N   1      25.840  13.573   3.634  0.00  0.00     0.050 C 
BRANCH  29  33
HETATM   33  C   UNK N   1      28.940  15.540   4.655  0.00  0.00     0.103 A 
HETATM   34  C   UNK N   1      29.710  14.613   5.369  0.00  0.00     0.049 A 
HETATM   35  C   UNK N   1      31.024  14.933   5.720  0.00  0.00     0.020 A 
HETATM   36  C   UNK N   1      31.563  16.177   5.363  0.00  0.00     0.026 A 
HETATM   37  C   UNK N   1      30.738  17.105   4.724  0.00  0.00     0.104 A 
HETATM   38  N   UNK N   1      29.471  16.770   4.379  0.00  0.00    -0.351 N 
ATOM     39  HN  UNK N   1      28.893  17.458   3.898  1.00  0.00     0.166 HD
BRANCH  36  40
HETATM   40  C   UNK N   1      32.999  16.490   5.567  0.00  0.00     0.165 C 
HETATM   41  O   UNK N   1      33.849  15.776   5.054  0.00  0.00    -0.292 OA
BRANCH  40  42
HETATM   42  C   UNK N   1      33.441  17.642   6.432  0.00  0.00     0.061 A 
HETATM   43  C   UNK N   1      34.087  17.102   7.703  0.00  0.00     0.013 A 
HETATM   44  C   UNK N   1      32.685  17.651   7.754  0.00  0.00     0.013 A 
ENDBRANCH  40  42
ENDBRANCH  36  40
ENDBRANCH  29  33
ENDBRANCH   2  25
TORSDOF 10
ENDMDL
