MODEL 1
REMARK VINA RESULT:      -8.0      0.000      0.000
REMARK  4 active torsions:
REMARK  status: ('A' for Active; 'I' for Inactive)
REMARK    1  A    between atoms: C_4  and  O_31 
REMARK    2  A    between atoms: C_7  and  N_8 
REMARK    3  A    between atoms: C_17  and  N_18 
REMARK    4  A    between atoms: C_21  and  N_24 
ROOT
HETATM    1  N   UNK N   1      28.763  17.429   4.849  0.00  0.00    -0.332 N 
HETATM    2  C   UNK N   1      27.983  16.338   4.306  0.00  0.00     0.136 A 
HETATM    3  C   UNK N   1      26.535  16.837   4.272  0.00  0.00     0.065 A 
HETATM    4  C   UNK N   1      26.641  18.229   4.800  0.00  0.00     0.017 A 
HETATM    5  C   UNK N   1      27.920  18.529   5.100  0.00  0.00     0.117 A 
HETATM    6  N   UNK N   1      28.267  19.752   5.587  0.00  0.00    -0.346 N 
ATOM      7  HN  UNK N   1      29.239  19.957   5.820  1.00  0.00     0.167 HD
HETATM    8  C   UNK N   1      27.296  20.710   5.762  0.00  0.00     0.009 A 
HETATM    9  C   UNK N   1      25.939  20.426   5.460  0.00  0.00     0.057 A 
HETATM   10  C   UNK N   1      25.603  19.149   4.983  0.00  0.00     0.067 A 
HETATM   11  C   UNK N   1      27.667  22.048   6.295  0.00  0.00     0.068 C 
ENDROOT
BRANCH  10  12
HETATM   12  N   UNK N   1      24.251  18.732   4.716  0.00  0.00    -0.265 N 
HETATM   13  C   UNK N   1      23.476  18.903   3.621  0.00  0.00     0.120 A 
HETATM   14  C   UNK N   1      22.235  18.297   3.877  0.00  0.00     0.069 A 
HETATM   15  C   UNK N   1      22.359  17.812   5.172  0.00  0.00     0.127 A 
HETATM   16  N   UNK N   1      23.567  18.088   5.636  0.00  0.00    -0.279 N 
ATOM     17  HN  UNK N   1      23.914  17.840   6.562  1.00  0.00     0.189 HD
BRANCH  15  18
HETATM   18  N   UNK N   1      21.402  17.116   5.960  0.00  0.00    -0.283 N 
HETATM   19  C   UNK N   1      21.007  15.745   5.770  0.00  0.00     0.155 A 
HETATM   20  C   UNK N   1      19.981  15.521   6.924  0.00  0.00     0.144 A 
HETATM   21  N   UNK N   1      19.918  16.801   7.594  0.00  0.00    -0.341 N 
HETATM   22  C   UNK N   1      20.746  17.649   7.000  0.00  0.00     0.324 A 
HETATM   23  H   UNK N   1      19.349  17.010   8.370  0.00  0.00     0.164 HD
HETATM   24  O   UNK N   1      20.877  18.809   7.370  0.00  0.00    -0.247 OA
ENDBRANCH  15  18
ENDBRANCH  10  12
BRANCH   1  25
HETATM   25  C   UNK N   1      30.161  17.304   5.151  0.00  0.00     0.042 A 
HETATM   26  C   UNK N   1      31.110  17.382   4.117  0.00  0.00     0.033 A 
HETATM   27  C   UNK N   1      32.479  17.300   4.392  0.00  0.00     0.039 A 
HETATM   28  C   UNK N   1      32.929  17.142   5.705  0.00  0.00     0.068 A 
HETATM   29  C   UNK N   1      31.999  17.054   6.741  0.00  0.00     0.045 A 
HETATM   30  C   UNK N   1      30.634  17.130   6.491  0.00  0.00    -0.032 A 
HETATM   31  C   UNK N   1      29.747  17.028   7.688  0.00  0.00     0.050 C 
BRANCH  28  32
HETATM   32  O   UNK N   1      34.259  17.080   5.952  0.00  0.00    -0.356 OA
HETATM   33  C   UNK N   1      34.925  15.894   6.174  0.00  0.00     0.210 C 
ENDBRANCH  28  32
ENDBRANCH   1  25
TORSDOF 4
ENDMDL
MODEL 2
REMARK VINA RESULT:      -7.8      2.668      9.196
REMARK  4 active torsions:
REMARK  status: ('A' for Active; 'I' for Inactive)
REMARK    1  A    between atoms: C_4  and  O_31 
REMARK    2  A    between atoms: C_7  and  N_8 
REMARK    3  A    between atoms: C_17  and  N_18 
REMARK    4  A    between atoms: C_21  and  N_24 
ROOT
HETATM    1  N   UNK N   1      26.473  18.564   4.347  0.00  0.00    -0.332 N 
HETATM    2  C   UNK N   1      27.270  19.540   5.057  0.00  0.00     0.136 A 
HETATM    3  C   UNK N   1      28.703  18.997   5.044  0.00  0.00     0.065 A 
HETATM    4  C   UNK N   1      28.578  17.723   4.277  0.00  0.00     0.017 A 
HETATM    5  C   UNK N   1      27.304  17.524   3.887  0.00  0.00     0.117 A 
HETATM    6  N   UNK N   1      26.947  16.431   3.159  0.00  0.00    -0.346 N 
ATOM      7  HN  UNK N   1      25.974  16.291   2.884  1.00  0.00     0.167 HD
HETATM    8  C   UNK N   1      27.907  15.517   2.796  0.00  0.00     0.009 A 
HETATM    9  C   UNK N   1      29.258  15.695   3.192  0.00  0.00     0.057 A 
HETATM   10  C   UNK N   1      29.598  16.818   3.965  0.00  0.00     0.067 A 
HETATM   11  C   UNK N   1      27.526  14.320   2.000  0.00  0.00     0.068 C 
ENDROOT
BRANCH  10  12
HETATM   12  N   UNK N   1      30.920  17.055   4.481  0.00  0.00    -0.265 N 
HETATM   13  C   UNK N   1      32.016  17.580   3.888  0.00  0.00     0.120 A 
HETATM   14  C   UNK N   1      33.050  17.596   4.838  0.00  0.00     0.069 A 
HETATM   15  C   UNK N   1      32.476  17.030   5.969  0.00  0.00     0.127 A 
HETATM   16  N   UNK N   1      31.212  16.723   5.719  0.00  0.00    -0.279 N 
ATOM     17  HN  UNK N   1      30.567  16.296   6.382  1.00  0.00     0.189 HD
BRANCH  15  18
HETATM   18  N   UNK N   1      33.063  16.779   7.239  0.00  0.00    -0.283 N 
HETATM   19  C   UNK N   1      34.219  15.954   7.473  0.00  0.00     0.155 A 
HETATM   20  C   UNK N   1      34.420  16.075   9.016  0.00  0.00     0.144 A 
HETATM   21  N   UNK N   1      33.337  16.933   9.446  0.00  0.00    -0.341 N 
HETATM   22  C   UNK N   1      32.617  17.293   8.393  0.00  0.00     0.324 A 
HETATM   23  H   UNK N   1      33.163  17.207  10.376  0.00  0.00     0.164 HD
HETATM   24  O   UNK N   1      31.632  18.016   8.486  0.00  0.00    -0.247 OA
ENDBRANCH  15  18
ENDBRANCH  10  12
BRANCH   1  25
HETATM   25  C   UNK N   1      25.043  18.657   4.249  0.00  0.00     0.042 A 
HETATM   26  C   UNK N   1      24.232  17.811   5.024  0.00  0.00     0.033 A 
HETATM   27  C   UNK N   1      22.838  17.909   4.973  0.00  0.00     0.039 A 
HETATM   28  C   UNK N   1      22.224  18.856   4.150  0.00  0.00     0.068 A 
HETATM   29  C   UNK N   1      23.016  19.697   3.367  0.00  0.00     0.045 A 
HETATM   30  C   UNK N   1      24.403  19.616   3.400  0.00  0.00    -0.032 A 
HETATM   31  C   UNK N   1      25.132  20.577   2.520  0.00  0.00     0.050 C 
BRANCH  28  32
HETATM   32  O   UNK N   1      20.874  18.946   4.126  0.00  0.00    -0.356 OA
HETATM   33  C   UNK N   1      20.180  19.517   3.081  0.00  0.00     0.210 C 
ENDBRANCH  28  32
ENDBRANCH   1  25
TORSDOF 4
ENDMDL
MODEL 3
REMARK VINA RESULT:      -7.7      1.964      2.307
REMARK  4 active torsions:
REMARK  status: ('A' for Active; 'I' for Inactive)
REMARK    1  A    between atoms: C_4  and  O_31 
REMARK    2  A    between atoms: C_7  and  N_8 
REMARK    3  A    between atoms: C_17  and  N_18 
REMARK    4  A    between atoms: C_21  and  N_24 
ROOT
HETATM    1  N   UNK N   1      29.187  17.200   5.254  0.00  0.00    -0.332 N 
HETATM    2  C   UNK N   1      28.651  15.977   4.698  0.00  0.00     0.136 A 
HETATM    3  C   UNK N   1      27.164  16.248   4.450  0.00  0.00     0.065 A 
HETATM    4  C   UNK N   1      26.997  17.665   4.888  0.00  0.00     0.017 A 
HETATM    5  C   UNK N   1      28.169  18.171   5.321  0.00  0.00     0.117 A 
HETATM    6  N   UNK N   1      28.268  19.456   5.760  0.00  0.00    -0.346 N 
ATOM      7  HN  UNK N   1      29.161  19.818   6.096  1.00  0.00     0.167 HD
HETATM    8  C   UNK N   1      27.155  20.263   5.746  0.00  0.00     0.009 A 
HETATM    9  C   UNK N   1      25.905  19.760   5.300  0.00  0.00     0.057 A 
HETATM   10  C   UNK N   1      25.822  18.424   4.876  0.00  0.00     0.067 A 
HETATM   11  C   UNK N   1      27.255  21.667   6.224  0.00  0.00     0.068 C 
ENDROOT
BRANCH  10  12
HETATM   12  N   UNK N   1      24.591  17.793   4.475  0.00  0.00    -0.265 N 
HETATM   13  C   UNK N   1      24.258  16.486   4.392  0.00  0.00     0.120 A 
HETATM   14  C   UNK N   1      22.927  16.411   3.950  0.00  0.00     0.069 A 
HETATM   15  C   UNK N   1      22.559  17.738   3.769  0.00  0.00     0.127 A 
HETATM   16  N   UNK N   1      23.571  18.527   4.091  0.00  0.00    -0.279 N 
ATOM     17  HN  UNK N   1      23.561  19.546   4.049  1.00  0.00     0.189 HD
BRANCH  15  18
HETATM   18  N   UNK N   1      21.319  18.267   3.318  0.00  0.00    -0.283 N 
HETATM   19  C   UNK N   1      20.129  17.498   3.064  0.00  0.00     0.155 A 
HETATM   20  C   UNK N   1      19.099  18.590   2.636  0.00  0.00     0.144 A 
HETATM   21  N   UNK N   1      19.854  19.823   2.683  0.00  0.00    -0.341 N 
HETATM   22  C   UNK N   1      21.093  19.566   3.077  0.00  0.00     0.324 A 
HETATM   23  H   UNK N   1      19.502  20.714   2.457  0.00  0.00     0.164 HD
HETATM   24  O   UNK N   1      21.942  20.441   3.193  0.00  0.00    -0.247 OA
ENDBRANCH  15  18
ENDBRANCH  10  12
BRANCH   1  25
HETATM   25  C   UNK N   1      30.536  17.305   5.734  0.00  0.00     0.042 A 
HETATM   26  C   UNK N   1      31.597  17.420   4.820  0.00  0.00     0.033 A 
HETATM   27  C   UNK N   1      32.915  17.561   5.265  0.00  0.00     0.039 A 
HETATM   28  C   UNK N   1      33.202  17.592   6.631  0.00  0.00     0.068 A 
HETATM   29  C   UNK N   1      32.160  17.470   7.552  0.00  0.00     0.045 A 
HETATM   30  C   UNK N   1      30.843  17.327   7.132  0.00  0.00    -0.032 A 
HETATM   31  C   UNK N   1      29.824  17.212   8.217  0.00  0.00     0.050 C 
BRANCH  28  32
HETATM   32  O   UNK N   1      34.483  17.745   7.042  0.00  0.00    -0.356 OA
HETATM   33  C   UNK N   1      34.818  18.289   8.263  0.00  0.00     0.210 C 
ENDBRANCH  28  32
ENDBRANCH   1  25
TORSDOF 4
ENDMDL
MODEL 4
REMARK VINA RESULT:      -7.7      3.748      9.706
REMARK  4 active torsions:
REMARK  status: ('A' for Active; 'I' for Inactive)
REMARK    1  A    between atoms: C_4  and  O_31 
REMARK    2  A    between atoms: C_7  and  N_8 
REMARK    3  A    between atoms: C_17  and  N_18 
REMARK    4  A    between atoms: C_21  and  N_24 
ROOT
HETATM    1  N   UNK N   1      28.817  17.825   6.663  0.00  0.00    -0.332 N 
HETATM    2  C   UNK N   1      28.923  17.902   8.104  0.00  0.00     0.136 A 
HETATM    3  C   UNK N   1      30.394  17.624   8.429  0.00  0.00     0.065 A 
HETATM    4  C   UNK N   1      31.010  17.429   7.084  0.00  0.00     0.017 A 
HETATM    5  C   UNK N   1      30.087  17.568   6.112  0.00  0.00     0.117 A 
HETATM    6  N   UNK N   1      30.417  17.447   4.797  0.00  0.00    -0.346 N 
ATOM      7  HN  UNK N   1      29.701  17.542   4.075  1.00  0.00     0.167 HD
HETATM    8  C   UNK N   1      31.723  17.196   4.448  0.00  0.00     0.009 A 
HETATM    9  C   UNK N   1      32.720  17.042   5.446  0.00  0.00     0.057 A 
HETATM   10  C   UNK N   1      32.350  17.146   6.797  0.00  0.00     0.067 A 
HETATM   11  C   UNK N   1      32.092  17.063   3.014  0.00  0.00     0.068 C 
ENDROOT
BRANCH  10  12
HETATM   12  N   UNK N   1      33.264  16.934   7.889  0.00  0.00    -0.265 N 
HETATM   13  C   UNK N   1      34.182  17.758   8.441  0.00  0.00     0.120 A 
HETATM   14  C   UNK N   1      34.809  17.060   9.486  0.00  0.00     0.069 A 
HETATM   15  C   UNK N   1      34.210  15.808   9.460  0.00  0.00     0.127 A 
HETATM   16  N   UNK N   1      33.299  15.771   8.501  0.00  0.00    -0.279 N 
ATOM     17  HN  UNK N   1      32.715  14.967   8.273  1.00  0.00     0.189 HD
BRANCH  15  18
HETATM   18  N   UNK N   1      34.460  14.680  10.289  0.00  0.00    -0.283 N 
HETATM   19  C   UNK N   1      34.896  14.736  11.660  0.00  0.00     0.155 A 
HETATM   20  C   UNK N   1      34.968  13.228  12.058  0.00  0.00     0.144 A 
HETATM   21  N   UNK N   1      34.586  12.527  10.853  0.00  0.00    -0.341 N 
HETATM   22  C   UNK N   1      34.312  13.407   9.900  0.00  0.00     0.324 A 
HETATM   23  H   UNK N   1      34.538  11.548  10.754  0.00  0.00     0.164 HD
HETATM   24  O   UNK N   1      33.970  13.071   8.773  0.00  0.00    -0.247 OA
ENDBRANCH  15  18
ENDBRANCH  10  12
BRANCH   1  25
HETATM   25  C   UNK N   1      27.559  17.911   5.975  0.00  0.00     0.042 A 
HETATM   26  C   UNK N   1      26.807  16.747   5.745  0.00  0.00     0.033 A 
HETATM   27  C   UNK N   1      25.562  16.811   5.109  0.00  0.00     0.039 A 
HETATM   28  C   UNK N   1      25.042  18.039   4.693  0.00  0.00     0.068 A 
HETATM   29  C   UNK N   1      25.782  19.203   4.907  0.00  0.00     0.045 A 
HETATM   30  C   UNK N   1      27.021  19.162   5.534  0.00  0.00    -0.032 A 
HETATM   31  C   UNK N   1      27.706  20.478   5.705  0.00  0.00     0.050 C 
BRANCH  28  32
HETATM   32  O   UNK N   1      23.829  18.082   4.094  0.00  0.00    -0.356 OA
HETATM   33  C   UNK N   1      23.230  19.260   3.700  0.00  0.00     0.210 C 
ENDBRANCH  28  32
ENDBRANCH   1  25
TORSDOF 4
ENDMDL
MODEL 5
REMARK VINA RESULT:      -7.6      8.639     13.168
REMARK  4 active torsions:
REMARK  status: ('A' for Active; 'I' for Inactive)
REMARK    1  A    between atoms: C_4  and  O_31 
REMARK    2  A    between atoms: C_7  and  N_8 
REMARK    3  A    between atoms: C_17  and  N_18 
REMARK    4  A    between atoms: C_21  and  N_24 
ROOT
HETATM    1  N   UNK N   1      34.743  15.144   9.110  0.00  0.00    -0.332 N 
HETATM    2  C   UNK N   1      33.847  15.150  10.245  0.00  0.00     0.136 A 
HETATM    3  C   UNK N   1      34.603  14.449  11.378  0.00  0.00     0.065 A 
HETATM    4  C   UNK N   1      35.919  14.118  10.756  0.00  0.00     0.017 A 
HETATM    5  C   UNK N   1      35.963  14.543   9.478  0.00  0.00     0.117 A 
HETATM    6  N   UNK N   1      37.071  14.365   8.708  0.00  0.00    -0.346 N 
ATOM      7  HN  UNK N   1      37.080  14.682   7.738  1.00  0.00     0.167 HD
HETATM    8  C   UNK N   1      38.178  13.755   9.247  0.00  0.00     0.009 A 
HETATM    9  C   UNK N   1      38.165  13.293  10.589  0.00  0.00     0.057 A 
HETATM   10  C   UNK N   1      37.001  13.465  11.356  0.00  0.00     0.067 A 
HETATM   11  C   UNK N   1      39.393  13.556   8.413  0.00  0.00     0.068 C 
ENDROOT
BRANCH  10  12
HETATM   12  N   UNK N   1      36.855  12.969  12.699  0.00  0.00    -0.265 N 
HETATM   13  C   UNK N   1      36.916  11.708  13.184  0.00  0.00     0.120 A 
HETATM   14  C   UNK N   1      36.709  11.773  14.571  0.00  0.00     0.069 A 
HETATM   15  C   UNK N   1      36.505  13.125  14.817  0.00  0.00     0.127 A 
HETATM   16  N   UNK N   1      36.600  13.801  13.684  0.00  0.00    -0.279 N 
ATOM     17  HN  UNK N   1      36.492  14.811  13.589  1.00  0.00     0.189 HD
BRANCH  15  18
HETATM   18  N   UNK N   1      36.234  13.778  16.051  0.00  0.00    -0.283 N 
HETATM   19  C   UNK N   1      35.250  13.360  17.015  0.00  0.00     0.155 A 
HETATM   20  C   UNK N   1      35.422  14.409  18.157  0.00  0.00     0.144 A 
HETATM   21  N   UNK N   1      36.463  15.289  17.673  0.00  0.00    -0.341 N 
HETATM   22  C   UNK N   1      36.874  14.872  16.485  0.00  0.00     0.324 A 
HETATM   23  H   UNK N   1      36.811  16.076  18.152  0.00  0.00     0.164 HD
HETATM   24  O   UNK N   1      37.749  15.450  15.850  0.00  0.00    -0.247 OA
ENDBRANCH  15  18
ENDBRANCH  10  12
BRANCH   1  25
HETATM   25  C   UNK N   1      34.347  15.609   7.810  0.00  0.00     0.042 A 
HETATM   26  C   UNK N   1      33.986  14.684   6.816  0.00  0.00     0.033 A 
HETATM   27  C   UNK N   1      33.562  15.115   5.555  0.00  0.00     0.039 A 
HETATM   28  C   UNK N   1      33.487  16.478   5.261  0.00  0.00     0.068 A 
HETATM   29  C   UNK N   1      33.852  17.409   6.234  0.00  0.00     0.045 A 
HETATM   30  C   UNK N   1      34.278  17.003   7.493  0.00  0.00    -0.032 A 
HETATM   31  C   UNK N   1      34.633  18.099   8.443  0.00  0.00     0.050 C 
BRANCH  28  32
HETATM   32  O   UNK N   1      33.059  16.876   4.039  0.00  0.00    -0.356 OA
HETATM   33  C   UNK N   1      32.595  15.996   3.085  0.00  0.00     0.210 C 
ENDBRANCH  28  32
ENDBRANCH   1  25
TORSDOF 4
ENDMDL
MODEL 6
REMARK VINA RESULT:      -7.6      2.795      4.736
REMARK  4 active torsions:
REMARK  status: ('A' for Active; 'I' for Inactive)
REMARK    1  A    between atoms: C_4  and  O_31 
REMARK    2  A    between atoms: C_7  and  N_8 
REMARK    3  A    between atoms: C_17  and  N_18 
REMARK    4  A    between atoms: C_21  and  N_24 
ROOT
HETATM    1  N   UNK N   1      30.975  16.908   7.983  0.00  0.00    -0.332 N 
HETATM    2  C   UNK N   1      30.083  17.661   8.838  0.00  0.00     0.136 A 
HETATM    3  C   UNK N   1      29.037  18.281   7.906  0.00  0.00     0.065 A 
HETATM    4  C   UNK N   1      29.440  17.781   6.559  0.00  0.00     0.017 A 
HETATM    5  C   UNK N   1      30.531  16.995   6.649  0.00  0.00     0.117 A 
HETATM    6  N   UNK N   1      31.078  16.410   5.548  0.00  0.00    -0.346 N 
ATOM      7  HN  UNK N   1      31.912  15.829   5.635  1.00  0.00     0.167 HD
HETATM    8  C   UNK N   1      30.497  16.609   4.318  0.00  0.00     0.009 A 
HETATM    9  C   UNK N   1      29.349  17.433   4.188  0.00  0.00     0.057 A 
HETATM   10  C   UNK N   1      28.819  18.046   5.334  0.00  0.00     0.067 A 
HETATM   11  C   UNK N   1      31.088  15.974   3.111  0.00  0.00     0.068 C 
ENDROOT
BRANCH  10  12
HETATM   12  N   UNK N   1      27.705  18.958   5.303  0.00  0.00    -0.265 N 
HETATM   13  C   UNK N   1      27.568  20.198   5.824  0.00  0.00     0.120 A 
HETATM   14  C   UNK N   1      26.279  20.655   5.504  0.00  0.00     0.069 A 
HETATM   15  C   UNK N   1      25.709  19.596   4.810  0.00  0.00     0.127 A 
HETATM   16  N   UNK N   1      26.585  18.609   4.710  0.00  0.00    -0.279 N 
ATOM     17  HN  UNK N   1      26.418  17.716   4.246  1.00  0.00     0.189 HD
BRANCH  15  18
HETATM   18  N   UNK N   1      24.405  19.490   4.253  0.00  0.00    -0.283 N 
HETATM   19  C   UNK N   1      23.355  18.640   4.749  0.00  0.00     0.155 A 
HETATM   20  C   UNK N   1      22.170  18.962   3.786  0.00  0.00     0.144 A 
HETATM   21  N   UNK N   1      22.719  19.932   2.864  0.00  0.00    -0.341 N 
HETATM   22  C   UNK N   1      23.979  20.183   3.188  0.00  0.00     0.324 A 
HETATM   23  H   UNK N   1      22.233  20.341   2.112  0.00  0.00     0.164 HD
HETATM   24  O   UNK N   1      24.677  20.968   2.558  0.00  0.00    -0.247 OA
ENDBRANCH  15  18
ENDBRANCH  10  12
BRANCH   1  25
HETATM   25  C   UNK N   1      32.166  16.275   8.476  0.00  0.00     0.042 A 
HETATM   26  C   UNK N   1      32.112  14.952   8.945  0.00  0.00     0.033 A 
HETATM   27  C   UNK N   1      33.266  14.302   9.395  0.00  0.00     0.039 A 
HETATM   28  C   UNK N   1      34.498  14.959   9.383  0.00  0.00     0.068 A 
HETATM   29  C   UNK N   1      34.567  16.276   8.928  0.00  0.00     0.045 A 
HETATM   30  C   UNK N   1      33.433  16.942   8.479  0.00  0.00    -0.032 A 
HETATM   31  C   UNK N   1      33.644  18.345   8.014  0.00  0.00     0.050 C 
BRANCH  28  32
HETATM   32  O   UNK N   1      35.607  14.308   9.807  0.00  0.00    -0.356 OA
HETATM   33  C   UNK N   1      36.687  14.956  10.369  0.00  0.00     0.210 C 
ENDBRANCH  28  32
ENDBRANCH   1  25
TORSDOF 4
ENDMDL
MODEL 7
REMARK VINA RESULT:      -7.3      8.921     13.616
REMARK  4 active torsions:
REMARK  status: ('A' for Active; 'I' for Inactive)
REMARK    1  A    between atoms: C_4  and  O_31 
REMARK    2  A    between atoms: C_7  and  N_8 
REMARK    3  A    between atoms: C_17  and  N_18 
REMARK    4  A    between atoms: C_21  and  N_24 
ROOT
HETATM    1  N   UNK N   1      35.689  12.822  14.304  0.00  0.00    -0.332 N 
HETATM    2  C   UNK N   1      36.280  14.098  13.965  0.00  0.00     0.136 A 
HETATM    3  C   UNK N   1      36.166  14.218  12.442  0.00  0.00     0.065 A 
HETATM    4  C   UNK N   1      35.473  12.956  12.050  0.00  0.00     0.017 A 
HETATM    5  C   UNK N   1      35.207  12.202  13.135  0.00  0.00     0.117 A 
HETATM    6  N   UNK N   1      34.564  11.007  13.029  0.00  0.00    -0.346 N 
ATOM      7  HN  UNK N   1      34.383  10.444  13.861  1.00  0.00     0.167 HD
HETATM    8  C   UNK N   1      34.161  10.564  11.792  0.00  0.00     0.009 A 
HETATM    9  C   UNK N   1      34.428  11.331  10.628  0.00  0.00     0.057 A 
HETATM   10  C   UNK N   1      35.115  12.549  10.761  0.00  0.00     0.067 A 
HETATM   11  C   UNK N   1      33.459   9.259  11.667  0.00  0.00     0.068 C 
ENDROOT
BRANCH  10  12
HETATM   12  N   UNK N   1      35.502  13.367   9.641  0.00  0.00    -0.265 N 
HETATM   13  C   UNK N   1      36.601  13.322   8.856  0.00  0.00     0.120 A 
HETATM   14  C   UNK N   1      36.486  14.346   7.901  0.00  0.00     0.069 A 
HETATM   15  C   UNK N   1      35.287  14.969   8.220  0.00  0.00     0.127 A 
HETATM   16  N   UNK N   1      34.732  14.360   9.256  0.00  0.00    -0.279 N 
ATOM     17  HN  UNK N   1      33.846  14.621   9.688  1.00  0.00     0.189 HD
BRANCH  15  18
HETATM   18  N   UNK N   1      34.666  16.085   7.595  0.00  0.00    -0.283 N 
HETATM   19  C   UNK N   1      34.240  16.138   6.220  0.00  0.00     0.155 A 
HETATM   20  C   UNK N   1      33.610  17.562   6.112  0.00  0.00     0.144 A 
HETATM   21  N   UNK N   1      33.787  18.127   7.431  0.00  0.00    -0.341 N 
HETATM   22  C   UNK N   1      34.384  17.239   8.213  0.00  0.00     0.324 A 
HETATM   23  H   UNK N   1      33.507  19.030   7.706  0.00  0.00     0.164 HD
HETATM   24  O   UNK N   1      34.658  17.473   9.385  0.00  0.00    -0.247 OA
ENDBRANCH  15  18
ENDBRANCH  10  12
BRANCH   1  25
HETATM   25  C   UNK N   1      35.713  12.290  15.638  0.00  0.00     0.042 A 
HETATM   26  C   UNK N   1      34.973  12.916  16.655  0.00  0.00     0.033 A 
HETATM   27  C   UNK N   1      34.952  12.394  17.952  0.00  0.00     0.039 A 
HETATM   28  C   UNK N   1      35.667  11.235  18.260  0.00  0.00     0.068 A 
HETATM   29  C   UNK N   1      36.415  10.606  17.263  0.00  0.00     0.045 A 
HETATM   30  C   UNK N   1      36.452  11.109  15.968  0.00  0.00    -0.032 A 
HETATM   31  C   UNK N   1      37.284  10.339  14.996  0.00  0.00     0.050 C 
BRANCH  28  32
HETATM   32  O   UNK N   1      35.622  10.736  19.518  0.00  0.00    -0.356 OA
HETATM   33  C   UNK N   1      36.753  10.432  20.244  0.00  0.00     0.210 C 
ENDBRANCH  28  32
ENDBRANCH   1  25
TORSDOF 4
ENDMDL
MODEL 8
REMARK VINA RESULT:      -7.2      3.256      8.686
REMARK  4 active torsions:
REMARK  status: ('A' for Active; 'I' for Inactive)
REMARK    1  A    between atoms: C_4  and  O_31 
REMARK    2  A    between atoms: C_7  and  N_8 
REMARK    3  A    between atoms: C_17  and  N_18 
REMARK    4  A    between atoms: C_21  and  N_24 
ROOT
HETATM    1  N   UNK N   1      25.407  15.850   4.559  0.00  0.00    -0.332 N 
HETATM    2  C   UNK N   1      25.853  14.978   5.623  0.00  0.00     0.136 A 
HETATM    3  C   UNK N   1      26.901  15.777   6.405  0.00  0.00     0.065 A 
HETATM    4  C   UNK N   1      26.932  17.088   5.691  0.00  0.00     0.017 A 
HETATM    5  C   UNK N   1      26.061  17.092   4.664  0.00  0.00     0.117 A 
HETATM    6  N   UNK N   1      25.902  18.188   3.872  0.00  0.00    -0.346 N 
ATOM      7  HN  UNK N   1      25.247  18.168   3.090  1.00  0.00     0.167 HD
HETATM    8  C   UNK N   1      26.633  19.323   4.134  0.00  0.00     0.009 A 
HETATM    9  C   UNK N   1      27.561  19.351   5.207  0.00  0.00     0.057 A 
HETATM   10  C   UNK N   1      27.726  18.200   5.994  0.00  0.00     0.067 A 
HETATM   11  C   UNK N   1      26.466  20.524   3.274  0.00  0.00     0.068 C 
ENDROOT
BRANCH  10  12
HETATM   12  N   UNK N   1      28.691  18.096   7.057  0.00  0.00    -0.265 N 
HETATM   13  C   UNK N   1      28.603  18.436   8.362  0.00  0.00     0.120 A 
HETATM   14  C   UNK N   1      29.831  18.123   8.969  0.00  0.00     0.069 A 
HETATM   15  C   UNK N   1      30.601  17.623   7.928  0.00  0.00     0.127 A 
HETATM   16  N   UNK N   1      29.892  17.621   6.811  0.00  0.00    -0.279 N 
ATOM     17  HN  UNK N   1      30.224  17.301   5.901  1.00  0.00     0.189 HD
BRANCH  15  18
HETATM   18  N   UNK N   1      31.945  17.158   7.954  0.00  0.00    -0.283 N 
HETATM   19  C   UNK N   1      33.086  17.933   8.365  0.00  0.00     0.155 A 
HETATM   20  C   UNK N   1      34.261  16.916   8.224  0.00  0.00     0.144 A 
HETATM   21  N   UNK N   1      33.628  15.712   7.731  0.00  0.00    -0.341 N 
HETATM   22  C   UNK N   1      32.325  15.921   7.606  0.00  0.00     0.324 A 
HETATM   23  H   UNK N   1      34.092  14.870   7.521  0.00  0.00     0.164 HD
HETATM   24  O   UNK N   1      31.556  15.058   7.198  0.00  0.00    -0.247 OA
ENDBRANCH  15  18
ENDBRANCH  10  12
BRANCH   1  25
HETATM   25  C   UNK N   1      24.504  15.413   3.530  0.00  0.00     0.042 A 
HETATM   26  C   UNK N   1      23.117  15.521   3.724  0.00  0.00     0.033 A 
HETATM   27  C   UNK N   1      22.220  15.138   2.722  0.00  0.00     0.039 A 
HETATM   28  C   UNK N   1      22.690  14.640   1.504  0.00  0.00     0.068 A 
HETATM   29  C   UNK N   1      24.064  14.518   1.300  0.00  0.00     0.045 A 
HETATM   30  C   UNK N   1      24.974  14.891   2.282  0.00  0.00    -0.032 A 
HETATM   31  C   UNK N   1      26.415  14.716   1.935  0.00  0.00     0.050 C 
BRANCH  28  32
HETATM   32  O   UNK N   1      21.806  14.289   0.541  0.00  0.00    -0.356 OA
HETATM   33  C   UNK N   1      20.777  13.397   0.757  0.00  0.00     0.210 C 
ENDBRANCH  28  32
ENDBRANCH   1  25
TORSDOF 4
ENDMDL
MODEL 9
REMARK VINA RESULT:      -7.0      2.513      9.494
REMARK  4 active torsions:
REMARK  status: ('A' for Active; 'I' for Inactive)
REMARK    1  A    between atoms: C_4  and  O_31 
REMARK    2  A    between atoms: C_7  and  N_8 
REMARK    3  A    between atoms: C_17  and  N_18 
REMARK    4  A    between atoms: C_21  and  N_24 
ROOT
HETATM    1  N   UNK N   1      26.480  16.794   4.880  0.00  0.00    -0.332 N 
HETATM    2  C   UNK N   1      27.037  16.426   3.597  0.00  0.00     0.136 A 
HETATM    3  C   UNK N   1      28.558  16.502   3.767  0.00  0.00     0.065 A 
HETATM    4  C   UNK N   1      28.723  16.901   5.195  0.00  0.00     0.017 A 
HETATM    5  C   UNK N   1      27.523  17.040   5.793  0.00  0.00     0.117 A 
HETATM    6  N   UNK N   1      27.420  17.386   7.105  0.00  0.00    -0.346 N 
ATOM      7  HN  UNK N   1      26.502  17.500   7.537  1.00  0.00     0.167 HD
HETATM    8  C   UNK N   1      28.562  17.582   7.845  0.00  0.00     0.009 A 
HETATM    9  C   UNK N   1      29.842  17.447   7.246  0.00  0.00     0.057 A 
HETATM   10  C   UNK N   1      29.922  17.113   5.884  0.00  0.00     0.067 A 
HETATM   11  C   UNK N   1      28.458  17.962   9.279  0.00  0.00     0.068 C 
ENDROOT
BRANCH  10  12
HETATM   12  N   UNK N   1      31.164  17.024   5.161  0.00  0.00    -0.265 N 
HETATM   13  C   UNK N   1      31.645  17.769   4.141  0.00  0.00     0.120 A 
HETATM   14  C   UNK N   1      32.911  17.265   3.803  0.00  0.00     0.069 A 
HETATM   15  C   UNK N   1      33.087  16.192   4.667  0.00  0.00     0.127 A 
HETATM   16  N   UNK N   1      32.031  16.081   5.457  0.00  0.00    -0.279 N 
ATOM     17  HN  UNK N   1      31.909  15.375   6.183  1.00  0.00     0.189 HD
BRANCH  15  18
HETATM   18  N   UNK N   1      34.187  15.298   4.769  0.00  0.00    -0.283 N 
HETATM   19  C   UNK N   1      34.503  14.256   3.826  0.00  0.00     0.155 A 
HETATM   20  C   UNK N   1      35.806  13.638   4.423  0.00  0.00     0.144 A 
HETATM   21  N   UNK N   1      36.035  14.398   5.632  0.00  0.00    -0.341 N 
HETATM   22  C   UNK N   1      35.088  15.315   5.761  0.00  0.00     0.324 A 
HETATM   23  H   UNK N   1      36.779  14.255   6.261  0.00  0.00     0.164 HD
HETATM   24  O   UNK N   1      35.046  16.090   6.709  0.00  0.00    -0.247 OA
ENDBRANCH  15  18
ENDBRANCH  10  12
BRANCH   1  25
HETATM   25  C   UNK N   1      25.068  16.959   5.091  0.00  0.00     0.042 A 
HETATM   26  C   UNK N   1      24.326  15.927   5.690  0.00  0.00     0.033 A 
HETATM   27  C   UNK N   1      22.958  16.080   5.939  0.00  0.00     0.039 A 
HETATM   28  C   UNK N   1      22.304  17.265   5.597  0.00  0.00     0.068 A 
HETATM   29  C   UNK N   1      23.026  18.295   4.993  0.00  0.00     0.045 A 
HETATM   30  C   UNK N   1      24.385  18.165   4.734  0.00  0.00    -0.032 A 
HETATM   31  C   UNK N   1      25.040  19.342   4.090  0.00  0.00     0.050 C 
BRANCH  28  32
HETATM   32  O   UNK N   1      20.983  17.399   5.860  0.00  0.00    -0.356 OA
HETATM   33  C   UNK N   1      20.179  16.338   6.218  0.00  0.00     0.210 C 
ENDBRANCH  28  32
ENDBRANCH   1  25
TORSDOF 4
ENDMDL
