MODEL 1
REMARK VINA RESULT:      -8.5      0.000      0.000
REMARK  6 active torsions:
REMARK  status: ('A' for Active; 'I' for Inactive)
REMARK    1  A    between atoms: C_3  and  N_20 
REMARK    2  A    between atoms: C_7  and  C_8 
REMARK    3  A    between atoms: C_8  and  C_9 
REMARK    4  A    between atoms: N_20  and  C_21 
REMARK    5  A    between atoms: C_21  and  C_22 
REMARK    6  A    between atoms: C_25  and  C_29 
ROOT
HETATM    1  C   UNK N   1      32.483  17.649   7.189  0.00  0.00     0.012 A 
HETATM    2  C   UNK N   1      33.708  17.477   7.836  0.00  0.00     0.049 A 
HETATM    3  C   UNK N   1      33.787  16.591   8.912  0.00  0.00     0.101 A 
HETATM    4  N   UNK N   1      32.663  15.969   9.367  0.00  0.00    -0.352 N 
ATOM      5  HN  UNK N   1      32.730  15.351  10.176  1.00  0.00     0.166 HD
HETATM    6  C   UNK N   1      31.459  16.151   8.774  0.00  0.00     0.097 A 
HETATM    7  C   UNK N   1      31.361  16.949   7.636  0.00  0.00    -0.038 A 
ENDROOT
BRANCH   3   8
HETATM    8  N   UNK N   1      35.048  16.178   9.385  0.00  0.00    -0.372 N 
HETATM    9  H   UNK N   1      35.766  16.828   9.564  0.00  0.00     0.161 HD
BRANCH   8  10
HETATM   10  C   UNK N   1      35.245  14.766   9.599  0.00  0.00     0.161 C 
BRANCH  10  11
HETATM   11  C   UNK N   1      35.505  14.374  11.006  0.00  0.00    -0.025 A 
HETATM   12  C   UNK N   1      35.064  13.166  11.552  0.00  0.00     0.012 A 
HETATM   13  C   UNK N   1      35.290  12.900  12.903  0.00  0.00     0.035 A 
HETATM   14  C   UNK N   1      35.962  13.848  13.688  0.00  0.00     0.116 A 
HETATM   15  N   UNK N   1      36.397  15.009  13.126  0.00  0.00    -0.361 N 
HETATM   16  C   UNK N   1      36.179  15.286  11.817  0.00  0.00     0.097 A 
ATOM     17  HN  UNK N   1      36.899  15.684  13.702  1.00  0.00     0.165 HD
BRANCH  14  18
HETATM   18  C   UNK N   1      36.171  13.604  15.148  0.00  0.00     0.432 C 
HETATM   19  F   UNK N   1      34.946  13.395  15.752  0.00  0.00    -0.165 F 
HETATM   20  F   UNK N   1      36.780  14.698  15.738  0.00  0.00    -0.165 F 
HETATM   21  F   UNK N   1      36.970  12.491  15.330  0.00  0.00    -0.165 F 
ENDBRANCH  14  18
ENDBRANCH  10  11
ENDBRANCH   8  10
ENDBRANCH   3   8
BRANCH   7  22
HETATM   22  C   UNK N   1      30.115  16.942   6.821  0.00  0.00     0.081 C 
BRANCH  22  23
HETATM   23  C   UNK N   1      29.066  17.922   7.320  0.00  0.00    -0.024 A 
HETATM   24  C   UNK N   1      28.773  18.100   8.670  0.00  0.00     0.098 A 
HETATM   25  N   UNK N   1      27.806  19.042   8.817  0.00  0.00    -0.351 N 
HETATM   26  C   UNK N   1      27.492  19.450   7.575  0.00  0.00     0.116 A 
HETATM   27  H   UNK N   1      27.415  19.362   9.661  0.00  0.00     0.166 HD
HETATM   28  C   UNK N   1      28.232  18.799   6.634  0.00  0.00     0.018 A 
HETATM   29  N   UNK N   1      26.560  20.383   7.260  0.00  0.00    -0.350 N 
HETATM   30  C   UNK N   1      28.043  19.083   5.281  0.00  0.00     0.041 A 
HETATM   31  C   UNK N   1      27.077  20.039   4.931  0.00  0.00     0.050 A 
HETATM   32  C   UNK N   1      26.338  20.685   5.945  0.00  0.00     0.113 A 
HETATM   33 Cl   UNK N   1      26.782  20.411   3.246  0.00  0.00    -0.083 Cl
ATOM     34  HN  UNK N   1      26.031  20.852   7.995  1.00  0.00     0.166 HD
ENDBRANCH  22  23
ENDBRANCH   7  22
TORSDOF 6
ENDMDL
MODEL 2
REMARK VINA RESULT:      -8.4      6.634     12.261
REMARK  6 active torsions:
REMARK  status: ('A' for Active; 'I' for Inactive)
REMARK    1  A    between atoms: C_3  and  N_20 
REMARK    2  A    between atoms: C_7  and  C_8 
REMARK    3  A    between atoms: C_8  and  C_9 
REMARK    4  A    between atoms: N_20  and  C_21 
REMARK    5  A    between atoms: C_21  and  C_22 
REMARK    6  A    between atoms: C_25  and  C_29 
ROOT
HETATM    1  C   UNK N   1      34.585  10.579  15.387  0.00  0.00     0.012 A 
HETATM    2  C   UNK N   1      34.179  11.263  14.240  0.00  0.00     0.049 A 
HETATM    3  C   UNK N   1      34.739  12.512  13.962  0.00  0.00     0.101 A 
HETATM    4  N   UNK N   1      35.606  13.081  14.845  0.00  0.00    -0.352 N 
ATOM      5  HN  UNK N   1      35.981  14.009  14.646  1.00  0.00     0.166 HD
HETATM    6  C   UNK N   1      35.985  12.448  15.982  0.00  0.00     0.097 A 
HETATM    7  C   UNK N   1      35.525  11.159  16.241  0.00  0.00    -0.038 A 
ENDROOT
BRANCH   3   8
HETATM    8  N   UNK N   1      34.576  13.081  12.684  0.00  0.00    -0.372 N 
HETATM    9  H   UNK N   1      33.877  12.764  12.067  0.00  0.00     0.161 HD
BRANCH   8  10
HETATM   10  C   UNK N   1      35.474  14.148  12.315  0.00  0.00     0.161 C 
BRANCH  10  11
HETATM   11  C   UNK N   1      34.959  15.070  11.275  0.00  0.00    -0.025 A 
HETATM   12  C   UNK N   1      34.032  14.680  10.305  0.00  0.00     0.012 A 
HETATM   13  C   UNK N   1      33.646  15.589   9.319  0.00  0.00     0.035 A 
HETATM   14  C   UNK N   1      34.191  16.881   9.322  0.00  0.00     0.116 A 
HETATM   15  N   UNK N   1      35.078  17.240  10.290  0.00  0.00    -0.361 N 
HETATM   16  C   UNK N   1      35.469  16.368  11.251  0.00  0.00     0.097 A 
ATOM     17  HN  UNK N   1      35.456  18.188  10.293  1.00  0.00     0.165 HD
BRANCH  14  18
HETATM   18  C   UNK N   1      33.829  17.854   8.246  0.00  0.00     0.432 C 
HETATM   19  F   UNK N   1      32.487  18.166   8.351  0.00  0.00    -0.165 F 
HETATM   20  F   UNK N   1      34.064  17.304   6.998  0.00  0.00    -0.165 F 
HETATM   21  F   UNK N   1      34.582  19.005   8.380  0.00  0.00    -0.165 F 
ENDBRANCH  14  18
ENDBRANCH  10  11
ENDBRANCH   8  10
ENDBRANCH   3   8
BRANCH   7  22
HETATM   22  C   UNK N   1      36.136  10.351  17.333  0.00  0.00     0.081 C 
BRANCH  22  23
HETATM   23  C   UNK N   1      35.440  10.529  18.672  0.00  0.00    -0.024 A 
HETATM   24  C   UNK N   1      35.729  11.575  19.546  0.00  0.00     0.098 A 
HETATM   25  N   UNK N   1      34.949  11.485  20.654  0.00  0.00    -0.351 N 
HETATM   26  C   UNK N   1      34.182  10.395  20.481  0.00  0.00     0.116 A 
HETATM   27  H   UNK N   1      34.946  12.095  21.427  0.00  0.00     0.166 HD
HETATM   28  C   UNK N   1      34.443   9.784  19.293  0.00  0.00     0.018 A 
HETATM   29  N   UNK N   1      33.259   9.930  21.360  0.00  0.00    -0.350 N 
HETATM   30  C   UNK N   1      33.748   8.626  18.938  0.00  0.00     0.041 A 
HETATM   31  C   UNK N   1      32.794   8.122  19.835  0.00  0.00     0.050 A 
HETATM   32  C   UNK N   1      32.561   8.794  21.053  0.00  0.00     0.113 A 
HETATM   33 Cl   UNK N   1      31.916   6.657  19.448  0.00  0.00    -0.083 Cl
ATOM     34  HN  UNK N   1      33.089  10.420  22.237  1.00  0.00     0.166 HD
ENDBRANCH  22  23
ENDBRANCH   7  22
TORSDOF 6
ENDMDL
MODEL 3
REMARK VINA RESULT:      -8.4      6.478     12.056
REMARK  6 active torsions:
REMARK  status: ('A' for Active; 'I' for Inactive)
REMARK    1  A    between atoms: C_3  and  N_20 
REMARK    2  A    between atoms: C_7  and  C_8 
REMARK    3  A    between atoms: C_8  and  C_9 
REMARK    4  A    between atoms: N_20  and  C_21 
REMARK    5  A    between atoms: C_21  and  C_22 
REMARK    6  A    between atoms: C_25  and  C_29 
ROOT
HETATM    1  C   UNK N   1      36.404  14.016  16.245  0.00  0.00     0.012 A 
HETATM    2  C   UNK N   1      36.966  14.409  15.029  0.00  0.00     0.049 A 
HETATM    3  C   UNK N   1      36.432  13.904  13.842  0.00  0.00     0.101 A 
HETATM    4  N   UNK N   1      35.432  12.979  13.883  0.00  0.00    -0.352 N 
ATOM      5  HN  UNK N   1      35.076  12.593  13.008  1.00  0.00     0.166 HD
HETATM    6  C   UNK N   1      34.899  12.559  15.055  0.00  0.00     0.097 A 
HETATM    7  C   UNK N   1      35.336  13.116  16.254  0.00  0.00    -0.038 A 
ENDROOT
BRANCH   3   8
HETATM    8  N   UNK N   1      36.775  14.501  12.613  0.00  0.00    -0.372 N 
HETATM    9  H   UNK N   1      37.414  15.249  12.567  0.00  0.00     0.161 HD
BRANCH   8  10
HETATM   10  C   UNK N   1      36.154  13.972  11.424  0.00  0.00     0.161 C 
BRANCH  10  11
HETATM   11  C   UNK N   1      35.544  14.987  10.530  0.00  0.00    -0.025 A 
HETATM   12  C   UNK N   1      35.157  14.707   9.216  0.00  0.00     0.012 A 
HETATM   13  C   UNK N   1      34.652  15.733   8.417  0.00  0.00     0.035 A 
HETATM   14  C   UNK N   1      34.536  17.027   8.947  0.00  0.00     0.116 A 
HETATM   15  N   UNK N   1      34.903  17.266  10.236  0.00  0.00    -0.361 N 
HETATM   16  C   UNK N   1      35.403  16.283  11.024  0.00  0.00     0.097 A 
ATOM     17  HN  UNK N   1      34.800  18.207  10.617  1.00  0.00     0.165 HD
BRANCH  14  18
HETATM   18  C   UNK N   1      34.044  18.150   8.093  0.00  0.00     0.432 C 
HETATM   19  F   UNK N   1      34.216  17.816   6.763  0.00  0.00    -0.165 F 
HETATM   20  F   UNK N   1      34.755  19.307   8.359  0.00  0.00    -0.165 F 
HETATM   21  F   UNK N   1      32.704  18.377   8.340  0.00  0.00    -0.165 F 
ENDBRANCH  14  18
ENDBRANCH  10  11
ENDBRANCH   8  10
ENDBRANCH   3   8
BRANCH   7  22
HETATM   22  C   UNK N   1      34.583  12.869  17.515  0.00  0.00     0.081 C 
BRANCH  22  23
HETATM   23  C   UNK N   1      35.332  11.986  18.498  0.00  0.00    -0.024 A 
HETATM   24  C   UNK N   1      35.518  12.326  19.837  0.00  0.00     0.098 A 
HETATM   25  N   UNK N   1      36.211  11.346  20.473  0.00  0.00    -0.351 N 
HETATM   26  C   UNK N   1      36.461  10.405  19.547  0.00  0.00     0.116 A 
HETATM   27  H   UNK N   1      36.476  11.330  21.421  0.00  0.00     0.166 HD
HETATM   28  C   UNK N   1      35.946  10.748  18.334  0.00  0.00     0.018 A 
HETATM   29  N   UNK N   1      37.142   9.251  19.757  0.00  0.00    -0.350 N 
HETATM   30  C   UNK N   1      36.111   9.896  17.241  0.00  0.00     0.041 A 
HETATM   31  C   UNK N   1      36.820   8.700  17.432  0.00  0.00     0.050 A 
HETATM   32  C   UNK N   1      37.332   8.391  18.710  0.00  0.00     0.113 A 
HETATM   33 Cl   UNK N   1      37.079   7.611  16.086  0.00  0.00    -0.083 Cl
ATOM     34  HN  UNK N   1      37.507   9.027  20.682  1.00  0.00     0.166 HD
ENDBRANCH  22  23
ENDBRANCH   7  22
TORSDOF 6
ENDMDL
MODEL 4
REMARK VINA RESULT:      -8.3      1.421      2.193
REMARK  6 active torsions:
REMARK  status: ('A' for Active; 'I' for Inactive)
REMARK    1  A    between atoms: C_3  and  N_20 
REMARK    2  A    between atoms: C_7  and  C_8 
REMARK    3  A    between atoms: C_8  and  C_9 
REMARK    4  A    between atoms: N_20  and  C_21 
REMARK    5  A    between atoms: C_21  and  C_22 
REMARK    6  A    between atoms: C_25  and  C_29 
ROOT
HETATM    1  C   UNK N   1      32.504  14.969   8.860  0.00  0.00     0.012 A 
HETATM    2  C   UNK N   1      33.509  14.919   9.827  0.00  0.00     0.049 A 
HETATM    3  C   UNK N   1      34.223  16.082  10.123  0.00  0.00     0.101 A 
HETATM    4  N   UNK N   1      33.992  17.223   9.414  0.00  0.00    -0.352 N 
ATOM      5  HN  UNK N   1      34.546  18.055   9.618  1.00  0.00     0.166 HD
HETATM    6  C   UNK N   1      33.046  17.280   8.446  0.00  0.00     0.097 A 
HETATM    7  C   UNK N   1      32.245  16.169   8.194  0.00  0.00    -0.038 A 
ENDROOT
BRANCH   3   8
HETATM    8  N   UNK N   1      35.021  16.136  11.283  0.00  0.00    -0.372 N 
HETATM    9  H   UNK N   1      34.930  16.869  11.934  0.00  0.00     0.161 HD
BRANCH   8  10
HETATM   10  C   UNK N   1      35.976  15.073  11.478  0.00  0.00     0.161 C 
BRANCH  10  11
HETATM   11  C   UNK N   1      35.806  14.299  12.732  0.00  0.00    -0.025 A 
HETATM   12  C   UNK N   1      36.468  14.622  13.920  0.00  0.00     0.012 A 
HETATM   13  C   UNK N   1      36.306  13.804  15.039  0.00  0.00     0.035 A 
HETATM   14  C   UNK N   1      35.479  12.675  14.954  0.00  0.00     0.116 A 
HETATM   15  N   UNK N   1      34.831  12.395  13.790  0.00  0.00    -0.361 N 
HETATM   16  C   UNK N   1      34.982  13.175  12.691  0.00  0.00     0.097 A 
ATOM     17  HN  UNK N   1      34.218  11.581  13.744  1.00  0.00     0.165 HD
BRANCH  14  18
HETATM   18  C   UNK N   1      35.331  11.760  16.126  0.00  0.00     0.432 C 
HETATM   19  F   UNK N   1      36.571  11.249  16.460  0.00  0.00    -0.165 F 
HETATM   20  F   UNK N   1      34.483  10.710  15.816  0.00  0.00    -0.165 F 
HETATM   21  F   UNK N   1      34.814  12.454  17.203  0.00  0.00    -0.165 F 
ENDBRANCH  14  18
ENDBRANCH  10  11
ENDBRANCH   8  10
ENDBRANCH   3   8
BRANCH   7  22
HETATM   22  C   UNK N   1      31.034  16.297   7.336  0.00  0.00     0.081 C 
BRANCH  22  23
HETATM   23  C   UNK N   1      29.975  17.213   7.925  0.00  0.00    -0.024 A 
HETATM   24  C   UNK N   1      29.725  17.305   9.293  0.00  0.00     0.098 A 
HETATM   25  N   UNK N   1      28.736  18.207   9.525  0.00  0.00    -0.351 N 
HETATM   26  C   UNK N   1      28.366  18.673   8.319  0.00  0.00     0.116 A 
HETATM   27  H   UNK N   1      28.365  18.466  10.399  0.00  0.00     0.166 HD
HETATM   28  C   UNK N   1      29.092  18.100   7.319  0.00  0.00     0.018 A 
HETATM   29  N   UNK N   1      27.396  19.592   8.090  0.00  0.00    -0.350 N 
HETATM   30  C   UNK N   1      28.846  18.453   5.991  0.00  0.00     0.041 A 
HETATM   31  C   UNK N   1      27.840  19.396   5.729  0.00  0.00     0.050 A 
HETATM   32  C   UNK N   1      27.118  19.960   6.802  0.00  0.00     0.113 A 
HETATM   33 Cl   UNK N   1      27.474  19.851   4.078  0.00  0.00    -0.083 Cl
ATOM     34  HN  UNK N   1      26.879  20.002   8.867  1.00  0.00     0.166 HD
ENDBRANCH  22  23
ENDBRANCH   7  22
TORSDOF 6
ENDMDL
MODEL 5
REMARK VINA RESULT:      -8.2      5.277     10.037
REMARK  6 active torsions:
REMARK  status: ('A' for Active; 'I' for Inactive)
REMARK    1  A    between atoms: C_3  and  N_20 
REMARK    2  A    between atoms: C_7  and  C_8 
REMARK    3  A    between atoms: C_8  and  C_9 
REMARK    4  A    between atoms: N_20  and  C_21 
REMARK    5  A    between atoms: C_21  and  C_22 
REMARK    6  A    between atoms: C_25  and  C_29 
ROOT
HETATM    1  C   UNK N   1      35.589  14.526   9.395  0.00  0.00     0.012 A 
HETATM    2  C   UNK N   1      35.064  15.616   8.698  0.00  0.00     0.049 A 
HETATM    3  C   UNK N   1      34.864  16.820   9.375  0.00  0.00     0.101 A 
HETATM    4  N   UNK N   1      35.104  16.897  10.715  0.00  0.00    -0.352 N 
ATOM      5  HN  UNK N   1      34.920  17.774  11.203  1.00  0.00     0.166 HD
HETATM    6  C   UNK N   1      35.580  15.839  11.415  0.00  0.00     0.097 A 
HETATM    7  C   UNK N   1      35.887  14.653  10.753  0.00  0.00    -0.038 A 
ENDROOT
BRANCH   3   8
HETATM    8  N   UNK N   1      34.623  18.000   8.645  0.00  0.00    -0.372 N 
HETATM    9  H   UNK N   1      34.986  18.868   8.937  0.00  0.00     0.161 HD
BRANCH   8  10
HETATM   10  C   UNK N   1      33.822  17.887   7.451  0.00  0.00     0.161 C 
BRANCH  10  11
HETATM   11  C   UNK N   1      32.368  17.720   7.684  0.00  0.00    -0.025 A 
HETATM   12  C   UNK N   1      31.534  17.016   6.810  0.00  0.00     0.012 A 
HETATM   13  C   UNK N   1      30.163  16.961   7.065  0.00  0.00     0.035 A 
HETATM   14  C   UNK N   1      29.646  17.608   8.196  0.00  0.00     0.116 A 
HETATM   15  N   UNK N   1      30.484  18.270   9.041  0.00  0.00    -0.361 N 
HETATM   16  C   UNK N   1      31.817  18.340   8.805  0.00  0.00     0.097 A 
ATOM     17  HN  UNK N   1      30.099  18.723   9.870  1.00  0.00     0.165 HD
BRANCH  14  18
HETATM   18  C   UNK N   1      28.175  17.602   8.460  0.00  0.00     0.432 C 
HETATM   19  F   UNK N   1      27.731  18.904   8.580  0.00  0.00    -0.165 F 
HETATM   20  F   UNK N   1      27.898  16.925   9.636  0.00  0.00    -0.165 F 
HETATM   21  F   UNK N   1      27.512  16.983   7.418  0.00  0.00    -0.165 F 
ENDBRANCH  14  18
ENDBRANCH  10  11
ENDBRANCH   8  10
ENDBRANCH   3   8
BRANCH   7  22
HETATM   22  C   UNK N   1      36.657  13.585  11.448  0.00  0.00     0.081 C 
BRANCH  22  23
HETATM   23  C   UNK N   1      35.893  12.944  12.595  0.00  0.00    -0.024 A 
HETATM   24  C   UNK N   1      35.006  11.884  12.420  0.00  0.00     0.098 A 
HETATM   25  N   UNK N   1      34.481  11.514  13.616  0.00  0.00    -0.351 N 
HETATM   26  C   UNK N   1      35.028  12.332  14.532  0.00  0.00     0.116 A 
HETATM   27  H   UNK N   1      33.832  10.792  13.780  0.00  0.00     0.166 HD
HETATM   28  C   UNK N   1      35.893  13.215  13.960  0.00  0.00     0.018 A 
HETATM   29  N   UNK N   1      34.772  12.313  15.864  0.00  0.00    -0.350 N 
HETATM   30  C   UNK N   1      36.555  14.154  14.752  0.00  0.00     0.041 A 
HETATM   31  C   UNK N   1      36.299  14.158  16.131  0.00  0.00     0.050 A 
HETATM   32  C   UNK N   1      35.395  13.221  16.675  0.00  0.00     0.113 A 
HETATM   33 Cl   UNK N   1      37.083  15.335  17.165  0.00  0.00    -0.083 Cl
ATOM     34  HN  UNK N   1      34.122  11.632  16.254  1.00  0.00     0.166 HD
ENDBRANCH  22  23
ENDBRANCH   7  22
TORSDOF 6
ENDMDL
MODEL 6
REMARK VINA RESULT:      -8.2      6.598     12.011
REMARK  6 active torsions:
REMARK  status: ('A' for Active; 'I' for Inactive)
REMARK    1  A    between atoms: C_3  and  N_20 
REMARK    2  A    between atoms: C_7  and  C_8 
REMARK    3  A    between atoms: C_8  and  C_9 
REMARK    4  A    between atoms: N_20  and  C_21 
REMARK    5  A    between atoms: C_21  and  C_22 
REMARK    6  A    between atoms: C_25  and  C_29 
ROOT
HETATM    1  C   UNK N   1      34.837  12.534  14.823  0.00  0.00     0.012 A 
HETATM    2  C   UNK N   1      35.232  13.082  13.602  0.00  0.00     0.049 A 
HETATM    3  C   UNK N   1      36.315  13.963  13.574  0.00  0.00     0.101 A 
HETATM    4  N   UNK N   1      36.918  14.340  14.737  0.00  0.00    -0.352 N 
ATOM      5  HN  UNK N   1      37.685  15.011  14.704  1.00  0.00     0.166 HD
HETATM    6  C   UNK N   1      36.525  13.845  15.935  0.00  0.00     0.097 A 
HETATM    7  C   UNK N   1      35.516  12.887  15.991  0.00  0.00    -0.038 A 
ENDROOT
BRANCH   3   8
HETATM    8  N   UNK N   1      36.915  14.294  12.343  0.00  0.00    -0.372 N 
HETATM    9  H   UNK N   1      37.747  14.819  12.303  0.00  0.00     0.161 HD
BRANCH   8  10
HETATM   10  C   UNK N   1      36.262  13.832  11.143  0.00  0.00     0.161 C 
BRANCH  10  11
HETATM   11  C   UNK N   1      35.611  14.891  10.335  0.00  0.00    -0.025 A 
HETATM   12  C   UNK N   1      34.999  14.639   9.103  0.00  0.00     0.012 A 
HETATM   13  C   UNK N   1      34.468  15.702   8.372  0.00  0.00     0.035 A 
HETATM   14  C   UNK N   1      34.552  17.004   8.886  0.00  0.00     0.116 A 
HETATM   15  N   UNK N   1      35.136  17.217  10.097  0.00  0.00    -0.361 N 
HETATM   16  C   UNK N   1      35.664  16.198  10.818  0.00  0.00     0.097 A 
ATOM     17  HN  UNK N   1      35.177  18.166  10.470  1.00  0.00     0.165 HD
BRANCH  14  18
HETATM   18  C   UNK N   1      34.033  18.161   8.096  0.00  0.00     0.432 C 
HETATM   19  F   UNK N   1      32.735  18.430   8.486  0.00  0.00    -0.165 F 
HETATM   20  F   UNK N   1      34.042  17.866   6.744  0.00  0.00    -0.165 F 
HETATM   21  F   UNK N   1      34.820  19.274   8.320  0.00  0.00    -0.165 F 
ENDBRANCH  14  18
ENDBRANCH  10  11
ENDBRANCH   8  10
ENDBRANCH   3   8
BRANCH   7  22
HETATM   22  C   UNK N   1      35.260  12.140  17.254  0.00  0.00     0.081 C 
BRANCH  22  23
HETATM   23  C   UNK N   1      35.707  10.689  17.193  0.00  0.00    -0.024 A 
HETATM   24  C   UNK N   1      36.811  10.263  16.459  0.00  0.00     0.098 A 
HETATM   25  N   UNK N   1      36.975   8.923  16.599  0.00  0.00    -0.351 N 
HETATM   26  C   UNK N   1      35.985   8.509  17.409  0.00  0.00     0.116 A 
HETATM   27  H   UNK N   1      37.677   8.366  16.191  0.00  0.00     0.166 HD
HETATM   28  C   UNK N   1      35.192   9.546  17.797  0.00  0.00     0.018 A 
HETATM   29  N   UNK N   1      35.770   7.231  17.807  0.00  0.00    -0.350 N 
HETATM   30  C   UNK N   1      34.102   9.312  18.637  0.00  0.00     0.041 A 
HETATM   31  C   UNK N   1      33.855   7.996  19.054  0.00  0.00     0.050 A 
HETATM   32  C   UNK N   1      34.708   6.958  18.625  0.00  0.00     0.113 A 
HETATM   33 Cl   UNK N   1      32.483   7.646  20.085  0.00  0.00    -0.083 Cl
ATOM     34  HN  UNK N   1      36.391   6.483  17.499  1.00  0.00     0.166 HD
ENDBRANCH  22  23
ENDBRANCH   7  22
TORSDOF 6
ENDMDL
MODEL 7
REMARK VINA RESULT:      -8.1      1.834      2.047
REMARK  6 active torsions:
REMARK  status: ('A' for Active; 'I' for Inactive)
REMARK    1  A    between atoms: C_3  and  N_20 
REMARK    2  A    between atoms: C_7  and  C_8 
REMARK    3  A    between atoms: C_8  and  C_9 
REMARK    4  A    between atoms: N_20  and  C_21 
REMARK    5  A    between atoms: C_21  and  C_22 
REMARK    6  A    between atoms: C_25  and  C_29 
ROOT
HETATM    1  C   UNK N   1      31.906  16.189   8.651  0.00  0.00     0.012 A 
HETATM    2  C   UNK N   1      32.973  15.290   8.632  0.00  0.00     0.049 A 
HETATM    3  C   UNK N   1      34.264  15.775   8.415  0.00  0.00     0.101 A 
HETATM    4  N   UNK N   1      34.460  17.096   8.145  0.00  0.00    -0.352 N 
ATOM      5  HN  UNK N   1      35.404  17.430   7.955  1.00  0.00     0.166 HD
HETATM    6  C   UNK N   1      33.432  17.978   8.124  0.00  0.00     0.097 A 
HETATM    7  C   UNK N   1      32.144  17.548   8.436  0.00  0.00    -0.038 A 
ENDROOT
BRANCH   3   8
HETATM    8  N   UNK N   1      35.374  14.950   8.683  0.00  0.00    -0.372 N 
HETATM    9  H   UNK N   1      36.289  15.228   8.445  0.00  0.00     0.161 HD
BRANCH   8  10
HETATM   10  C   UNK N   1      35.118  13.682   9.320  0.00  0.00     0.161 C 
BRANCH  10  11
HETATM   11  C   UNK N   1      35.500  13.610  10.751  0.00  0.00    -0.025 A 
HETATM   12  C   UNK N   1      34.950  12.680  11.638  0.00  0.00     0.012 A 
HETATM   13  C   UNK N   1      35.312  12.720  12.985  0.00  0.00     0.035 A 
HETATM   14  C   UNK N   1      36.224  13.690  13.425  0.00  0.00     0.116 A 
HETATM   15  N   UNK N   1      36.758  14.572  12.536  0.00  0.00    -0.361 N 
HETATM   16  C   UNK N   1      36.413  14.551  11.225  0.00  0.00     0.097 A 
ATOM     17  HN  UNK N   1      37.433  15.263  12.863  1.00  0.00     0.165 HD
BRANCH  14  18
HETATM   18  C   UNK N   1      36.587  13.782  14.872  0.00  0.00     0.432 C 
HETATM   19  F   UNK N   1      35.451  13.596  15.636  0.00  0.00    -0.165 F 
HETATM   20  F   UNK N   1      37.120  15.026  15.159  0.00  0.00    -0.165 F 
HETATM   21  F   UNK N   1      37.518  12.810  15.187  0.00  0.00    -0.165 F 
ENDBRANCH  14  18
ENDBRANCH  10  11
ENDBRANCH   8  10
ENDBRANCH   3   8
BRANCH   7  22
HETATM   22  C   UNK N   1      31.061  18.541   8.683  0.00  0.00     0.081 C 
BRANCH  22  23
HETATM   23  C   UNK N   1      29.668  17.975   8.463  0.00  0.00    -0.024 A 
HETATM   24  C   UNK N   1      28.749  17.795   9.495  0.00  0.00     0.098 A 
HETATM   25  N   UNK N   1      27.591  17.285   9.002  0.00  0.00    -0.351 N 
HETATM   26  C   UNK N   1      27.779  17.142   7.679  0.00  0.00     0.116 A 
HETATM   27  H   UNK N   1      26.777  17.065   9.511  0.00  0.00     0.166 HD
HETATM   28  C   UNK N   1      29.024  17.549   7.306  0.00  0.00     0.018 A 
HETATM   29  N   UNK N   1      26.871  16.653   6.798  0.00  0.00    -0.350 N 
HETATM   30  C   UNK N   1      29.410  17.470   5.967  0.00  0.00     0.041 A 
HETATM   31  C   UNK N   1      28.490  16.959   5.039  0.00  0.00     0.050 A 
HETATM   32  C   UNK N   1      27.212  16.552   5.478  0.00  0.00     0.113 A 
HETATM   33 Cl   UNK N   1      28.936  16.812   3.352  0.00  0.00    -0.083 Cl
ATOM     34  HN  UNK N   1      25.947  16.364   7.117  1.00  0.00     0.166 HD
ENDBRANCH  22  23
ENDBRANCH   7  22
TORSDOF 6
ENDMDL
MODEL 8
REMARK VINA RESULT:      -8.1      2.577      3.476
REMARK  6 active torsions:
REMARK  status: ('A' for Active; 'I' for Inactive)
REMARK    1  A    between atoms: C_3  and  N_20 
REMARK    2  A    between atoms: C_7  and  C_8 
REMARK    3  A    between atoms: C_8  and  C_9 
REMARK    4  A    between atoms: N_20  and  C_21 
REMARK    5  A    between atoms: C_21  and  C_22 
REMARK    6  A    between atoms: C_25  and  C_29 
ROOT
HETATM    1  C   UNK N   1      34.389  15.718   7.413  0.00  0.00     0.012 A 
HETATM    2  C   UNK N   1      34.658  15.228   8.691  0.00  0.00     0.049 A 
HETATM    3  C   UNK N   1      34.600  16.103   9.778  0.00  0.00     0.101 A 
HETATM    4  N   UNK N   1      34.365  17.429   9.573  0.00  0.00    -0.352 N 
ATOM      5  HN  UNK N   1      34.360  18.062  10.373  1.00  0.00     0.166 HD
HETATM    6  C   UNK N   1      34.137  17.929   8.335  0.00  0.00     0.097 A 
HETATM    7  C   UNK N   1      34.086  17.070   7.240  0.00  0.00    -0.038 A 
ENDROOT
BRANCH   3   8
HETATM    8  N   UNK N   1      34.573  15.587  11.089  0.00  0.00    -0.372 N 
HETATM    9  H   UNK N   1      33.725  15.471  11.576  0.00  0.00     0.161 HD
BRANCH   8  10
HETATM   10  C   UNK N   1      35.837  15.236  11.688  0.00  0.00     0.161 C 
BRANCH  10  11
HETATM   11  C   UNK N   1      35.754  14.259  12.800  0.00  0.00    -0.025 A 
HETATM   12  C   UNK N   1      34.995  13.087  12.727  0.00  0.00     0.012 A 
HETATM   13  C   UNK N   1      34.914  12.251  13.841  0.00  0.00     0.035 A 
HETATM   14  C   UNK N   1      35.600  12.598  15.014  0.00  0.00     0.116 A 
HETATM   15  N   UNK N   1      36.347  13.736  15.051  0.00  0.00    -0.361 N 
HETATM   16  C   UNK N   1      36.431  14.563  13.980  0.00  0.00     0.097 A 
ATOM     17  HN  UNK N   1      36.856  13.970  15.904  1.00  0.00     0.165 HD
BRANCH  14  18
HETATM   18  C   UNK N   1      35.487  11.742  16.234  0.00  0.00     0.432 C 
HETATM   19  F   UNK N   1      35.173  12.538  17.319  0.00  0.00    -0.165 F 
HETATM   20  F   UNK N   1      36.686  11.098  16.485  0.00  0.00    -0.165 F 
HETATM   21  F   UNK N   1      34.496  10.796  16.055  0.00  0.00    -0.165 F 
ENDBRANCH  14  18
ENDBRANCH  10  11
ENDBRANCH   8  10
ENDBRANCH   3   8
BRANCH   7  22
HETATM   22  C   UNK N   1      33.572  17.556   5.929  0.00  0.00     0.081 C 
BRANCH  22  23
HETATM   23  C   UNK N   1      32.221  16.968   5.559  0.00  0.00    -0.024 A 
HETATM   24  C   UNK N   1      32.009  16.215   4.406  0.00  0.00     0.098 A 
HETATM   25  N   UNK N   1      30.712  15.815   4.344  0.00  0.00    -0.351 N 
HETATM   26  C   UNK N   1      30.116  16.313   5.441  0.00  0.00     0.116 A 
HETATM   27  H   UNK N   1      30.294  15.271   3.638  0.00  0.00     0.166 HD
HETATM   28  C   UNK N   1      30.992  17.017   6.209  0.00  0.00     0.018 A 
HETATM   29  N   UNK N   1      28.809  16.157   5.770  0.00  0.00    -0.350 N 
HETATM   30  C   UNK N   1      30.554  17.619   7.390  0.00  0.00     0.041 A 
HETATM   31  C   UNK N   1      29.205  17.478   7.747  0.00  0.00     0.050 A 
HETATM   32  C   UNK N   1      28.339  16.736   6.917  0.00  0.00     0.113 A 
HETATM   33 Cl   UNK N   1      28.600  18.238   9.205  0.00  0.00    -0.083 Cl
ATOM     34  HN  UNK N   1      28.187  15.617   5.171  1.00  0.00     0.166 HD
ENDBRANCH  22  23
ENDBRANCH   7  22
TORSDOF 6
ENDMDL
MODEL 9
REMARK VINA RESULT:      -8.0      2.336      3.019
REMARK  6 active torsions:
REMARK  status: ('A' for Active; 'I' for Inactive)
REMARK    1  A    between atoms: C_3  and  N_20 
REMARK    2  A    between atoms: C_7  and  C_8 
REMARK    3  A    between atoms: C_8  and  C_9 
REMARK    4  A    between atoms: N_20  and  C_21 
REMARK    5  A    between atoms: C_21  and  C_22 
REMARK    6  A    between atoms: C_25  and  C_29 
ROOT
HETATM    1  C   UNK N   1      33.930  17.040   7.273  0.00  0.00     0.012 A 
HETATM    2  C   UNK N   1      34.608  17.380   8.444  0.00  0.00     0.049 A 
HETATM    3  C   UNK N   1      34.255  16.748   9.638  0.00  0.00     0.101 A 
HETATM    4  N   UNK N   1      33.210  15.874   9.664  0.00  0.00    -0.352 N 
ATOM      5  HN  UNK N   1      32.941  15.447  10.551  1.00  0.00     0.166 HD
HETATM    6  C   UNK N   1      32.517  15.559   8.543  0.00  0.00     0.097 A 
HETATM    7  C   UNK N   1      32.905  16.092   7.317  0.00  0.00    -0.038 A 
ENDROOT
BRANCH   3   8
HETATM    8  N   UNK N   1      35.104  16.848  10.758  0.00  0.00    -0.372 N 
HETATM    9  H   UNK N   1      35.022  17.592  11.399  0.00  0.00     0.161 HD
BRANCH   8  10
HETATM   10  C   UNK N   1      36.096  15.816  10.931  0.00  0.00     0.161 C 
BRANCH  10  11
HETATM   11  C   UNK N   1      35.728  14.744  11.887  0.00  0.00    -0.025 A 
HETATM   12  C   UNK N   1      36.138  14.743  13.223  0.00  0.00     0.012 A 
HETATM   13  C   UNK N   1      35.805  13.663  14.042  0.00  0.00     0.035 A 
HETATM   14  C   UNK N   1      35.060  12.600  13.512  0.00  0.00     0.116 A 
HETATM   15  N   UNK N   1      34.657  12.636  12.212  0.00  0.00    -0.361 N 
HETATM   16  C   UNK N   1      34.978  13.674  11.400  0.00  0.00     0.097 A 
ATOM     17  HN  UNK N   1      34.101  11.866  11.842  1.00  0.00     0.165 HD
BRANCH  14  18
HETATM   18  C   UNK N   1      34.735  11.412  14.359  0.00  0.00     0.432 C 
HETATM   19  F   UNK N   1      33.449  11.541  14.846  0.00  0.00    -0.165 F 
HETATM   20  F   UNK N   1      35.611  11.327  15.428  0.00  0.00    -0.165 F 
HETATM   21  F   UNK N   1      34.829  10.258  13.606  0.00  0.00    -0.165 F 
ENDBRANCH  14  18
ENDBRANCH  10  11
ENDBRANCH   8  10
ENDBRANCH   3   8
BRANCH   7  22
HETATM   22  C   UNK N   1      32.336  15.553   6.051  0.00  0.00     0.081 C 
BRANCH  22  23
HETATM   23  C   UNK N   1      31.279  16.455   5.436  0.00  0.00    -0.024 A 
HETATM   24  C   UNK N   1      31.242  16.769   4.079  0.00  0.00     0.098 A 
HETATM   25  N   UNK N   1      30.187  17.582   3.818  0.00  0.00    -0.351 N 
HETATM   26  C   UNK N   1      29.569  17.780   4.996  0.00  0.00     0.116 A 
HETATM   27  H   UNK N   1      29.926  17.951   2.943  0.00  0.00     0.166 HD
HETATM   28  C   UNK N   1      30.195  17.115   6.006  0.00  0.00     0.018 A 
HETATM   29  N   UNK N   1      28.465  18.543   5.191  0.00  0.00    -0.350 N 
HETATM   30  C   UNK N   1      29.703  17.205   7.309  0.00  0.00     0.041 A 
HETATM   31  C   UNK N   1      28.566  17.996   7.536  0.00  0.00     0.050 A 
HETATM   32  C   UNK N   1      27.955  18.664   6.455  0.00  0.00     0.113 A 
HETATM   33 Cl   UNK N   1      27.927  18.165   9.158  0.00  0.00    -0.083 Cl
ATOM     34  HN  UNK N   1      28.022  19.021   4.407  1.00  0.00     0.166 HD
ENDBRANCH  22  23
ENDBRANCH   7  22
TORSDOF 6
ENDMDL
