REMARK  2 active torsions:
REMARK  status: ('A' for Active; 'I' for Inactive)
REMARK    1  A    between atoms: C_6  and  C_23 
REMARK       I    between atoms: C_9  and  N_17 
REMARK    2  A    between atoms: N_13  and  C_14 
REMARK       I    between atoms: C_27  and  N_31 
ROOT
HETATM    1  C   UNK N   1      -2.167  -0.749   0.006  0.00  0.00     0.089 C 
HETATM    2  C   UNK N   1      -0.677  -0.801   0.001  0.00  0.00     0.081 A 
HETATM    3  N   UNK N   1       0.088   0.322   0.001  0.00  0.00    -0.341 N 
ATOM      4  HN  UNK N   1      -0.225   1.293   0.006  1.00  0.00     0.167 HD
HETATM    5  C   UNK N   1       1.351  -0.140  -0.005  0.00  0.00     0.107 A 
HETATM    6  C   UNK N   1       2.560   0.556  -0.009  0.00  0.00     0.092 A 
HETATM    7  N   UNK N   1       3.703  -0.189  -0.015  0.00  0.00    -0.188 N 
ATOM      8  HN  UNK N   1       4.603   0.291  -0.016  1.00  0.00     0.184 HD
HETATM    9  C   UNK N   1       3.687  -1.561  -0.019  0.00  0.00     0.682 A 
HETATM   10  N   UNK N   1       2.488  -2.229  -0.015  0.00  0.00    -0.174 N 
ATOM     11  HN  UNK N   1       2.457  -3.248  -0.017  1.00  0.00     0.186 HD
HETATM   12  C   UNK N   1       1.344  -1.496  -0.009  0.00  0.00     0.154 A 
HETATM   13  N   UNK N   1       0.074  -1.942  -0.005  0.00  0.00    -0.317 N 
HETATM   14  N   UNK N   1       4.919  -2.272  -0.001  0.00  0.00    -0.213 N 
HETATM   15  C   UNK N   1       6.163  -1.508  -0.007  0.00  0.00     0.167 C 
HETATM   16  C   UNK N   1       7.384  -2.381   0.267  0.00  0.00     0.188 C 
HETATM   17  O   UNK N   1       7.271  -3.581  -0.441  0.00  0.00    -0.388 OA
HETATM   18  C   UNK N   1       6.305  -4.311   0.261  0.00  0.00     0.188 C 
HETATM   19  C   UNK N   1       4.913  -3.729  -0.003  0.00  0.00     0.167 C 
ENDROOT
BRANCH   6  20
HETATM   20  C   UNK N   1       2.668   2.033  -0.004  0.00  0.00     0.025 A 
HETATM   21  C   UNK N   1       1.548   2.869  -0.000  0.00  0.00     0.121 A 
HETATM   22  N   UNK N   1       1.707   4.219   0.002  0.00  0.00    -0.201 N 
HETATM   23  C   UNK N   1       2.948   4.775   0.001  0.00  0.00     0.675 A 
ATOM     24  HN  UNK N   1       0.885   4.823   0.004  1.00  0.00     0.183 HD
HETATM   25  N   UNK N   1       4.050   3.982  -0.001  0.00  0.00    -0.201 N 
HETATM   26  N   UNK N   1       3.093   6.176   0.002  0.00  0.00    -0.234 N 
HETATM   27  C   UNK N   1       3.932   2.631  -0.003  0.00  0.00     0.121 A 
ATOM     28  HN  UNK N   1       4.977   4.407  -0.001  1.00  0.00     0.183 HD
HETATM   29  H   UNK N   1       3.991   6.578   0.002  0.00  0.00     0.174 HD
HETATM   30  H   UNK N   1       2.295   6.753   0.002  0.00  0.00     0.174 HD
ENDBRANCH   6  20
BRANCH  13  31
HETATM   31  C   UNK N   1      -0.385  -3.343  -0.008  0.00  0.00     0.085 C 
HETATM   32  C   UNK N   1      -1.868  -3.672   0.004  0.00  0.00     0.032 C 
HETATM   33  C   UNK N   1       0.631  -4.472   0.001  0.00  0.00     0.032 C 
ENDBRANCH  13  31
TORSDOF 2
