MODEL 1
REMARK VINA RESULT:      -8.2      0.000      0.000
REMARK  7 active torsions:
REMARK  status: ('A' for Active; 'I' for Inactive)
REMARK       I    between atoms: N_2  and  C_3 
REMARK    1  A    between atoms: C_5  and  C_3 
REMARK    2  A    between atoms: C_6  and  O_33 
REMARK    3  A    between atoms: C_7  and  O_32 
REMARK    4  A    between atoms: C_8  and  N_10 
REMARK    5  A    between atoms: C_21  and  N_22 
REMARK    6  A    between atoms: N_22  and  C_23 
REMARK    7  A    between atoms: C_23  and  C_24 
ROOT
HETATM    1  N   UNK N   1      35.093  14.275   9.983  0.00  0.00    -0.297 N 
HETATM    2  C   UNK N   1      35.905  15.243  10.483  0.00  0.00     0.188 A 
HETATM    3  N   UNK N   1      36.431  14.872  11.684  0.00  0.00    -0.346 N 
ATOM      4  HN  UNK N   1      37.071  15.401  12.278  1.00  0.00     0.167 HD
HETATM    5  C   UNK N   1      35.914  13.649  11.909  0.00  0.00     0.122 A 
HETATM    6  C   UNK N   1      35.132  13.287  10.881  0.00  0.00     0.144 A 
HETATM    7  N   UNK N   1      34.468  12.106  10.846  0.00  0.00    -0.316 N 
ATOM      8  HN  UNK N   1      33.870  11.863  10.056  1.00  0.00     0.170 HD
HETATM    9  C   UNK N   1      34.623  11.252  11.903  0.00  0.00     0.182 A 
HETATM   10  N   UNK N   1      35.420  11.601  12.967  0.00  0.00    -0.317 N 
ATOM     11  HN  UNK N   1      35.528  10.954  13.747  1.00  0.00     0.170 HD
HETATM   12  C   UNK N   1      36.070  12.806  12.992  0.00  0.00     0.134 A 
HETATM   13 Cl   UNK N   1      33.778   9.720  11.910  0.00  0.00    -0.045 Cl
ENDROOT
BRANCH   1  14
HETATM   14  C   UNK N   1      34.272  14.323   8.774  0.00  0.00     0.263 C 
HETATM   15  C   UNK N   1      32.793  14.530   9.146  0.00  0.00     0.199 C 
HETATM   16  C   UNK N   1      32.321  15.367   8.009  0.00  0.00     0.189 C 
HETATM   17  C   UNK N   1      33.564  16.221   7.821  0.00  0.00     0.247 C 
HETATM   18  O   UNK N   1      34.680  15.370   7.912  0.00  0.00    -0.346 OA
BRANCH  15  19
HETATM   19  O   UNK N   1      32.671  15.283  10.321  0.00  0.00    -0.388 OA
HETATM   20  H   UNK N   1      32.755  15.529  11.255  0.00  0.00     0.210 HD
ENDBRANCH  15  19
BRANCH  16  21
HETATM   21  O   UNK N   1      32.119  14.541   6.897  0.00  0.00    -0.390 OA
HETATM   22  H   UNK N   1      32.408  13.925   6.205  0.00  0.00     0.210 HD
ENDBRANCH  16  21
BRANCH  17  23
HETATM   23  C   UNK N   1      33.570  17.070   6.578  0.00  0.00     0.249 C 
HETATM   24  N   UNK N   1      32.673  16.842   5.585  0.00  0.00    -0.363 N 
HETATM   25  C   UNK N   1      32.614  17.660   4.402  0.00  0.00     0.149 C 
HETATM   26  H   UNK N   1      32.042  16.093   5.679  0.00  0.00     0.162 HD
HETATM   27  O   UNK N   1      34.365  17.995   6.490  0.00  0.00    -0.271 OA
ENDBRANCH  17  23
ENDBRANCH   1  14
BRANCH  12  28
HETATM   28  N   UNK N   1      36.867  13.189  14.088  0.00  0.00    -0.370 N 
HETATM   29  H   UNK N   1      37.777  12.824  14.171  0.00  0.00     0.161 HD
BRANCH  28  30
HETATM   30  C   UNK N   1      36.380  14.100  15.089  0.00  0.00     0.160 C 
BRANCH  30  31
HETATM   31  C   UNK N   1      35.985  13.330  16.311  0.00  0.00    -0.039 A 
HETATM   32  C   UNK N   1      35.597  14.012  17.467  0.00  0.00     0.009 A 
HETATM   33  C   UNK N   1      35.198  13.297  18.602  0.00  0.00     0.002 A 
HETATM   34  C   UNK N   1      35.190  11.898  18.584  0.00  0.00     0.018 A 
HETATM   35  C   UNK N   1      35.582  11.212  17.432  0.00  0.00     0.007 A 
HETATM   36  C   UNK N   1      35.974  11.925  16.302  0.00  0.00     0.027 A 
HETATM   37  I   UNK N   1      35.587   9.110  17.377  0.00  0.00    -0.045 I 
ENDBRANCH  30  31
ENDBRANCH  28  30
ENDBRANCH  12  28
TORSDOF 7
ENDMDL
MODEL 2
REMARK VINA RESULT:      -8.2      1.800      2.707
REMARK  7 active torsions:
REMARK  status: ('A' for Active; 'I' for Inactive)
REMARK       I    between atoms: N_2  and  C_3 
REMARK    1  A    between atoms: C_5  and  C_3 
REMARK    2  A    between atoms: C_6  and  O_33 
REMARK    3  A    between atoms: C_7  and  O_32 
REMARK    4  A    between atoms: C_8  and  N_10 
REMARK    5  A    between atoms: C_21  and  N_22 
REMARK    6  A    between atoms: N_22  and  C_23 
REMARK    7  A    between atoms: C_23  and  C_24 
ROOT
HETATM    1  N   UNK N   1      35.376  14.367  12.279  0.00  0.00    -0.297 N 
HETATM    2  C   UNK N   1      36.274  14.750  13.225  0.00  0.00     0.188 A 
HETATM    3  N   UNK N   1      36.681  13.688  13.976  0.00  0.00    -0.346 N 
ATOM      4  HN  UNK N   1      37.348  13.685  14.748  1.00  0.00     0.167 HD
HETATM    5  C   UNK N   1      36.003  12.642  13.466  0.00  0.00     0.122 A 
HETATM    6  C   UNK N   1      35.240  13.048  12.439  0.00  0.00     0.144 A 
HETATM    7  N   UNK N   1      34.436  12.206  11.746  0.00  0.00    -0.316 N 
ATOM      8  HN  UNK N   1      33.858  12.546  10.977  1.00  0.00     0.170 HD
HETATM    9  C   UNK N   1      34.423  10.888  12.109  0.00  0.00     0.182 A 
HETATM   10  N   UNK N   1      35.196  10.448  13.157  0.00  0.00    -0.317 N 
ATOM     11  HN  UNK N   1      35.179   9.462  13.416  1.00  0.00     0.170 HD
HETATM   12  C   UNK N   1      35.990  11.317  13.857  0.00  0.00     0.134 A 
HETATM   13 Cl   UNK N   1      33.393   9.762  11.252  0.00  0.00    -0.045 Cl
ENDROOT
BRANCH   1  14
HETATM   14  C   UNK N   1      34.637  15.214  11.344  0.00  0.00     0.263 C 
HETATM   15  C   UNK N   1      35.478  16.446  10.967  0.00  0.00     0.199 C 
HETATM   16  C   UNK N   1      35.071  16.654   9.551  0.00  0.00     0.189 C 
HETATM   17  C   UNK N   1      34.955  15.200   9.128  0.00  0.00     0.247 C 
HETATM   18  O   UNK N   1      34.299  14.509  10.163  0.00  0.00    -0.346 OA
BRANCH  15  19
HETATM   19  O   UNK N   1      36.847  16.145  10.986  0.00  0.00    -0.388 OA
HETATM   20  H   UNK N   1      37.789  16.215  11.204  0.00  0.00     0.210 HD
ENDBRANCH  15  19
BRANCH  16  21
HETATM   21  O   UNK N   1      33.816  17.274   9.531  0.00  0.00    -0.390 OA
HETATM   22  H   UNK N   1      33.170  17.943   9.808  0.00  0.00     0.210 HD
ENDBRANCH  16  21
BRANCH  17  23
HETATM   23  C   UNK N   1      34.325  14.977   7.779  0.00  0.00     0.249 C 
HETATM   24  N   UNK N   1      34.489  15.887   6.785  0.00  0.00    -0.363 N 
HETATM   25  C   UNK N   1      33.943  15.690   5.468  0.00  0.00     0.149 C 
HETATM   26  H   UNK N   1      34.999  16.707   6.972  0.00  0.00     0.162 HD
HETATM   27  O   UNK N   1      33.697  13.948   7.575  0.00  0.00    -0.271 OA
ENDBRANCH  17  23
ENDBRANCH   1  14
BRANCH  12  28
HETATM   28  N   UNK N   1      36.766  10.887  14.950  0.00  0.00    -0.370 N 
HETATM   29  H   UNK N   1      37.677  11.243  15.063  0.00  0.00     0.161 HD
BRANCH  28  30
HETATM   30  C   UNK N   1      36.258   9.938  15.905  0.00  0.00     0.160 C 
BRANCH  30  31
HETATM   31  C   UNK N   1      36.045  10.623  17.219  0.00  0.00    -0.039 A 
HETATM   32  C   UNK N   1      35.399  11.862  17.259  0.00  0.00     0.009 A 
HETATM   33  C   UNK N   1      35.171  12.493  18.488  0.00  0.00     0.002 A 
HETATM   34  C   UNK N   1      35.592  11.888  19.678  0.00  0.00     0.018 A 
HETATM   35  C   UNK N   1      36.242  10.653  19.640  0.00  0.00     0.007 A 
HETATM   36  C   UNK N   1      36.465  10.024  18.419  0.00  0.00     0.027 A 
HETATM   37  I   UNK N   1      36.893   9.724  21.412  0.00  0.00    -0.045 I 
ENDBRANCH  30  31
ENDBRANCH  28  30
ENDBRANCH  12  28
TORSDOF 7
ENDMDL
MODEL 3
REMARK VINA RESULT:      -7.8      4.090      8.760
REMARK  7 active torsions:
REMARK  status: ('A' for Active; 'I' for Inactive)
REMARK       I    between atoms: N_2  and  C_3 
REMARK    1  A    between atoms: C_5  and  C_3 
REMARK    2  A    between atoms: C_6  and  O_33 
REMARK    3  A    between atoms: C_7  and  O_32 
REMARK    4  A    between atoms: C_8  and  N_10 
REMARK    5  A    between atoms: C_21  and  N_22 
REMARK    6  A    between atoms: N_22  and  C_23 
REMARK    7  A    between atoms: C_23  and  C_24 
ROOT
HETATM    1  N   UNK N   1      34.848  14.034  10.963  0.00  0.00    -0.297 N 
HETATM    2  C   UNK N   1      34.547  15.309  11.327  0.00  0.00     0.188 A 
HETATM    3  N   UNK N   1      34.450  16.122  10.237  0.00  0.00    -0.346 N 
ATOM      4  HN  UNK N   1      34.233  17.118  10.217  1.00  0.00     0.167 HD
HETATM    5  C   UNK N   1      34.705  15.309   9.194  0.00  0.00     0.122 A 
HETATM    6  C   UNK N   1      34.923  14.059   9.630  0.00  0.00     0.144 A 
HETATM    7  N   UNK N   1      35.220  13.033   8.796  0.00  0.00    -0.316 N 
ATOM      8  HN  UNK N   1      35.391  12.095   9.157  1.00  0.00     0.170 HD
HETATM    9  C   UNK N   1      35.282  13.295   7.455  0.00  0.00     0.182 A 
HETATM   10  N   UNK N   1      35.063  14.568   6.985  0.00  0.00    -0.317 N 
ATOM     11  HN  UNK N   1      35.112  14.749   5.983  1.00  0.00     0.170 HD
HETATM   12  C   UNK N   1      34.781  15.595   7.845  0.00  0.00     0.134 A 
HETATM   13 Cl   UNK N   1      35.674  12.007   6.337  0.00  0.00    -0.045 Cl
ENDROOT
BRANCH   1  14
HETATM   14  C   UNK N   1      35.129  12.892  11.832  0.00  0.00     0.263 C 
HETATM   15  C   UNK N   1      36.645  12.749  12.046  0.00  0.00     0.199 C 
HETATM   16  C   UNK N   1      36.697  12.249  13.446  0.00  0.00     0.189 C 
HETATM   17  C   UNK N   1      35.551  13.064  14.024  0.00  0.00     0.247 C 
HETATM   18  O   UNK N   1      34.498  13.032  13.092  0.00  0.00    -0.346 OA
BRANCH  15  19
HETATM   19  O   UNK N   1      37.279  13.998  12.006  0.00  0.00    -0.388 OA
HETATM   20  H   UNK N   1      37.573  14.877  12.292  0.00  0.00     0.210 HD
ENDBRANCH  15  19
BRANCH  16  21
HETATM   21  O   UNK N   1      36.380  10.886  13.449  0.00  0.00    -0.390 OA
HETATM   22  H   UNK N   1      36.586   9.943  13.345  0.00  0.00     0.210 HD
ENDBRANCH  16  21
BRANCH  17  23
HETATM   23  C   UNK N   1      35.123  12.667  15.411  0.00  0.00     0.249 C 
HETATM   24  N   UNK N   1      35.898  11.840  16.159  0.00  0.00    -0.363 N 
HETATM   25  C   UNK N   1      35.549  11.473  17.507  0.00  0.00     0.149 C 
HETATM   26  H   UNK N   1      36.725  11.481  15.766  0.00  0.00     0.162 HD
HETATM   27  O   UNK N   1      34.091  13.130  15.873  0.00  0.00    -0.271 OA
ENDBRANCH  17  23
ENDBRANCH   1  14
BRANCH  12  28
HETATM   28  N   UNK N   1      34.581  16.910   7.380  0.00  0.00    -0.370 N 
HETATM   29  H   UNK N   1      35.113  17.643   7.767  0.00  0.00     0.161 HD
BRANCH  28  30
HETATM   30  C   UNK N   1      33.618  17.206   6.354  0.00  0.00     0.160 C 
BRANCH  30  31
HETATM   31  C   UNK N   1      32.264  17.359   6.976  0.00  0.00    -0.039 A 
HETATM   32  C   UNK N   1      32.138  17.978   8.222  0.00  0.00     0.009 A 
HETATM   33  C   UNK N   1      30.872  18.150   8.794  0.00  0.00     0.002 A 
HETATM   34  C   UNK N   1      29.730  17.698   8.122  0.00  0.00     0.018 A 
HETATM   35  C   UNK N   1      29.853  17.075   6.878  0.00  0.00     0.007 A 
HETATM   36  C   UNK N   1      31.112  16.909   6.308  0.00  0.00     0.027 A 
HETATM   37  I   UNK N   1      28.156  16.381   5.848  0.00  0.00    -0.045 I 
ENDBRANCH  30  31
ENDBRANCH  28  30
ENDBRANCH  12  28
TORSDOF 7
ENDMDL
MODEL 4
REMARK VINA RESULT:      -7.8      5.532     10.345
REMARK  7 active torsions:
REMARK  status: ('A' for Active; 'I' for Inactive)
REMARK       I    between atoms: N_2  and  C_3 
REMARK    1  A    between atoms: C_5  and  C_3 
REMARK    2  A    between atoms: C_6  and  O_33 
REMARK    3  A    between atoms: C_7  and  O_32 
REMARK    4  A    between atoms: C_8  and  N_10 
REMARK    5  A    between atoms: C_21  and  N_22 
REMARK    6  A    between atoms: N_22  and  C_23 
REMARK    7  A    between atoms: C_23  and  C_24 
ROOT
HETATM    1  N   UNK N   1      33.188  15.471   9.275  0.00  0.00    -0.297 N 
HETATM    2  C   UNK N   1      32.124  15.388  10.117  0.00  0.00     0.188 A 
HETATM    3  N   UNK N   1      31.002  15.906   9.544  0.00  0.00    -0.346 N 
ATOM      4  HN  UNK N   1      30.066  15.971   9.946  1.00  0.00     0.167 HD
HETATM    5  C   UNK N   1      31.409  16.314   8.327  0.00  0.00     0.122 A 
HETATM    6  C   UNK N   1      32.711  16.034   8.162  0.00  0.00     0.144 A 
HETATM    7  N   UNK N   1      33.391  16.348   7.033  0.00  0.00    -0.316 N 
ATOM      8  HN  UNK N   1      34.383  16.133   6.941  1.00  0.00     0.170 HD
HETATM    9  C   UNK N   1      32.705  16.963   6.022  0.00  0.00     0.182 A 
HETATM   10  N   UNK N   1      31.371  17.261   6.168  0.00  0.00    -0.317 N 
ATOM     11  HN  UNK N   1      30.872  17.718   5.406  1.00  0.00     0.170 HD
HETATM   12  C   UNK N   1      30.705  16.950   7.323  0.00  0.00     0.134 A 
HETATM   13 Cl   UNK N   1      33.541  17.400   4.548  0.00  0.00    -0.045 Cl
ENDROOT
BRANCH   1  14
HETATM   14  C   UNK N   1      34.581  15.114   9.545  0.00  0.00     0.263 C 
HETATM   15  C   UNK N   1      35.389  16.373   9.904  0.00  0.00     0.199 C 
HETATM   16  C   UNK N   1      36.351  15.827  10.900  0.00  0.00     0.189 C 
HETATM   17  C   UNK N   1      35.425  14.847  11.601  0.00  0.00     0.247 C 
HETATM   18  O   UNK N   1      34.681  14.184  10.608  0.00  0.00    -0.346 OA
BRANCH  15  19
HETATM   19  O   UNK N   1      34.584  17.320  10.551  0.00  0.00    -0.388 OA
HETATM   20  H   UNK N   1      33.972  17.701  11.200  0.00  0.00     0.210 HD
ENDBRANCH  15  19
BRANCH  16  21
HETATM   21  O   UNK N   1      37.364  15.144  10.218  0.00  0.00    -0.390 OA
HETATM   22  H   UNK N   1      37.940  14.975   9.455  0.00  0.00     0.210 HD
ENDBRANCH  16  21
BRANCH  17  23
HETATM   23  C   UNK N   1      36.104  13.903  12.557  0.00  0.00     0.249 C 
HETATM   24  N   UNK N   1      36.146  14.183  13.884  0.00  0.00    -0.363 N 
HETATM   25  C   UNK N   1      36.743  13.286  14.839  0.00  0.00     0.149 C 
HETATM   26  H   UNK N   1      35.754  15.027  14.204  0.00  0.00     0.162 HD
HETATM   27  O   UNK N   1      36.581  12.861  12.131  0.00  0.00    -0.271 OA
ENDBRANCH  17  23
ENDBRANCH   1  14
BRANCH  12  28
HETATM   28  N   UNK N   1      29.346  17.273   7.498  0.00  0.00    -0.370 N 
HETATM   29  H   UNK N   1      29.036  17.595   8.375  0.00  0.00     0.161 HD
BRANCH  28  30
HETATM   30  C   UNK N   1      28.398  17.144   6.423  0.00  0.00     0.160 C 
BRANCH  30  31
HETATM   31  C   UNK N   1      27.718  18.459   6.200  0.00  0.00    -0.039 A 
HETATM   32  C   UNK N   1      27.886  19.493   7.126  0.00  0.00     0.009 A 
HETATM   33  C   UNK N   1      27.277  20.734   6.907  0.00  0.00     0.002 A 
HETATM   34  C   UNK N   1      26.495  20.942   5.765  0.00  0.00     0.018 A 
HETATM   35  C   UNK N   1      26.321  19.909   4.841  0.00  0.00     0.007 A 
HETATM   36  C   UNK N   1      26.931  18.677   5.057  0.00  0.00     0.027 A 
HETATM   37  I   UNK N   1      25.147  20.190   3.119  0.00  0.00    -0.045 I 
ENDBRANCH  30  31
ENDBRANCH  28  30
ENDBRANCH  12  28
TORSDOF 7
ENDMDL
MODEL 5
REMARK VINA RESULT:      -7.8      2.858      4.602
REMARK  7 active torsions:
REMARK  status: ('A' for Active; 'I' for Inactive)
REMARK       I    between atoms: N_2  and  C_3 
REMARK    1  A    between atoms: C_5  and  C_3 
REMARK    2  A    between atoms: C_6  and  O_33 
REMARK    3  A    between atoms: C_7  and  O_32 
REMARK    4  A    between atoms: C_8  and  N_10 
REMARK    5  A    between atoms: C_21  and  N_22 
REMARK    6  A    between atoms: N_22  and  C_23 
REMARK    7  A    between atoms: C_23  and  C_24 
ROOT
HETATM    1  N   UNK N   1      32.545  16.335   7.108  0.00  0.00    -0.297 N 
HETATM    2  C   UNK N   1      31.843  16.778   8.184  0.00  0.00     0.188 A 
HETATM    3  N   UNK N   1      32.484  16.477   9.348  0.00  0.00    -0.346 N 
ATOM      4  HN  UNK N   1      32.187  16.691  10.300  1.00  0.00     0.167 HD
HETATM    5  C   UNK N   1      33.600  15.832   8.955  0.00  0.00     0.122 A 
HETATM    6  C   UNK N   1      33.642  15.768   7.615  0.00  0.00     0.144 A 
HETATM    7  N   UNK N   1      34.649  15.159   6.943  0.00  0.00    -0.316 N 
ATOM      8  HN  UNK N   1      34.649  15.115   5.924  1.00  0.00     0.170 HD
HETATM    9  C   UNK N   1      35.664  14.604   7.672  0.00  0.00     0.182 A 
HETATM   10  N   UNK N   1      35.642  14.658   9.046  0.00  0.00    -0.317 N 
ATOM     11  HN  UNK N   1      36.405  14.242   9.578  1.00  0.00     0.170 HD
HETATM   12  C   UNK N   1      34.607  15.264   9.708  0.00  0.00     0.134 A 
HETATM   13 Cl   UNK N   1      36.981  13.796   6.852  0.00  0.00    -0.045 Cl
ENDROOT
BRANCH   1  14
HETATM   14  C   UNK N   1      32.155  16.377   5.699  0.00  0.00     0.263 C 
HETATM   15  C   UNK N   1      32.760  17.617   5.018  0.00  0.00     0.199 C 
HETATM   16  C   UNK N   1      33.028  17.097   3.650  0.00  0.00     0.189 C 
HETATM   17  C   UNK N   1      33.468  15.690   4.020  0.00  0.00     0.247 C 
HETATM   18  O   UNK N   1      32.585  15.218   5.008  0.00  0.00    -0.346 OA
BRANCH  15  19
HETATM   19  O   UNK N   1      33.988  17.962   5.601  0.00  0.00    -0.388 OA
HETATM   20  H   UNK N   1      34.939  17.949   5.790  0.00  0.00     0.210 HD
ENDBRANCH  15  19
BRANCH  16  21
HETATM   21  O   UNK N   1      31.824  17.065   2.938  0.00  0.00    -0.390 OA
HETATM   22  H   UNK N   1      31.052  17.471   2.512  0.00  0.00     0.210 HD
ENDBRANCH  16  21
BRANCH  17  23
HETATM   23  C   UNK N   1      33.615  14.743   2.859  0.00  0.00     0.249 C 
HETATM   24  N   UNK N   1      33.194  13.458   2.963  0.00  0.00    -0.363 N 
HETATM   25  C   UNK N   1      33.274  12.533   1.863  0.00  0.00     0.149 C 
HETATM   26  H   UNK N   1      32.821  13.148   3.820  0.00  0.00     0.162 HD
HETATM   27  O   UNK N   1      34.081  15.156   1.806  0.00  0.00    -0.271 OA
ENDBRANCH  17  23
ENDBRANCH   1  14
BRANCH  12  28
HETATM   28  N   UNK N   1      34.557  15.302  11.115  0.00  0.00    -0.370 N 
HETATM   29  H   UNK N   1      33.697  15.155  11.570  0.00  0.00     0.161 HD
BRANCH  28  30
HETATM   30  C   UNK N   1      35.735  15.553  11.902  0.00  0.00     0.160 C 
BRANCH  30  31
HETATM   31  C   UNK N   1      35.840  14.518  12.980  0.00  0.00    -0.039 A 
HETATM   32  C   UNK N   1      36.577  14.792  14.135  0.00  0.00     0.009 A 
HETATM   33  C   UNK N   1      36.654  13.840  15.159  0.00  0.00     0.002 A 
HETATM   34  C   UNK N   1      35.997  12.611  15.026  0.00  0.00     0.018 A 
HETATM   35  C   UNK N   1      35.264  12.333  13.871  0.00  0.00     0.007 A 
HETATM   36  C   UNK N   1      35.184  13.282  12.855  0.00  0.00     0.027 A 
HETATM   37  I   UNK N   1      34.273  10.492  13.641  0.00  0.00    -0.045 I 
ENDBRANCH  30  31
ENDBRANCH  28  30
ENDBRANCH  12  28
TORSDOF 7
ENDMDL
MODEL 6
REMARK VINA RESULT:      -7.6      4.631      8.751
REMARK  7 active torsions:
REMARK  status: ('A' for Active; 'I' for Inactive)
REMARK       I    between atoms: N_2  and  C_3 
REMARK    1  A    between atoms: C_5  and  C_3 
REMARK    2  A    between atoms: C_6  and  O_33 
REMARK    3  A    between atoms: C_7  and  O_32 
REMARK    4  A    between atoms: C_8  and  N_10 
REMARK    5  A    between atoms: C_21  and  N_22 
REMARK    6  A    between atoms: N_22  and  C_23 
REMARK    7  A    between atoms: C_23  and  C_24 
ROOT
HETATM    1  N   UNK N   1      35.559  14.923  11.383  0.00  0.00    -0.297 N 
HETATM    2  C   UNK N   1      35.436  16.275  11.330  0.00  0.00     0.188 A 
HETATM    3  N   UNK N   1      34.505  16.650  10.409  0.00  0.00    -0.346 N 
ATOM      4  HN  UNK N   1      34.210  17.595  10.165  1.00  0.00     0.167 HD
HETATM    5  C   UNK N   1      34.062  15.486   9.893  0.00  0.00     0.122 A 
HETATM    6  C   UNK N   1      34.680  14.456  10.492  0.00  0.00     0.144 A 
HETATM    7  N   UNK N   1      34.440  13.165  10.160  0.00  0.00    -0.316 N 
ATOM      8  HN  UNK N   1      34.933  12.403  10.625  1.00  0.00     0.170 HD
HETATM    9  C   UNK N   1      33.516  12.915   9.183  0.00  0.00     0.182 A 
HETATM   10  N   UNK N   1      32.871  13.954   8.556  0.00  0.00    -0.317 N 
ATOM     11  HN  UNK N   1      32.184  13.754   7.830  1.00  0.00     0.170 HD
HETATM   12  C   UNK N   1      33.139  15.254   8.893  0.00  0.00     0.134 A 
HETATM   13 Cl   UNK N   1      33.179  11.265   8.710  0.00  0.00    -0.045 Cl
ENDROOT
BRANCH   1  14
HETATM   14  C   UNK N   1      36.509  14.134  12.167  0.00  0.00     0.263 C 
HETATM   15  C   UNK N   1      35.811  13.540  13.402  0.00  0.00     0.199 C 
HETATM   16  C   UNK N   1      36.515  12.236  13.536  0.00  0.00     0.189 C 
HETATM   17  C   UNK N   1      36.667  11.903  12.062  0.00  0.00     0.247 C 
HETATM   18  O   UNK N   1      37.064  13.080  11.402  0.00  0.00    -0.346 OA
BRANCH  15  19
HETATM   19  O   UNK N   1      34.459  13.279  13.139  0.00  0.00    -0.388 OA
HETATM   20  H   UNK N   1      33.552  13.416  12.825  0.00  0.00     0.210 HD
ENDBRANCH  15  19
BRANCH  16  21
HETATM   21  O   UNK N   1      37.767  12.460  14.121  0.00  0.00    -0.390 OA
HETATM   22  H   UNK N   1      38.355  12.742  14.840  0.00  0.00     0.210 HD
ENDBRANCH  16  21
BRANCH  17  23
HETATM   23  C   UNK N   1      37.559  10.729  11.762  0.00  0.00     0.249 C 
HETATM   24  N   UNK N   1      37.770   9.770  12.699  0.00  0.00    -0.363 N 
HETATM   25  C   UNK N   1      38.579   8.608  12.438  0.00  0.00     0.149 C 
HETATM   26  H   UNK N   1      37.356   9.873  13.586  0.00  0.00     0.162 HD
HETATM   27  O   UNK N   1      38.059  10.627  10.651  0.00  0.00    -0.271 OA
ENDBRANCH  17  23
ENDBRANCH   1  14
BRANCH  12  28
HETATM   28  N   UNK N   1      32.506  16.329   8.240  0.00  0.00    -0.370 N 
HETATM   29  H   UNK N   1      32.823  17.246   8.406  0.00  0.00     0.161 HD
BRANCH  28  30
HETATM   30  C   UNK N   1      31.408  16.117   7.336  0.00  0.00     0.160 C 
BRANCH  30  31
HETATM   31  C   UNK N   1      30.293  17.056   7.682  0.00  0.00    -0.039 A 
HETATM   32  C   UNK N   1      30.093  17.435   9.012  0.00  0.00     0.009 A 
HETATM   33  C   UNK N   1      29.072  18.336   9.337  0.00  0.00     0.002 A 
HETATM   34  C   UNK N   1      28.247  18.855   8.333  0.00  0.00     0.018 A 
HETATM   35  C   UNK N   1      28.442  18.475   7.003  0.00  0.00     0.007 A 
HETATM   36  C   UNK N   1      29.461  17.583   6.680  0.00  0.00     0.027 A 
HETATM   37  I   UNK N   1      27.213  19.234   5.474  0.00  0.00    -0.045 I 
ENDBRANCH  30  31
ENDBRANCH  28  30
ENDBRANCH  12  28
TORSDOF 7
ENDMDL
MODEL 7
REMARK VINA RESULT:      -7.6      2.402      3.477
REMARK  7 active torsions:
REMARK  status: ('A' for Active; 'I' for Inactive)
REMARK       I    between atoms: N_2  and  C_3 
REMARK    1  A    between atoms: C_5  and  C_3 
REMARK    2  A    between atoms: C_6  and  O_33 
REMARK    3  A    between atoms: C_7  and  O_32 
REMARK    4  A    between atoms: C_8  and  N_10 
REMARK    5  A    between atoms: C_21  and  N_22 
REMARK    6  A    between atoms: N_22  and  C_23 
REMARK    7  A    between atoms: C_23  and  C_24 
ROOT
HETATM    1  N   UNK N   1      35.049  13.782  12.053  0.00  0.00    -0.297 N 
HETATM    2  C   UNK N   1      34.930  12.472  11.711  0.00  0.00     0.188 A 
HETATM    3  N   UNK N   1      35.589  11.671  12.595  0.00  0.00    -0.346 N 
ATOM      4  HN  UNK N   1      35.664  10.653  12.583  1.00  0.00     0.167 HD
HETATM    5  C   UNK N   1      36.119  12.528  13.488  0.00  0.00     0.122 A 
HETATM    6  C   UNK N   1      35.777  13.787  13.173  0.00  0.00     0.144 A 
HETATM    7  N   UNK N   1      36.185  14.860  13.893  0.00  0.00    -0.316 N 
ATOM      8  HN  UNK N   1      35.919  15.806  13.622  1.00  0.00     0.170 HD
HETATM    9  C   UNK N   1      36.966  14.634  14.993  0.00  0.00     0.182 A 
HETATM   10  N   UNK N   1      37.329  13.353  15.336  0.00  0.00    -0.317 N 
ATOM     11  HN  UNK N   1      37.911  13.199  16.159  1.00  0.00     0.170 HD
HETATM   12  C   UNK N   1      36.921  12.283  14.586  0.00  0.00     0.134 A 
HETATM   13 Cl   UNK N   1      37.529  15.987  15.949  0.00  0.00    -0.045 Cl
ENDROOT
BRANCH   1  14
HETATM   14  C   UNK N   1      34.571  14.952  11.318  0.00  0.00     0.263 C 
HETATM   15  C   UNK N   1      35.761  15.821  10.876  0.00  0.00     0.199 C 
HETATM   16  C   UNK N   1      35.272  16.341   9.569  0.00  0.00     0.189 C 
HETATM   17  C   UNK N   1      34.546  15.098   9.084  0.00  0.00     0.247 C 
HETATM   18  O   UNK N   1      33.826  14.576  10.174  0.00  0.00    -0.346 OA
BRANCH  15  19
HETATM   19  O   UNK N   1      36.896  15.035  10.634  0.00  0.00    -0.388 OA
HETATM   20  H   UNK N   1      37.640  14.637  10.157  0.00  0.00     0.210 HD
ENDBRANCH  15  19
BRANCH  16  21
HETATM   21  O   UNK N   1      34.364  17.378   9.810  0.00  0.00    -0.390 OA
HETATM   22  H   UNK N   1      34.101  18.241  10.169  0.00  0.00     0.210 HD
ENDBRANCH  16  21
BRANCH  17  23
HETATM   23  C   UNK N   1      33.697  15.295   7.856  0.00  0.00     0.249 C 
HETATM   24  N   UNK N   1      32.596  14.530   7.653  0.00  0.00    -0.363 N 
HETATM   25  C   UNK N   1      31.731  14.716   6.516  0.00  0.00     0.149 C 
HETATM   26  H   UNK N   1      32.380  13.825   8.304  0.00  0.00     0.162 HD
HETATM   27  O   UNK N   1      33.989  16.180   7.064  0.00  0.00    -0.271 OA
ENDBRANCH  17  23
ENDBRANCH   1  14
BRANCH  12  28
HETATM   28  N   UNK N   1      37.308  10.968  14.909  0.00  0.00    -0.370 N 
HETATM   29  H   UNK N   1      38.237  10.686  14.745  0.00  0.00     0.161 HD
BRANCH  28  30
HETATM   30  C   UNK N   1      36.377  10.026  15.471  0.00  0.00     0.160 C 
BRANCH  30  31
HETATM   31  C   UNK N   1      36.280  10.248  16.949  0.00  0.00    -0.039 A 
HETATM   32  C   UNK N   1      35.467  11.270  17.446  0.00  0.00     0.009 A 
HETATM   33  C   UNK N   1      35.349  11.462  18.827  0.00  0.00     0.002 A 
HETATM   34  C   UNK N   1      36.048  10.635  19.714  0.00  0.00     0.018 A 
HETATM   35  C   UNK N   1      36.865   9.615  19.220  0.00  0.00     0.007 A 
HETATM   36  C   UNK N   1      36.978   9.422  17.846  0.00  0.00     0.027 A 
HETATM   37  I   UNK N   1      37.932   8.361  20.528  0.00  0.00    -0.045 I 
ENDBRANCH  30  31
ENDBRANCH  28  30
ENDBRANCH  12  28
TORSDOF 7
ENDMDL
MODEL 8
REMARK VINA RESULT:      -7.6      5.900     11.297
REMARK  7 active torsions:
REMARK  status: ('A' for Active; 'I' for Inactive)
REMARK       I    between atoms: N_2  and  C_3 
REMARK    1  A    between atoms: C_5  and  C_3 
REMARK    2  A    between atoms: C_6  and  O_33 
REMARK    3  A    between atoms: C_7  and  O_32 
REMARK    4  A    between atoms: C_8  and  N_10 
REMARK    5  A    between atoms: C_21  and  N_22 
REMARK    6  A    between atoms: N_22  and  C_23 
REMARK    7  A    between atoms: C_23  and  C_24 
ROOT
HETATM    1  N   UNK N   1      32.028  16.103   7.870  0.00  0.00    -0.297 N 
HETATM    2  C   UNK N   1      31.021  16.436   8.720  0.00  0.00     0.188 A 
HETATM    3  N   UNK N   1      30.020  17.089   8.065  0.00  0.00    -0.346 N 
ATOM      4  HN  UNK N   1      29.148  17.448   8.454  1.00  0.00     0.167 HD
HETATM    5  C   UNK N   1      30.444  17.152   6.788  0.00  0.00     0.122 A 
HETATM    6  C   UNK N   1      31.635  16.544   6.672  0.00  0.00     0.144 A 
HETATM    7  N   UNK N   1      32.308  16.469   5.498  0.00  0.00    -0.316 N 
ATOM      8  HN  UNK N   1      33.217  16.011   5.442  1.00  0.00     0.170 HD
HETATM    9  C   UNK N   1      31.730  17.028   4.391  0.00  0.00     0.182 A 
HETATM   10  N   UNK N   1      30.511  17.656   4.486  0.00  0.00    -0.317 N 
ATOM     11  HN  UNK N   1      30.091  18.067   3.653  1.00  0.00     0.170 HD
HETATM   12  C   UNK N   1      29.854  17.736   5.685  0.00  0.00     0.134 A 
HETATM   13 Cl   UNK N   1      32.564  16.969   2.854  0.00  0.00    -0.045 Cl
ENDROOT
BRANCH   1  14
HETATM   14  C   UNK N   1      33.312  15.484   8.194  0.00  0.00     0.263 C 
HETATM   15  C   UNK N   1      34.340  16.563   8.574  0.00  0.00     0.199 C 
HETATM   16  C   UNK N   1      35.139  15.853   9.609  0.00  0.00     0.189 C 
HETATM   17  C   UNK N   1      34.015  15.084  10.281  0.00  0.00     0.247 C 
HETATM   18  O   UNK N   1      33.190  14.567   9.266  0.00  0.00    -0.346 OA
BRANCH  15  19
HETATM   19  O   UNK N   1      33.715  17.660   9.184  0.00  0.00    -0.388 OA
HETATM   20  H   UNK N   1      33.570  18.569   9.488  0.00  0.00     0.210 HD
ENDBRANCH  15  19
BRANCH  16  21
HETATM   21  O   UNK N   1      36.022  14.974   8.970  0.00  0.00    -0.390 OA
HETATM   22  H   UNK N   1      36.379  14.096   8.761  0.00  0.00     0.210 HD
ENDBRANCH  16  21
BRANCH  17  23
HETATM   23  C   UNK N   1      34.460  14.038  11.269  0.00  0.00     0.249 C 
HETATM   24  N   UNK N   1      34.541  12.735  10.900  0.00  0.00    -0.363 N 
HETATM   25  C   UNK N   1      35.006  11.711  11.799  0.00  0.00     0.149 C 
HETATM   26  H   UNK N   1      34.275  12.483   9.987  0.00  0.00     0.162 HD
HETATM   27  O   UNK N   1      34.786  14.382  12.396  0.00  0.00    -0.271 OA
ENDBRANCH  17  23
ENDBRANCH   1  14
BRANCH  12  28
HETATM   28  N   UNK N   1      28.618  18.400   5.803  0.00  0.00    -0.370 N 
HETATM   29  H   UNK N   1      28.605  19.352   6.055  0.00  0.00     0.161 HD
BRANCH  28  30
HETATM   30  C   UNK N   1      27.373  17.720   5.564  0.00  0.00     0.160 C 
BRANCH  30  31
HETATM   31  C   UNK N   1      26.478  18.597   4.744  0.00  0.00    -0.039 A 
HETATM   32  C   UNK N   1      27.026  19.647   4.001  0.00  0.00     0.009 A 
HETATM   33  C   UNK N   1      26.198  20.451   3.210  0.00  0.00     0.002 A 
HETATM   34  C   UNK N   1      24.821  20.210   3.163  0.00  0.00     0.018 A 
HETATM   35  C   UNK N   1      24.269  19.165   3.908  0.00  0.00     0.007 A 
HETATM   36  C   UNK N   1      25.094  18.362   4.691  0.00  0.00     0.027 A 
HETATM   37  I   UNK N   1      22.201  18.783   3.863  0.00  0.00    -0.045 I 
ENDBRANCH  30  31
ENDBRANCH  28  30
ENDBRANCH  12  28
TORSDOF 7
ENDMDL
MODEL 9
REMARK VINA RESULT:      -7.5      1.479      1.811
REMARK  7 active torsions:
REMARK  status: ('A' for Active; 'I' for Inactive)
REMARK       I    between atoms: N_2  and  C_3 
REMARK    1  A    between atoms: C_5  and  C_3 
REMARK    2  A    between atoms: C_6  and  O_33 
REMARK    3  A    between atoms: C_7  and  O_32 
REMARK    4  A    between atoms: C_8  and  N_10 
REMARK    5  A    between atoms: C_21  and  N_22 
REMARK    6  A    between atoms: N_22  and  C_23 
REMARK    7  A    between atoms: C_23  and  C_24 
ROOT
HETATM    1  N   UNK N   1      34.598  15.612  10.281  0.00  0.00    -0.297 N 
HETATM    2  C   UNK N   1      35.362  16.407  11.076  0.00  0.00     0.188 A 
HETATM    3  N   UNK N   1      36.063  15.669  11.981  0.00  0.00    -0.346 N 
ATOM      4  HN  UNK N   1      36.713  16.003  12.693  1.00  0.00     0.167 HD
HETATM    5  C   UNK N   1      35.704  14.397  11.722  0.00  0.00     0.122 A 
HETATM    6  C   UNK N   1      34.844  14.366  10.692  0.00  0.00     0.144 A 
HETATM    7  N   UNK N   1      34.303  13.215  10.224  0.00  0.00    -0.316 N 
ATOM      8  HN  UNK N   1      33.643  13.223   9.446  1.00  0.00     0.170 HD
HETATM    9  C   UNK N   1      34.670  12.043  10.825  0.00  0.00     0.182 A 
HETATM   10  N   UNK N   1      35.550  12.050  11.881  0.00  0.00    -0.317 N 
ATOM     11  HN  UNK N   1      35.816  11.169  12.320  1.00  0.00     0.170 HD
HETATM   12  C   UNK N   1      36.073  13.225  12.352  0.00  0.00     0.134 A 
HETATM   13 Cl   UNK N   1      33.991  10.531  10.264  0.00  0.00    -0.045 Cl
ENDROOT
BRANCH   1  14
HETATM   14  C   UNK N   1      33.636  16.020   9.257  0.00  0.00     0.263 C 
HETATM   15  C   UNK N   1      33.857  17.495   8.881  0.00  0.00     0.199 C 
HETATM   16  C   UNK N   1      33.520  17.481   7.432  0.00  0.00     0.189 C 
HETATM   17  C   UNK N   1      34.110  16.128   7.072  0.00  0.00     0.247 C 
HETATM   18  O   UNK N   1      33.753  15.226   8.091  0.00  0.00    -0.346 OA
BRANCH  15  19
HETATM   19  O   UNK N   1      35.207  17.851   9.010  0.00  0.00    -0.388 OA
HETATM   20  H   UNK N   1      36.090  18.168   8.765  0.00  0.00     0.210 HD
ENDBRANCH  15  19
BRANCH  16  21
HETATM   21  O   UNK N   1      32.127  17.461   7.296  0.00  0.00    -0.390 OA
HETATM   22  H   UNK N   1      31.232  17.811   7.436  0.00  0.00     0.210 HD
ENDBRANCH  16  21
BRANCH  17  23
HETATM   23  C   UNK N   1      33.764  15.628   5.694  0.00  0.00     0.249 C 
HETATM   24  N   UNK N   1      32.467  15.514   5.311  0.00  0.00    -0.363 N 
HETATM   25  C   UNK N   1      32.094  15.085   3.988  0.00  0.00     0.149 C 
HETATM   26  H   UNK N   1      31.759  15.734   5.958  0.00  0.00     0.162 HD
HETATM   27  O   UNK N   1      34.664  15.365   4.911  0.00  0.00    -0.271 OA
ENDBRANCH  17  23
ENDBRANCH   1  14
BRANCH  12  28
HETATM   28  N   UNK N   1      36.953  13.250  13.451  0.00  0.00    -0.370 N 
HETATM   29  H   UNK N   1      37.407  14.092  13.684  0.00  0.00     0.161 HD
BRANCH  28  30
HETATM   30  C   UNK N   1      37.205  12.073  14.239  0.00  0.00     0.160 C 
BRANCH  30  31
HETATM   31  C   UNK N   1      36.487  12.191  15.549  0.00  0.00    -0.039 A 
HETATM   32  C   UNK N   1      36.044  13.442  15.987  0.00  0.00     0.009 A 
HETATM   33  C   UNK N   1      35.346  13.554  17.195  0.00  0.00     0.002 A 
HETATM   34  C   UNK N   1      35.095  12.416  17.969  0.00  0.00     0.018 A 
HETATM   35  C   UNK N   1      35.541  11.165  17.537  0.00  0.00     0.007 A 
HETATM   36  C   UNK N   1      36.231  11.054  16.332  0.00  0.00     0.027 A 
HETATM   37  I   UNK N   1      35.185   9.438  18.683  0.00  0.00    -0.045 I 
ENDBRANCH  30  31
ENDBRANCH  28  30
ENDBRANCH  12  28
TORSDOF 7
ENDMDL
