MODEL 1
REMARK VINA RESULT:      -4.8      0.000      0.000
REMARK  3 active torsions:
REMARK  status: ('A' for Active; 'I' for Inactive)
REMARK    1  A    between atoms: O_2  and  C_3 
REMARK    2  A    between atoms: C_5  and  C_13 
REMARK    3  A    between atoms: C_8  and  O_11 
ROOT
HETATM    1  C   UNK N   1      42.807  22.010   2.710  0.00  0.00     0.118 A 
HETATM    2  C   UNK N   1      42.019  22.624   1.682  0.00  0.00     0.096 A 
HETATM    3  C   UNK N   1      42.526  23.800   1.039  0.00  0.00     0.090 A 
HETATM    4  N   UNK N   1      43.725  24.299   1.452  0.00  0.00    -0.334 N 
ATOM      5  HN  UNK N   1      44.067  25.157   1.017  1.00  0.00     0.168 HD
HETATM    6  C   UNK N   1      44.491  23.721   2.408  0.00  0.00     0.167 A 
HETATM    7  C   UNK N   1      44.051  22.564   3.041  0.00  0.00     0.119 A 
HETATM    8 Cl   UNK N   1      45.053  21.809   4.278  0.00  0.00    -0.077 Cl
HETATM    9 Cl   UNK N   1      40.451  21.936   1.242  0.00  0.00    -0.079 Cl
ENDROOT
BRANCH   3  10
HETATM   10  C   UNK N   1      41.848  24.581  -0.095  0.00  0.00     0.232 C 
HETATM   11 Cl   UNK N   1      40.403  25.388   0.561  0.00  0.00    -0.077 Cl
HETATM   12 Cl   UNK N   1      42.970  25.855  -0.648  0.00  0.00    -0.077 Cl
HETATM   13 Cl   UNK N   1      41.354  23.742  -1.592  0.00  0.00    -0.077 Cl
ENDBRANCH   3  10
BRANCH   1  14
HETATM   14  O   UNK N   1      42.431  20.904   3.415  0.00  0.00    -0.352 OA
HETATM   15  C   UNK N   1      42.507  19.590   3.022  0.00  0.00     0.210 C 
ENDBRANCH   1  14
BRANCH   6  16
HETATM   16  O   UNK N   1      45.686  24.259   2.753  0.00  0.00    -0.339 OA
HETATM   17  C   UNK N   1      46.255  25.299   2.058  0.00  0.00     0.211 C 
ENDBRANCH   6  16
TORSDOF 3
ENDMDL
MODEL 2
REMARK VINA RESULT:      -4.7     12.901     14.804
REMARK  3 active torsions:
REMARK  status: ('A' for Active; 'I' for Inactive)
REMARK    1  A    between atoms: O_2  and  C_3 
REMARK    2  A    between atoms: C_5  and  C_13 
REMARK    3  A    between atoms: C_8  and  O_11 
ROOT
HETATM    1  C   UNK N   1      31.413  16.533   5.810  0.00  0.00     0.118 A 
HETATM    2  C   UNK N   1      30.188  16.897   6.459  0.00  0.00     0.096 A 
HETATM    3  C   UNK N   1      30.254  17.589   7.712  0.00  0.00     0.090 A 
HETATM    4  N   UNK N   1      31.482  17.848   8.245  0.00  0.00    -0.334 N 
ATOM      5  HN  UNK N   1      31.525  18.308   9.155  1.00  0.00     0.168 HD
HETATM    6  C   UNK N   1      32.648  17.529   7.636  0.00  0.00     0.167 A 
HETATM    7  C   UNK N   1      32.632  16.879   6.406  0.00  0.00     0.119 A 
HETATM    8 Cl   UNK N   1      34.152  16.473   5.612  0.00  0.00    -0.077 Cl
HETATM    9 Cl   UNK N   1      28.638  16.478   5.718  0.00  0.00    -0.079 Cl
ENDROOT
BRANCH   3  10
HETATM   10  C   UNK N   1      29.062  18.084   8.542  0.00  0.00     0.232 C 
HETATM   11 Cl   UNK N   1      29.686  18.843  10.027  0.00  0.00    -0.077 Cl
HETATM   12 Cl   UNK N   1      28.214  19.347   7.608  0.00  0.00    -0.077 Cl
HETATM   13 Cl   UNK N   1      27.773  16.948   9.028  0.00  0.00    -0.077 Cl
ENDBRANCH   3  10
BRANCH   1  14
HETATM   14  O   UNK N   1      31.489  15.854   4.628  0.00  0.00    -0.352 OA
HETATM   15  C   UNK N   1      31.359  16.359   3.358  0.00  0.00     0.210 C 
ENDBRANCH   1  14
BRANCH   6  16
HETATM   16  O   UNK N   1      33.834  17.838   8.214  0.00  0.00    -0.339 OA
HETATM   17  C   UNK N   1      34.406  17.056   9.189  0.00  0.00     0.211 C 
ENDBRANCH   6  16
TORSDOF 3
ENDMDL
MODEL 3
REMARK VINA RESULT:      -4.7     15.745     17.731
REMARK  3 active torsions:
REMARK  status: ('A' for Active; 'I' for Inactive)
REMARK    1  A    between atoms: O_2  and  C_3 
REMARK    2  A    between atoms: C_5  and  C_13 
REMARK    3  A    between atoms: C_8  and  O_11 
ROOT
HETATM    1  C   UNK N   1      26.220  24.884  -5.918  0.00  0.00     0.118 A 
HETATM    2  C   UNK N   1      27.314  24.057  -5.500  0.00  0.00     0.096 A 
HETATM    3  C   UNK N   1      27.999  24.386  -4.285  0.00  0.00     0.090 A 
HETATM    4  N   UNK N   1      27.597  25.489  -3.593  0.00  0.00    -0.334 N 
ATOM      5  HN  UNK N   1      28.109  25.742  -2.748  1.00  0.00     0.168 HD
HETATM    6  C   UNK N   1      26.553  26.270  -3.963  0.00  0.00     0.167 A 
HETATM    7  C   UNK N   1      25.844  25.973  -5.121  0.00  0.00     0.119 A 
HETATM    8 Cl   UNK N   1      24.481  26.986  -5.595  0.00  0.00    -0.077 Cl
HETATM    9 Cl   UNK N   1      27.800  22.672  -6.486  0.00  0.00    -0.079 Cl
ENDROOT
BRANCH   3  10
HETATM   10  C   UNK N   1      29.168  23.612  -3.662  0.00  0.00     0.232 C 
HETATM   11 Cl   UNK N   1      30.520  24.743  -3.405  0.00  0.00    -0.077 Cl
HETATM   12 Cl   UNK N   1      28.655  23.017  -2.058  0.00  0.00    -0.077 Cl
HETATM   13 Cl   UNK N   1      29.830  22.171  -4.482  0.00  0.00    -0.077 Cl
ENDBRANCH   3  10
BRANCH   1  14
HETATM   14  O   UNK N   1      25.501  24.695  -7.062  0.00  0.00    -0.352 OA
HETATM   15  C   UNK N   1      25.851  25.044  -8.344  0.00  0.00     0.210 C 
ENDBRANCH   1  14
BRANCH   6  16
HETATM   16  O   UNK N   1      26.193  27.340  -3.213  0.00  0.00    -0.339 OA
HETATM   17  C   UNK N   1      26.939  28.493  -3.167  0.00  0.00     0.211 C 
ENDBRANCH   6  16
TORSDOF 3
ENDMDL
MODEL 4
REMARK VINA RESULT:      -4.5     14.988     17.854
REMARK  3 active torsions:
REMARK  status: ('A' for Active; 'I' for Inactive)
REMARK    1  A    between atoms: O_2  and  C_3 
REMARK    2  A    between atoms: C_5  and  C_13 
REMARK    3  A    between atoms: C_8  and  O_11 
ROOT
HETATM    1  C   UNK N   1      35.817  13.843  11.545  0.00  0.00     0.118 A 
HETATM    2  C   UNK N   1      35.752  13.582  12.952  0.00  0.00     0.096 A 
HETATM    3  C   UNK N   1      35.064  12.407  13.401  0.00  0.00     0.090 A 
HETATM    4  N   UNK N   1      34.477  11.604  12.469  0.00  0.00    -0.334 N 
ATOM      5  HN  UNK N   1      33.957  10.789  12.795  1.00  0.00     0.168 HD
HETATM    6  C   UNK N   1      34.545  11.826  11.135  0.00  0.00     0.167 A 
HETATM    7  C   UNK N   1      35.225  12.939  10.653  0.00  0.00     0.119 A 
HETATM    8 Cl   UNK N   1      35.319  13.221   8.916  0.00  0.00    -0.077 Cl
HETATM    9 Cl   UNK N   1      36.501  14.705  14.094  0.00  0.00    -0.079 Cl
ENDROOT
BRANCH   3  10
HETATM   10  C   UNK N   1      34.910  11.943  14.856  0.00  0.00     0.232 C 
HETATM   11 Cl   UNK N   1      33.740  10.602  14.899  0.00  0.00    -0.077 Cl
HETATM   12 Cl   UNK N   1      36.483  11.302  15.409  0.00  0.00    -0.077 Cl
HETATM   13 Cl   UNK N   1      34.432  13.106  16.124  0.00  0.00    -0.077 Cl
ENDBRANCH   3  10
BRANCH   1  14
HETATM   14  O   UNK N   1      36.420  14.934  10.988  0.00  0.00    -0.352 OA
HETATM   15  C   UNK N   1      35.910  16.203  10.858  0.00  0.00     0.210 C 
ENDBRANCH   1  14
BRANCH   6  16
HETATM   16  O   UNK N   1      33.957  10.971  10.263  0.00  0.00    -0.339 OA
HETATM   17  C   UNK N   1      33.234   9.878  10.676  0.00  0.00     0.211 C 
ENDBRANCH   6  16
TORSDOF 3
ENDMDL
MODEL 5
REMARK VINA RESULT:      -4.5     15.708     17.855
REMARK  3 active torsions:
REMARK  status: ('A' for Active; 'I' for Inactive)
REMARK    1  A    between atoms: O_2  and  C_3 
REMARK    2  A    between atoms: C_5  and  C_13 
REMARK    3  A    between atoms: C_8  and  O_11 
ROOT
HETATM    1  C   UNK N   1      35.414  12.622  14.756  0.00  0.00     0.118 A 
HETATM    2  C   UNK N   1      35.734  13.615  13.773  0.00  0.00     0.096 A 
HETATM    3  C   UNK N   1      35.315  13.401  12.419  0.00  0.00     0.090 A 
HETATM    4  N   UNK N   1      34.652  12.248  12.120  0.00  0.00    -0.334 N 
ATOM      5  HN  UNK N   1      34.387  12.082  11.149  1.00  0.00     0.168 HD
HETATM    6  C   UNK N   1      34.323  11.310  13.040  0.00  0.00     0.167 A 
HETATM    7  C   UNK N   1      34.687  11.488  14.371  0.00  0.00     0.119 A 
HETATM    8 Cl   UNK N   1      34.251  10.269  15.567  0.00  0.00    -0.077 Cl
HETATM    9 Cl   UNK N   1      36.642  15.058  14.240  0.00  0.00    -0.079 Cl
ENDROOT
BRANCH   3  10
HETATM   10  C   UNK N   1      35.538  14.353  11.236  0.00  0.00     0.232 C 
HETATM   11 Cl   UNK N   1      37.199  14.125  10.635  0.00  0.00    -0.077 Cl
HETATM   12 Cl   UNK N   1      34.422  13.887   9.922  0.00  0.00    -0.077 Cl
HETATM   13 Cl   UNK N   1      35.283  16.109  11.437  0.00  0.00    -0.077 Cl
ENDBRANCH   3  10
BRANCH   1  14
HETATM   14  O   UNK N   1      35.772  12.693  16.071  0.00  0.00    -0.352 OA
HETATM   15  C   UNK N   1      35.124  13.355  17.085  0.00  0.00     0.210 C 
ENDBRANCH   1  14
BRANCH   6  16
HETATM   16  O   UNK N   1      33.641  10.197  12.676  0.00  0.00    -0.339 OA
HETATM   17  C   UNK N   1      33.502   9.813  11.364  0.00  0.00     0.211 C 
ENDBRANCH   6  16
TORSDOF 3
ENDMDL
MODEL 6
REMARK VINA RESULT:      -4.5     14.425     16.002
REMARK  3 active torsions:
REMARK  status: ('A' for Active; 'I' for Inactive)
REMARK    1  A    between atoms: O_2  and  C_3 
REMARK    2  A    between atoms: C_5  and  C_13 
REMARK    3  A    between atoms: C_8  and  O_11 
ROOT
HETATM    1  C   UNK N   1      28.823  18.462   7.083  0.00  0.00     0.118 A 
HETATM    2  C   UNK N   1      29.724  17.532   6.468  0.00  0.00     0.096 A 
HETATM    3  C   UNK N   1      29.753  17.448   5.037  0.00  0.00     0.090 A 
HETATM    4  N   UNK N   1      28.903  18.240   4.324  0.00  0.00    -0.334 N 
ATOM      5  HN  UNK N   1      28.900  18.153   3.308  1.00  0.00     0.168 HD
HETATM    6  C   UNK N   1      28.060  19.138   4.889  0.00  0.00     0.167 A 
HETATM    7  C   UNK N   1      28.017  19.271   6.272  0.00  0.00     0.119 A 
HETATM    8 Cl   UNK N   1      26.926  20.446   7.003  0.00  0.00    -0.077 Cl
HETATM    9 Cl   UNK N   1      30.757  16.508   7.472  0.00  0.00    -0.079 Cl
ENDROOT
BRANCH   3  10
HETATM   10  C   UNK N   1      30.661  16.540   4.197  0.00  0.00     0.232 C 
HETATM   11 Cl   UNK N   1      29.991  16.440   2.550  0.00  0.00    -0.077 Cl
HETATM   12 Cl   UNK N   1      32.268  17.311   4.076  0.00  0.00    -0.077 Cl
HETATM   13 Cl   UNK N   1      31.006  14.872   4.732  0.00  0.00    -0.077 Cl
ENDBRANCH   3  10
BRANCH   1  14
HETATM   14  O   UNK N   1      28.681  18.623   8.430  0.00  0.00    -0.352 OA
HETATM   15  C   UNK N   1      28.069  17.773   9.320  0.00  0.00     0.210 C 
ENDBRANCH   1  14
BRANCH   6  16
HETATM   16  O   UNK N   1      27.258  19.911   4.117  0.00  0.00    -0.339 OA
HETATM   17  C   UNK N   1      26.103  19.434   3.544  0.00  0.00     0.211 C 
ENDBRANCH   6  16
TORSDOF 3
ENDMDL
MODEL 7
REMARK VINA RESULT:      -4.4     16.553     18.549
REMARK  3 active torsions:
REMARK  status: ('A' for Active; 'I' for Inactive)
REMARK    1  A    between atoms: O_2  and  C_3 
REMARK    2  A    between atoms: C_5  and  C_13 
REMARK    3  A    between atoms: C_8  and  O_11 
ROOT
HETATM    1  C   UNK N   1      27.847  23.733  -5.841  0.00  0.00     0.118 A 
HETATM    2  C   UNK N   1      27.582  24.984  -5.195  0.00  0.00     0.096 A 
HETATM    3  C   UNK N   1      26.435  25.740  -5.606  0.00  0.00     0.090 A 
HETATM    4  N   UNK N   1      25.660  25.246  -6.612  0.00  0.00    -0.334 N 
ATOM      5  HN  UNK N   1      24.866  25.804  -6.927  1.00  0.00     0.168 HD
HETATM    6  C   UNK N   1      25.885  24.057  -7.219  0.00  0.00     0.167 A 
HETATM    7  C   UNK N   1      26.971  23.278  -6.836  0.00  0.00     0.119 A 
HETATM    8 Cl   UNK N   1      27.255  21.726  -7.622  0.00  0.00    -0.077 Cl
HETATM    9 Cl   UNK N   1      28.669  25.572  -3.931  0.00  0.00    -0.079 Cl
ENDROOT
BRANCH   3  10
HETATM   10  C   UNK N   1      25.972  27.081  -5.020  0.00  0.00     0.232 C 
HETATM   11 Cl   UNK N   1      27.035  28.366  -5.646  0.00  0.00    -0.077 Cl
HETATM   12 Cl   UNK N   1      24.321  27.412  -5.615  0.00  0.00    -0.077 Cl
HETATM   13 Cl   UNK N   1      25.862  27.298  -3.251  0.00  0.00    -0.077 Cl
ENDBRANCH   3  10
BRANCH   1  14
HETATM   14  O   UNK N   1      28.914  22.929  -5.562  0.00  0.00    -0.352 OA
HETATM   15  C   UNK N   1      30.204  23.055  -6.016  0.00  0.00     0.210 C 
ENDBRANCH   1  14
BRANCH   6  16
HETATM   16  O   UNK N   1      25.058  23.616  -8.199  0.00  0.00    -0.339 OA
HETATM   17  C   UNK N   1      25.124  24.089  -9.488  0.00  0.00     0.211 C 
ENDBRANCH   6  16
TORSDOF 3
ENDMDL
MODEL 8
REMARK VINA RESULT:      -4.4     15.213     16.027
REMARK  3 active torsions:
REMARK  status: ('A' for Active; 'I' for Inactive)
REMARK    1  A    between atoms: O_2  and  C_3 
REMARK    2  A    between atoms: C_5  and  C_13 
REMARK    3  A    between atoms: C_8  and  O_11 
ROOT
HETATM    1  C   UNK N   1      29.490  17.322   6.670  0.00  0.00     0.118 A 
HETATM    2  C   UNK N   1      28.545  18.397   6.607  0.00  0.00     0.096 A 
HETATM    3  C   UNK N   1      28.071  18.820   5.321  0.00  0.00     0.090 A 
HETATM    4  N   UNK N   1      28.562  18.197   4.213  0.00  0.00    -0.334 N 
ATOM      5  HN  UNK N   1      28.250  18.524   3.298  1.00  0.00     0.168 HD
HETATM    6  C   UNK N   1      29.440  17.166   4.256  0.00  0.00     0.167 A 
HETATM    7  C   UNK N   1      29.907  16.707   5.483  0.00  0.00     0.119 A 
HETATM    8 Cl   UNK N   1      31.043  15.360   5.536  0.00  0.00    -0.077 Cl
HETATM    9 Cl   UNK N   1      27.999  19.182   8.093  0.00  0.00    -0.079 Cl
ENDROOT
BRANCH   3  10
HETATM   10  C   UNK N   1      27.044  19.927   5.049  0.00  0.00     0.232 C 
HETATM   11 Cl   UNK N   1      27.075  20.310   3.310  0.00  0.00    -0.077 Cl
HETATM   12 Cl   UNK N   1      25.419  19.291   5.430  0.00  0.00    -0.077 Cl
HETATM   13 Cl   UNK N   1      27.136  21.475   5.935  0.00  0.00    -0.077 Cl
ENDBRANCH   3  10
BRANCH   1  14
HETATM   14  O   UNK N   1      30.036  16.840   7.824  0.00  0.00    -0.352 OA
HETATM   15  C   UNK N   1      31.093  17.356   8.535  0.00  0.00     0.210 C 
ENDBRANCH   1  14
BRANCH   6  16
HETATM   16  O   UNK N   1      29.868  16.578   3.113  0.00  0.00    -0.339 OA
HETATM   17  C   UNK N   1      29.137  15.613   2.462  0.00  0.00     0.211 C 
ENDBRANCH   6  16
TORSDOF 3
ENDMDL
MODEL 9
REMARK VINA RESULT:      -4.4     15.181     17.367
REMARK  3 active torsions:
REMARK  status: ('A' for Active; 'I' for Inactive)
REMARK    1  A    between atoms: O_2  and  C_3 
REMARK    2  A    between atoms: C_5  and  C_13 
REMARK    3  A    between atoms: C_8  and  O_11 
ROOT
HETATM    1  C   UNK N   1      27.405  26.654  -4.620  0.00  0.00     0.118 A 
HETATM    2  C   UNK N   1      28.619  25.989  -4.251  0.00  0.00     0.096 A 
HETATM    3  C   UNK N   1      28.706  24.569  -4.433  0.00  0.00     0.090 A 
HETATM    4  N   UNK N   1      27.619  23.911  -4.924  0.00  0.00    -0.334 N 
ATOM      5  HN  UNK N   1      27.671  22.896  -5.019  1.00  0.00     0.168 HD
HETATM    6  C   UNK N   1      26.471  24.527  -5.296  0.00  0.00     0.167 A 
HETATM    7  C   UNK N   1      26.351  25.906  -5.161  0.00  0.00     0.119 A 
HETATM    8 Cl   UNK N   1      24.860  26.706  -5.654  0.00  0.00    -0.077 Cl
HETATM    9 Cl   UNK N   1      29.964  26.916  -3.575  0.00  0.00    -0.079 Cl
ENDROOT
BRANCH   3  10
HETATM   10  C   UNK N   1      29.923  23.686  -4.126  0.00  0.00     0.232 C 
HETATM   11 Cl   UNK N   1      29.907  23.287  -2.390  0.00  0.00    -0.077 Cl
HETATM   12 Cl   UNK N   1      29.748  22.156  -5.030  0.00  0.00    -0.077 Cl
HETATM   13 Cl   UNK N   1      31.569  24.254  -4.524  0.00  0.00    -0.077 Cl
ENDBRANCH   3  10
BRANCH   1  14
HETATM   14  O   UNK N   1      27.184  27.993  -4.477  0.00  0.00    -0.352 OA
HETATM   15  C   UNK N   1      26.786  28.665  -3.347  0.00  0.00     0.210 C 
ENDBRANCH   1  14
BRANCH   6  16
HETATM   16  O   UNK N   1      25.437  23.811  -5.800  0.00  0.00    -0.339 OA
HETATM   17  C   UNK N   1      25.623  22.715  -6.607  0.00  0.00     0.211 C 
ENDBRANCH   6  16
TORSDOF 3
ENDMDL
