REMARK  7 active torsions:
REMARK  status: ('A' for Active; 'I' for Inactive)
REMARK    1  A    between atoms: C_6  and  C_2 
REMARK    2  A    between atoms: C_7  and  C_3 
REMARK    3  A    between atoms: C_8  and  C_4 
REMARK    4  A    between atoms: N_13  and  C_6 
REMARK    5  A    between atoms: N_14  and  C_7 
REMARK    6  A    between atoms: N_14  and  C_8 
REMARK    7  A    between atoms: P_17  and  N_14 
ROOT
HETATM    1  C   UNK N   1       5.072  -3.662   0.384  0.00  0.00     0.042 C 
HETATM    2  C   UNK N   1       5.901  -2.982  -0.729  0.00  0.00     0.103 C 
HETATM    3  C   UNK N   1       4.498  -2.661   1.389  0.00  0.00     0.180 C 
HETATM    4  N   UNK N   1       5.701  -1.531  -0.881  0.00  0.00    -0.226 NA
HETATM    5  O   UNK N   1       3.166  -1.609  -1.744  0.00  0.00    -0.254 OA
HETATM    6  O   UNK N   1       3.395  -1.974   0.857  0.00  0.00    -0.311 OA
HETATM    7  P   UNK N   1       3.980  -1.092  -0.529  0.00  0.00     0.347 P 
ENDROOT
BRANCH   7   8
HETATM    8  N   UNK N   1       3.687   0.687  -0.429  0.00  0.00    -0.225 NA
BRANCH   8   9
HETATM    9  C   UNK N   1       2.292   0.859  -0.044  0.00  0.00     0.115 C 
BRANCH   9  10
HETATM   10  C   UNK N   1       1.810   2.257  -0.383  0.00  0.00     0.129 C 
HETATM   11 Cl   UNK N   1       1.117   3.007   1.073  0.00  0.00    -0.129 Cl
ENDBRANCH   9  10
ENDBRANCH   8   9
BRANCH   8  12
HETATM   12  C   UNK N   1       4.514   1.249   0.628  0.00  0.00     0.115 C 
BRANCH  12  13
HETATM   13  C   UNK N   1       5.085   2.575   0.160  0.00  0.00     0.129 C 
HETATM   14 Cl   UNK N   1       6.039   3.320   1.461  0.00  0.00    -0.129 Cl
ENDBRANCH  12  13
ENDBRANCH   8  12
ENDBRANCH   7   8
BRANCH   4  15
HETATM   15  C   UNK N   1       6.605  -0.839   0.024  0.00  0.00     0.115 C 
BRANCH  15  16
HETATM   16  C   UNK N   1       7.555   0.021  -0.789  0.00  0.00     0.129 C 
HETATM   17 Cl   UNK N   1       8.611   0.958   0.291  0.00  0.00    -0.129 Cl
ENDBRANCH  15  16
ENDBRANCH   4  15
TORSDOF 7
