MODEL 1
REMARK VINA RESULT:      -6.8      0.000      0.000
REMARK  6 active torsions:
REMARK  status: ('A' for Active; 'I' for Inactive)
REMARK    1  A    between atoms: C_6  and  N_21 
REMARK    2  A    between atoms: C_15  and  O_20 
REMARK    3  A    between atoms: N_21  and  C_22 
REMARK    4  A    between atoms: C_22  and  C_23 
REMARK    5  A    between atoms: C_23  and  C_24 
REMARK    6  A    between atoms: C_24  and  N_25 
ROOT
HETATM    1  C   UNK N   1      26.199  21.741 -10.397  0.00  0.00     0.052 C 
HETATM    2  C   UNK N   1      26.535  22.256  -9.041  0.00  0.00    -0.019 A 
HETATM    3  C   UNK N   1      25.747  23.249  -8.436  0.00  0.00     0.098 A 
HETATM    4  N   UNK N   1      26.052  23.709  -7.183  0.00  0.00    -0.351 N 
ATOM      5  HN  UNK N   1      25.461  24.426  -6.761  1.00  0.00     0.166 HD
HETATM    6  C   UNK N   1      27.128  23.233  -6.482  0.00  0.00     0.114 A 
HETATM    7  C   UNK N   1      27.931  22.247  -7.069  0.00  0.00     0.048 A 
HETATM    8  C   UNK N   1      27.627  21.771  -8.323  0.00  0.00     0.055 A 
HETATM    9  N   UNK N   1      28.494  20.814  -8.717  0.00  0.00    -0.354 N 
HETATM   10  C   UNK N   1      29.363  20.682  -7.691  0.00  0.00     0.044 A 
HETATM   11  C   UNK N   1      29.065  21.547  -6.653  0.00  0.00     0.018 A 
HETATM   12  C   UNK N   1      29.864  21.563  -5.489  0.00  0.00    -0.012 A 
HETATM   13  C   UNK N   1      29.624  22.420  -4.412  0.00  0.00     0.016 A 
HETATM   14  C   UNK N   1      30.441  22.398  -3.282  0.00  0.00     0.037 A 
HETATM   15  C   UNK N   1      31.515  21.511  -3.213  0.00  0.00     0.066 A 
HETATM   16  C   UNK N   1      31.777  20.645  -4.279  0.00  0.00     0.048 A 
HETATM   17  C   UNK N   1      30.964  20.662  -5.418  0.00  0.00    -0.022 A 
HETATM   18  C   UNK N   1      31.237  19.789  -6.488  0.00  0.00     0.014 A 
HETATM   19  C   UNK N   1      30.435  19.797  -7.640  0.00  0.00     0.031 A 
HETATM   20  H   UNK N   1      28.494  20.318  -9.569  0.00  0.00     0.166 HD
ENDROOT
BRANCH   6  21
HETATM   21  N   UNK N   1      27.411  23.703  -5.187  0.00  0.00    -0.376 N 
HETATM   22  H   UNK N   1      28.355  23.717  -4.908  0.00  0.00     0.161 HD
BRANCH  21  23
HETATM   23  C   UNK N   1      26.440  24.164  -4.239  0.00  0.00     0.123 C 
BRANCH  23  24
HETATM   24  C   UNK N   1      27.051  25.380  -3.575  0.00  0.00     0.050 C 
BRANCH  24  25
HETATM   25  C   UNK N   1      26.954  26.619  -4.438  0.00  0.00     0.273 C 
BRANCH  25  26
HETATM   26  N   UNK N   1      25.623  27.195  -4.310  0.00  0.00     0.080 N 
HETATM   27  C   UNK N   1      25.794  28.592  -3.959  0.00  0.00     0.309 C 
HETATM   28  C   UNK N   1      24.965  27.160  -5.607  0.00  0.00     0.309 C 
ENDBRANCH  25  26
ENDBRANCH  24  25
ENDBRANCH  23  24
ENDBRANCH  21  23
ENDBRANCH   6  21
BRANCH  15  29
HETATM   29  O   UNK N   1      32.296  21.490  -2.122  0.00  0.00    -0.361 OA
HETATM   30  H   UNK N   1      33.212  21.672  -2.198  0.00  0.00     0.217 HD
ENDBRANCH  15  29
TORSDOF 6
ENDMDL
MODEL 2
REMARK VINA RESULT:      -6.6      2.078      5.409
REMARK  6 active torsions:
REMARK  status: ('A' for Active; 'I' for Inactive)
REMARK    1  A    between atoms: C_6  and  N_21 
REMARK    2  A    between atoms: C_15  and  O_20 
REMARK    3  A    between atoms: N_21  and  C_22 
REMARK    4  A    between atoms: C_22  and  C_23 
REMARK    5  A    between atoms: C_23  and  C_24 
REMARK    6  A    between atoms: C_24  and  N_25 
ROOT
HETATM    1  C   UNK N   1      24.577  27.054  -5.582  0.00  0.00     0.052 C 
HETATM    2  C   UNK N   1      25.720  26.165  -5.236  0.00  0.00    -0.019 A 
HETATM    3  C   UNK N   1      26.470  26.383  -4.069  0.00  0.00     0.098 A 
HETATM    4  N   UNK N   1      27.512  25.554  -3.748  0.00  0.00    -0.351 N 
ATOM      5  HN  UNK N   1      28.038  25.728  -2.891  1.00  0.00     0.166 HD
HETATM    6  C   UNK N   1      27.865  24.498  -4.545  0.00  0.00     0.114 A 
HETATM    7  C   UNK N   1      27.134  24.265  -5.717  0.00  0.00     0.048 A 
HETATM    8  C   UNK N   1      26.079  25.086  -6.043  0.00  0.00     0.055 A 
HETATM    9  N   UNK N   1      25.482  24.699  -7.190  0.00  0.00    -0.354 N 
HETATM   10  C   UNK N   1      26.172  23.611  -7.597  0.00  0.00     0.044 A 
HETATM   11  C   UNK N   1      27.204  23.305  -6.728  0.00  0.00     0.018 A 
HETATM   12  C   UNK N   1      28.046  22.201  -6.984  0.00  0.00    -0.012 A 
HETATM   13  C   UNK N   1      29.112  21.846  -6.154  0.00  0.00     0.016 A 
HETATM   14  C   UNK N   1      29.916  20.745  -6.449  0.00  0.00     0.037 A 
HETATM   15  C   UNK N   1      29.660  19.977  -7.585  0.00  0.00     0.066 A 
HETATM   16  C   UNK N   1      28.600  20.313  -8.433  0.00  0.00     0.048 A 
HETATM   17  C   UNK N   1      27.790  21.419  -8.146  0.00  0.00    -0.022 A 
HETATM   18  C   UNK N   1      26.728  21.751  -9.007  0.00  0.00     0.014 A 
HETATM   19  C   UNK N   1      25.909  22.859  -8.737  0.00  0.00     0.031 A 
HETATM   20  H   UNK N   1      24.710  25.119  -7.635  0.00  0.00     0.166 HD
ENDROOT
BRANCH   6  21
HETATM   21  N   UNK N   1      28.924  23.644  -4.186  0.00  0.00    -0.376 N 
HETATM   22  H   UNK N   1      29.452  23.249  -4.916  0.00  0.00     0.161 HD
BRANCH  21  23
HETATM   23  C   UNK N   1      29.299  23.304  -2.845  0.00  0.00     0.123 C 
BRANCH  23  24
HETATM   24  C   UNK N   1      30.812  23.245  -2.838  0.00  0.00     0.050 C 
BRANCH  24  25
HETATM   25  C   UNK N   1      31.335  21.833  -2.984  0.00  0.00     0.273 C 
BRANCH  25  26
HETATM   26  N   UNK N   1      32.651  21.865  -3.609  0.00  0.00     0.080 N 
HETATM   27  C   UNK N   1      32.872  20.563  -4.207  0.00  0.00     0.309 C 
HETATM   28  C   UNK N   1      32.636  22.835  -4.693  0.00  0.00     0.309 C 
ENDBRANCH  25  26
ENDBRANCH  24  25
ENDBRANCH  23  24
ENDBRANCH  21  23
ENDBRANCH   6  21
BRANCH  15  29
HETATM   29  O   UNK N   1      30.433  18.916  -7.862  0.00  0.00    -0.361 OA
HETATM   30  H   UNK N   1      30.325  18.119  -7.380  0.00  0.00     0.217 HD
ENDBRANCH  15  29
TORSDOF 6
ENDMDL
MODEL 3
REMARK VINA RESULT:      -6.6     12.682     14.898
REMARK  6 active torsions:
REMARK  status: ('A' for Active; 'I' for Inactive)
REMARK    1  A    between atoms: C_6  and  N_21 
REMARK    2  A    between atoms: C_15  and  O_20 
REMARK    3  A    between atoms: N_21  and  C_22 
REMARK    4  A    between atoms: C_22  and  C_23 
REMARK    5  A    between atoms: C_23  and  C_24 
REMARK    6  A    between atoms: C_24  and  N_25 
ROOT
HETATM    1  C   UNK N   1      28.258  18.472   5.495  0.00  0.00     0.052 C 
HETATM    2  C   UNK N   1      26.920  17.821   5.486  0.00  0.00    -0.019 A 
HETATM    3  C   UNK N   1      26.709  16.604   6.154  0.00  0.00     0.098 A 
HETATM    4  N   UNK N   1      25.472  16.017   6.154  0.00  0.00    -0.351 N 
ATOM      5  HN  UNK N   1      25.341  15.136   6.652  1.00  0.00     0.166 HD
HETATM    6  C   UNK N   1      24.406  16.580   5.503  0.00  0.00     0.114 A 
HETATM    7  C   UNK N   1      24.595  17.790   4.824  0.00  0.00     0.048 A 
HETATM    8  C   UNK N   1      25.832  18.394   4.828  0.00  0.00     0.055 A 
HETATM    9  N   UNK N   1      25.821  19.558   4.144  0.00  0.00    -0.354 N 
HETATM   10  C   UNK N   1      24.552  19.693   3.700  0.00  0.00     0.044 A 
HETATM   11  C   UNK N   1      23.757  18.628   4.087  0.00  0.00     0.018 A 
HETATM   12  C   UNK N   1      22.396  18.585   3.714  0.00  0.00    -0.012 A 
HETATM   13  C   UNK N   1      21.545  17.532   4.061  0.00  0.00     0.016 A 
HETATM   14  C   UNK N   1      20.206  17.535   3.671  0.00  0.00     0.037 A 
HETATM   15  C   UNK N   1      19.697  18.598   2.925  0.00  0.00     0.066 A 
HETATM   16  C   UNK N   1      20.530  19.661   2.563  0.00  0.00     0.048 A 
HETATM   17  C   UNK N   1      21.875  19.665   2.949  0.00  0.00    -0.022 A 
HETATM   18  C   UNK N   1      22.707  20.738   2.577  0.00  0.00     0.014 A 
HETATM   19  C   UNK N   1      24.060  20.757   2.951  0.00  0.00     0.031 A 
HETATM   20  H   UNK N   1      26.575  20.175   3.999  0.00  0.00     0.166 HD
ENDROOT
BRANCH   6  21
HETATM   21  N   UNK N   1      23.138  15.971   5.534  0.00  0.00    -0.376 N 
HETATM   22  H   UNK N   1      22.378  16.498   5.198  0.00  0.00     0.161 HD
BRANCH  21  23
HETATM   23  C   UNK N   1      22.862  14.650   6.013  0.00  0.00     0.123 C 
BRANCH  23  24
HETATM   24  C   UNK N   1      21.748  14.800   7.028  0.00  0.00     0.050 C 
BRANCH  24  25
HETATM   25  C   UNK N   1      21.874  13.818   8.172  0.00  0.00     0.273 C 
BRANCH  25  26
HETATM   26  N   UNK N   1      21.332  14.415   9.385  0.00  0.00     0.080 N 
HETATM   27  C   UNK N   1      20.195  15.224   8.991  0.00  0.00     0.309 C 
HETATM   28  C   UNK N   1      20.826  13.359  10.247  0.00  0.00     0.309 C 
ENDBRANCH  25  26
ENDBRANCH  24  25
ENDBRANCH  23  24
ENDBRANCH  21  23
ENDBRANCH   6  21
BRANCH  15  29
HETATM   29  O   UNK N   1      18.406  18.597   2.556  0.00  0.00    -0.361 OA
HETATM   30  H   UNK N   1      18.118  18.035   1.863  0.00  0.00     0.217 HD
ENDBRANCH  15  29
TORSDOF 6
ENDMDL
MODEL 4
REMARK VINA RESULT:      -6.6      2.478      4.888
REMARK  6 active torsions:
REMARK  status: ('A' for Active; 'I' for Inactive)
REMARK    1  A    between atoms: C_6  and  N_21 
REMARK    2  A    between atoms: C_15  and  O_20 
REMARK    3  A    between atoms: N_21  and  C_22 
REMARK    4  A    between atoms: C_22  and  C_23 
REMARK    5  A    between atoms: C_23  and  C_24 
REMARK    6  A    between atoms: C_24  and  N_25 
ROOT
HETATM    1  C   UNK N   1      32.883  21.088  -2.907  0.00  0.00     0.052 C 
HETATM    2  C   UNK N   1      31.689  21.863  -3.340  0.00  0.00    -0.019 A 
HETATM    3  C   UNK N   1      31.256  22.982  -2.610  0.00  0.00     0.098 A 
HETATM    4  N   UNK N   1      30.164  23.700  -3.020  0.00  0.00    -0.351 N 
ATOM      5  HN  UNK N   1      29.873  24.513  -2.477  1.00  0.00     0.166 HD
HETATM    6  C   UNK N   1      29.454  23.355  -4.139  0.00  0.00     0.114 A 
HETATM    7  C   UNK N   1      29.864  22.239  -4.879  0.00  0.00     0.048 A 
HETATM    8  C   UNK N   1      30.966  21.518  -4.481  0.00  0.00     0.055 A 
HETATM    9  N   UNK N   1      31.223  20.494  -5.323  0.00  0.00    -0.354 N 
HETATM   10  C   UNK N   1      30.265  20.570  -6.273  0.00  0.00     0.044 A 
HETATM   11  C   UNK N   1      29.398  21.624  -6.043  0.00  0.00     0.018 A 
HETATM   12  C   UNK N   1      28.324  21.867  -6.926  0.00  0.00    -0.012 A 
HETATM   13  C   UNK N   1      27.407  22.905  -6.744  0.00  0.00     0.016 A 
HETATM   14  C   UNK N   1      26.362  23.106  -7.645  0.00  0.00     0.037 A 
HETATM   15  C   UNK N   1      26.220  22.266  -8.750  0.00  0.00     0.066 A 
HETATM   16  C   UNK N   1      27.124  21.218  -8.953  0.00  0.00     0.048 A 
HETATM   17  C   UNK N   1      28.174  21.008  -8.051  0.00  0.00    -0.022 A 
HETATM   18  C   UNK N   1      29.076  19.949  -8.262  0.00  0.00     0.014 A 
HETATM   19  C   UNK N   1      30.132  19.720  -7.366  0.00  0.00     0.031 A 
HETATM   20  H   UNK N   1      31.951  19.834  -5.259  0.00  0.00     0.166 HD
ENDROOT
BRANCH   6  21
HETATM   21  N   UNK N   1      28.349  24.119  -4.557  0.00  0.00    -0.376 N 
HETATM   22  H   UNK N   1      27.680  23.672  -5.124  0.00  0.00     0.161 HD
BRANCH  21  23
HETATM   23  C   UNK N   1      28.115  25.493  -4.225  0.00  0.00     0.123 C 
BRANCH  23  24
HETATM   24  C   UNK N   1      26.611  25.657  -4.165  0.00  0.00     0.050 C 
BRANCH  24  25
HETATM   25  C   UNK N   1      26.194  26.879  -3.377  0.00  0.00     0.273 C 
BRANCH  25  26
HETATM   26  N   UNK N   1      25.467  27.793  -4.248  0.00  0.00     0.080 N 
HETATM   27  C   UNK N   1      26.418  28.779  -4.721  0.00  0.00     0.309 C 
HETATM   28  C   UNK N   1      24.995  27.062  -5.413  0.00  0.00     0.309 C 
ENDBRANCH  25  26
ENDBRANCH  24  25
ENDBRANCH  23  24
ENDBRANCH  21  23
ENDBRANCH   6  21
BRANCH  15  29
HETATM   29  O   UNK N   1      25.215  22.466  -9.616  0.00  0.00    -0.361 OA
HETATM   30  H   UNK N   1      24.432  21.954  -9.552  0.00  0.00     0.217 HD
ENDBRANCH  15  29
TORSDOF 6
ENDMDL
MODEL 5
REMARK VINA RESULT:      -6.6     11.873     13.489
REMARK  6 active torsions:
REMARK  status: ('A' for Active; 'I' for Inactive)
REMARK    1  A    between atoms: C_6  and  N_21 
REMARK    2  A    between atoms: C_15  and  O_20 
REMARK    3  A    between atoms: N_21  and  C_22 
REMARK    4  A    between atoms: C_22  and  C_23 
REMARK    5  A    between atoms: C_23  and  C_24 
REMARK    6  A    between atoms: C_24  and  N_25 
ROOT
HETATM    1  C   UNK N   1      20.820  20.970   2.126  0.00  0.00     0.052 C 
HETATM    2  C   UNK N   1      21.357  19.805   2.880  0.00  0.00    -0.019 A 
HETATM    3  C   UNK N   1      20.508  18.766   3.296  0.00  0.00     0.098 A 
HETATM    4  N   UNK N   1      21.009  17.689   3.978  0.00  0.00    -0.351 N 
ATOM      5  HN  UNK N   1      20.373  16.944   4.263  1.00  0.00     0.166 HD
HETATM    6  C   UNK N   1      22.339  17.587   4.286  0.00  0.00     0.114 A 
HETATM    7  C   UNK N   1      23.204  18.614   3.887  0.00  0.00     0.048 A 
HETATM    8  C   UNK N   1      22.712  19.695   3.192  0.00  0.00     0.055 A 
HETATM    9  N   UNK N   1      23.689  20.571   2.874  0.00  0.00    -0.354 N 
HETATM   10  C   UNK N   1      24.821  20.032   3.377  0.00  0.00     0.044 A 
HETATM   11  C   UNK N   1      24.577  18.829   4.016  0.00  0.00     0.018 A 
HETATM   12  C   UNK N   1      25.637  18.113   4.613  0.00  0.00    -0.012 A 
HETATM   13  C   UNK N   1      25.455  16.901   5.284  0.00  0.00     0.016 A 
HETATM   14  C   UNK N   1      26.535  16.229   5.857  0.00  0.00     0.037 A 
HETATM   15  C   UNK N   1      27.820  16.763   5.763  0.00  0.00     0.066 A 
HETATM   16  C   UNK N   1      28.027  17.976   5.099  0.00  0.00     0.048 A 
HETATM   17  C   UNK N   1      26.949  18.658   4.524  0.00  0.00    -0.022 A 
HETATM   18  C   UNK N   1      27.167  19.880   3.861  0.00  0.00     0.014 A 
HETATM   19  C   UNK N   1      26.096  20.580   3.282  0.00  0.00     0.031 A 
HETATM   20  H   UNK N   1      23.596  21.419   2.382  0.00  0.00     0.166 HD
ENDROOT
BRANCH   6  21
HETATM   21  N   UNK N   1      22.837  16.462   4.968  0.00  0.00    -0.376 N 
HETATM   22  H   UNK N   1      23.811  16.319   4.950  0.00  0.00     0.161 HD
BRANCH  21  23
HETATM   23  C   UNK N   1      22.046  15.507   5.686  0.00  0.00     0.123 C 
BRANCH  23  24
HETATM   24  C   UNK N   1      21.893  16.063   7.086  0.00  0.00     0.050 C 
BRANCH  24  25
HETATM   25  C   UNK N   1      20.494  16.572   7.355  0.00  0.00     0.273 C 
BRANCH  25  26
HETATM   26  N   UNK N   1      20.169  16.377   8.762  0.00  0.00     0.080 N 
HETATM   27  C   UNK N   1      18.774  16.731   8.931  0.00  0.00     0.309 C 
HETATM   28  C   UNK N   1      20.293  14.964   9.085  0.00  0.00     0.309 C 
ENDBRANCH  25  26
ENDBRANCH  24  25
ENDBRANCH  23  24
ENDBRANCH  21  23
ENDBRANCH   6  21
BRANCH  15  29
HETATM   29  O   UNK N   1      28.856  16.110   6.313  0.00  0.00    -0.361 OA
HETATM   30  H   UNK N   1      28.788  15.773   7.185  0.00  0.00     0.217 HD
ENDBRANCH  15  29
TORSDOF 6
ENDMDL
MODEL 6
REMARK VINA RESULT:      -6.5     12.292     14.832
REMARK  6 active torsions:
REMARK  status: ('A' for Active; 'I' for Inactive)
REMARK    1  A    between atoms: C_6  and  N_21 
REMARK    2  A    between atoms: C_15  and  O_20 
REMARK    3  A    between atoms: N_21  and  C_22 
REMARK    4  A    between atoms: C_22  and  C_23 
REMARK    5  A    between atoms: C_23  and  C_24 
REMARK    6  A    between atoms: C_24  and  N_25 
ROOT
HETATM    1  C   UNK N   1      25.157  15.627   6.064  0.00  0.00     0.052 C 
HETATM    2  C   UNK N   1      26.577  15.681   5.622  0.00  0.00    -0.019 A 
HETATM    3  C   UNK N   1      26.967  15.132   4.389  0.00  0.00     0.098 A 
HETATM    4  N   UNK N   1      28.272  15.197   3.981  0.00  0.00    -0.351 N 
ATOM      5  HN  UNK N   1      28.530  14.798   3.078  1.00  0.00     0.166 HD
HETATM    6  C   UNK N   1      29.241  15.782   4.753  0.00  0.00     0.114 A 
HETATM    7  C   UNK N   1      28.876  16.330   5.989  0.00  0.00     0.048 A 
HETATM    8  C   UNK N   1      27.565  16.280   6.403  0.00  0.00     0.055 A 
HETATM    9  N   UNK N   1      27.398  16.873   7.604  0.00  0.00    -0.354 N 
HETATM   10  C   UNK N   1      28.628  17.308   7.956  0.00  0.00     0.044 A 
HETATM   11  C   UNK N   1      29.576  16.994   6.998  0.00  0.00     0.018 A 
HETATM   12  C   UNK N   1      30.926  17.362   7.187  0.00  0.00    -0.012 A 
HETATM   13  C   UNK N   1      31.933  17.063   6.265  0.00  0.00     0.016 A 
HETATM   14  C   UNK N   1      33.253  17.449   6.495  0.00  0.00     0.037 A 
HETATM   15  C   UNK N   1      33.586  18.145   7.657  0.00  0.00     0.066 A 
HETATM   16  C   UNK N   1      32.596  18.453   8.596  0.00  0.00     0.048 A 
HETATM   17  C   UNK N   1      31.269  18.067   8.374  0.00  0.00    -0.022 A 
HETATM   18  C   UNK N   1      30.281  18.379   9.326  0.00  0.00     0.014 A 
HETATM   19  C   UNK N   1      28.946  17.996   9.123  0.00  0.00     0.031 A 
HETATM   20  H   UNK N   1      26.560  16.969   8.114  0.00  0.00     0.166 HD
ENDROOT
BRANCH   6  21
HETATM   21  N   UNK N   1      30.572  15.858   4.305  0.00  0.00    -0.376 N 
HETATM   22  H   UNK N   1      31.281  15.731   4.976  0.00  0.00     0.161 HD
BRANCH  21  23
HETATM   23  C   UNK N   1      30.982  16.105   2.955  0.00  0.00     0.123 C 
BRANCH  23  24
HETATM   24  C   UNK N   1      32.497  16.077   2.968  0.00  0.00     0.050 C 
BRANCH  24  25
HETATM   25  C   UNK N   1      33.048  14.669   2.949  0.00  0.00     0.273 C 
BRANCH  25  26
HETATM   26  N   UNK N   1      34.068  14.534   3.981  0.00  0.00     0.080 N 
HETATM   27  C   UNK N   1      33.447  13.874   5.112  0.00  0.00     0.309 C 
HETATM   28  C   UNK N   1      35.118  13.653   3.496  0.00  0.00     0.309 C 
ENDBRANCH  25  26
ENDBRANCH  24  25
ENDBRANCH  23  24
ENDBRANCH  21  23
ENDBRANCH   6  21
BRANCH  15  29
HETATM   29  O   UNK N   1      34.857  18.517   7.872  0.00  0.00    -0.361 OA
HETATM   30  H   UNK N   1      35.466  18.535   7.160  0.00  0.00     0.217 HD
ENDBRANCH  15  29
TORSDOF 6
ENDMDL
MODEL 7
REMARK VINA RESULT:      -6.4     20.995     24.238
REMARK  6 active torsions:
REMARK  status: ('A' for Active; 'I' for Inactive)
REMARK    1  A    between atoms: C_6  and  N_21 
REMARK    2  A    between atoms: C_15  and  O_20 
REMARK    3  A    between atoms: N_21  and  C_22 
REMARK    4  A    between atoms: C_22  and  C_23 
REMARK    5  A    between atoms: C_23  and  C_24 
REMARK    6  A    between atoms: C_24  and  N_25 
ROOT
HETATM    1  C   UNK N   1      37.842   8.701  11.029  0.00  0.00     0.052 C 
HETATM    2  C   UNK N   1      37.604  10.009  11.697  0.00  0.00    -0.019 A 
HETATM    3  C   UNK N   1      37.834  11.215  11.015  0.00  0.00     0.098 A 
HETATM    4  N   UNK N   1      37.600  12.416  11.630  0.00  0.00    -0.351 N 
ATOM      5  HN  UNK N   1      37.768  13.279  11.112  1.00  0.00     0.166 HD
HETATM    6  C   UNK N   1      37.147  12.490  12.921  0.00  0.00     0.114 A 
HETATM    7  C   UNK N   1      36.917  11.299  13.622  0.00  0.00     0.048 A 
HETATM    8  C   UNK N   1      37.139  10.087  13.009  0.00  0.00     0.055 A 
HETATM    9  N   UNK N   1      36.844   9.054  13.827  0.00  0.00    -0.354 N 
HETATM   10  C   UNK N   1      36.427   9.624  14.979  0.00  0.00     0.044 A 
HETATM   11  C   UNK N   1      36.458  11.006  14.907  0.00  0.00     0.018 A 
HETATM   12  C   UNK N   1      36.062  11.784  16.017  0.00  0.00    -0.012 A 
HETATM   13  C   UNK N   1      36.083  13.181  16.014  0.00  0.00     0.016 A 
HETATM   14  C   UNK N   1      35.681  13.907  17.134  0.00  0.00     0.037 A 
HETATM   15  C   UNK N   1      35.247  13.240  18.281  0.00  0.00     0.066 A 
HETATM   16  C   UNK N   1      35.220  11.842  18.309  0.00  0.00     0.048 A 
HETATM   17  C   UNK N   1      35.625  11.106  17.189  0.00  0.00    -0.022 A 
HETATM   18  C   UNK N   1      35.597   9.700  17.229  0.00  0.00     0.014 A 
HETATM   19  C   UNK N   1      36.003   8.945  16.117  0.00  0.00     0.031 A 
HETATM   20  H   UNK N   1      36.917   8.092  13.627  0.00  0.00     0.166 HD
ENDROOT
BRANCH   6  21
HETATM   21  N   UNK N   1      36.892  13.733  13.527  0.00  0.00    -0.376 N 
HETATM   22  H   UNK N   1      37.291  13.894  14.412  0.00  0.00     0.161 HD
BRANCH  21  23
HETATM   23  C   UNK N   1      36.099  14.785  12.963  0.00  0.00     0.123 C 
BRANCH  23  24
HETATM   24  C   UNK N   1      34.997  14.103  12.180  0.00  0.00     0.050 C 
BRANCH  24  25
HETATM   25  C   UNK N   1      34.389  15.008  11.131  0.00  0.00     0.273 C 
BRANCH  25  26
HETATM   26  N   UNK N   1      35.448  15.583  10.314  0.00  0.00     0.080 N 
HETATM   27  C   UNK N   1      35.717  14.645   9.241  0.00  0.00     0.309 C 
HETATM   28  C   UNK N   1      34.960  16.806   9.698  0.00  0.00     0.309 C 
ENDBRANCH  25  26
ENDBRANCH  24  25
ENDBRANCH  23  24
ENDBRANCH  21  23
ENDBRANCH   6  21
BRANCH  15  29
HETATM   29  O   UNK N   1      34.857  13.943  19.355  0.00  0.00    -0.361 OA
HETATM   30  H   UNK N   1      34.696  14.863  19.279  0.00  0.00     0.217 HD
ENDBRANCH  15  29
TORSDOF 6
ENDMDL
MODEL 8
REMARK VINA RESULT:      -6.4      3.368      6.285
REMARK  6 active torsions:
REMARK  status: ('A' for Active; 'I' for Inactive)
REMARK    1  A    between atoms: C_6  and  N_21 
REMARK    2  A    between atoms: C_15  and  O_20 
REMARK    3  A    between atoms: N_21  and  C_22 
REMARK    4  A    between atoms: C_22  and  C_23 
REMARK    5  A    between atoms: C_23  and  C_24 
REMARK    6  A    between atoms: C_24  and  N_25 
ROOT
HETATM    1  C   UNK N   1      28.042  24.135 -10.875  0.00  0.00     0.052 C 
HETATM    2  C   UNK N   1      27.314  24.434  -9.612  0.00  0.00    -0.019 A 
HETATM    3  C   UNK N   1      26.389  23.519  -9.083  0.00  0.00     0.098 A 
HETATM    4  N   UNK N   1      25.732  23.793  -7.913  0.00  0.00    -0.351 N 
ATOM      5  HN  UNK N   1      25.070  23.110  -7.544  1.00  0.00     0.166 HD
HETATM    6  C   UNK N   1      25.940  24.959  -7.225  0.00  0.00     0.114 A 
HETATM    7  C   UNK N   1      26.853  25.889  -7.737  0.00  0.00     0.048 A 
HETATM    8  C   UNK N   1      27.526  25.618  -8.907  0.00  0.00     0.055 A 
HETATM    9  N   UNK N   1      28.377  26.614  -9.235  0.00  0.00    -0.354 N 
HETATM   10  C   UNK N   1      28.239  27.532  -8.253  0.00  0.00     0.044 A 
HETATM   11  C   UNK N   1      27.309  27.137  -7.308  0.00  0.00     0.018 A 
HETATM   12  C   UNK N   1      27.020  27.967  -6.204  0.00  0.00    -0.012 A 
HETATM   13  C   UNK N   1      26.083  27.632  -5.223  0.00  0.00     0.016 A 
HETATM   14  C   UNK N   1      25.833  28.485  -4.148  0.00  0.00     0.037 A 
HETATM   15  C   UNK N   1      26.525  29.692  -4.038  0.00  0.00     0.066 A 
HETATM   16  C   UNK N   1      27.466  30.050  -5.009  0.00  0.00     0.048 A 
HETATM   17  C   UNK N   1      27.720  29.201  -6.092  0.00  0.00    -0.022 A 
HETATM   18  C   UNK N   1      28.667  29.572  -7.065  0.00  0.00     0.014 A 
HETATM   19  C   UNK N   1      28.932  28.735  -8.161  0.00  0.00     0.031 A 
HETATM   20  H   UNK N   1      28.969  26.661 -10.021  0.00  0.00     0.166 HD
ENDROOT
BRANCH   6  21
HETATM   21  N   UNK N   1      25.272  25.211  -6.013  0.00  0.00    -0.376 N 
HETATM   22  H   UNK N   1      24.628  25.956  -6.000  0.00  0.00     0.161 HD
BRANCH  21  23
HETATM   23  C   UNK N   1      25.449  24.475  -4.797  0.00  0.00     0.123 C 
BRANCH  23  24
HETATM   24  C   UNK N   1      26.943  24.277  -4.645  0.00  0.00     0.050 C 
BRANCH  24  25
HETATM   25  C   UNK N   1      27.360  24.128  -3.198  0.00  0.00     0.273 C 
BRANCH  25  26
HETATM   26  N   UNK N   1      28.800  23.920  -3.128  0.00  0.00     0.080 N 
HETATM   27  C   UNK N   1      29.044  22.977  -2.054  0.00  0.00     0.309 C 
HETATM   28  C   UNK N   1      29.248  23.289  -4.360  0.00  0.00     0.309 C 
ENDBRANCH  25  26
ENDBRANCH  24  25
ENDBRANCH  23  24
ENDBRANCH  21  23
ENDBRANCH   6  21
BRANCH  15  29
HETATM   29  O   UNK N   1      26.284  30.507  -3.000  0.00  0.00    -0.361 OA
HETATM   30  H   UNK N   1      26.905  31.172  -2.772  0.00  0.00     0.217 HD
ENDBRANCH  15  29
TORSDOF 6
ENDMDL
MODEL 9
REMARK VINA RESULT:      -6.4     22.288     25.506
REMARK  6 active torsions:
REMARK  status: ('A' for Active; 'I' for Inactive)
REMARK    1  A    between atoms: C_6  and  N_21 
REMARK    2  A    between atoms: C_15  and  O_20 
REMARK    3  A    between atoms: N_21  and  C_22 
REMARK    4  A    between atoms: C_22  and  C_23 
REMARK    5  A    between atoms: C_23  and  C_24 
REMARK    6  A    between atoms: C_24  and  N_25 
ROOT
HETATM    1  C   UNK N   1      35.859   5.930  14.126  0.00  0.00     0.052 C 
HETATM    2  C   UNK N   1      35.759   7.413  14.044  0.00  0.00    -0.019 A 
HETATM    3  C   UNK N   1      35.730   8.062  12.799  0.00  0.00     0.098 A 
HETATM    4  N   UNK N   1      35.624   9.426  12.728  0.00  0.00    -0.351 N 
ATOM      5  HN  UNK N   1      35.597   9.874  11.812  1.00  0.00     0.166 HD
HETATM    6  C   UNK N   1      35.553  10.202  13.854  0.00  0.00     0.114 A 
HETATM    7  C   UNK N   1      35.587   9.577  15.107  0.00  0.00     0.048 A 
HETATM    8  C   UNK N   1      35.682   8.207  15.188  0.00  0.00     0.055 A 
HETATM    9  N   UNK N   1      35.680   7.781  16.469  0.00  0.00    -0.354 N 
HETATM   10  C   UNK N   1      35.580   8.905  17.213  0.00  0.00     0.044 A 
HETATM   11  C   UNK N   1      35.525  10.040  16.422  0.00  0.00     0.018 A 
HETATM   12  C   UNK N   1      35.425  11.316  17.017  0.00  0.00    -0.012 A 
HETATM   13  C   UNK N   1      35.379  12.500  16.276  0.00  0.00     0.016 A 
HETATM   14  C   UNK N   1      35.277  13.739  16.908  0.00  0.00     0.037 A 
HETATM   15  C   UNK N   1      35.218  13.810  18.300  0.00  0.00     0.066 A 
HETATM   16  C   UNK N   1      35.266  12.639  19.064  0.00  0.00     0.048 A 
HETATM   17  C   UNK N   1      35.370  11.392  18.437  0.00  0.00    -0.022 A 
HETATM   18  C   UNK N   1      35.420  10.220  19.214  0.00  0.00     0.014 A 
HETATM   19  C   UNK N   1      35.530   8.961  18.602  0.00  0.00     0.031 A 
HETATM   20  H   UNK N   1      35.739   6.853  16.793  0.00  0.00     0.166 HD
ENDROOT
BRANCH   6  21
HETATM   21  N   UNK N   1      35.422  11.600  13.759  0.00  0.00    -0.376 N 
HETATM   22  H   UNK N   1      35.550  12.121  14.585  0.00  0.00     0.161 HD
BRANCH  21  23
HETATM   23  C   UNK N   1      35.118  12.327  12.563  0.00  0.00     0.123 C 
BRANCH  23  24
HETATM   24  C   UNK N   1      35.729  13.701  12.745  0.00  0.00     0.050 C 
BRANCH  24  25
HETATM   25  C   UNK N   1      35.062  14.748  11.879  0.00  0.00     0.273 C 
BRANCH  25  26
HETATM   26  N   UNK N   1      36.080  15.595  11.273  0.00  0.00     0.080 N 
HETATM   27  C   UNK N   1      36.746  14.802  10.257  0.00  0.00     0.309 C 
HETATM   28  C   UNK N   1      35.430  16.702  10.591  0.00  0.00     0.309 C 
ENDBRANCH  25  26
ENDBRANCH  24  25
ENDBRANCH  23  24
ENDBRANCH  21  23
ENDBRANCH   6  21
BRANCH  15  29
HETATM   29  O   UNK N   1      35.117  15.004  18.904  0.00  0.00    -0.361 OA
HETATM   30  H   UNK N   1      34.272  15.359  19.101  0.00  0.00     0.217 HD
ENDBRANCH  15  29
TORSDOF 6
ENDMDL
