MODEL 1
REMARK VINA RESULT:      -6.5      0.000      0.000
REMARK  3 active torsions:
REMARK  status: ('A' for Active; 'I' for Inactive)
REMARK    1  A    between atoms: N_20  and  C_12 
REMARK    2  A    between atoms: C_16  and  C_14 
REMARK    3  A    between atoms: N_20  and  C_14 
ROOT
HETATM    1  C   UNK N   1      24.662  21.358  -7.266  0.00  0.00     0.013 C 
HETATM    2  C   UNK N   1      25.650  21.339  -7.954  0.00  0.00    -0.087 C 
HETATM    3  C   UNK N   1      26.899  21.309  -8.712  0.00  0.00     0.364 C 
ENDROOT
BRANCH   3   4
HETATM    4  N   UNK N   1      27.985  21.153  -7.764  0.00  0.00     0.099 N 
HETATM    5  C   UNK N   1      28.878  20.110  -8.255  0.00  0.00     0.311 C 
BRANCH   4   6
HETATM    6  C   UNK N   1      28.717  22.407  -7.677  0.00  0.00     0.312 C 
BRANCH   6   7
HETATM    7  C   UNK N   1      28.404  23.251  -6.451  0.00  0.00    -0.016 C 
HETATM    8  C   UNK N   1      27.501  24.187  -6.716  0.00  0.00     0.024 C 
HETATM    9  C   UNK N   1      26.863  25.219  -5.921  0.00  0.00    -0.002 A 
HETATM   10  C   UNK N   1      25.847  25.924  -6.579  0.00  0.00     0.014 A 
HETATM   11  C   UNK N   1      27.177  25.543  -4.589  0.00  0.00     0.086 A 
HETATM   12  C   UNK N   1      25.129  26.926  -5.931  0.00  0.00     0.001 A 
HETATM   13  C   UNK N   1      25.426  27.238  -4.610  0.00  0.00     0.003 A 
HETATM   14  C   UNK N   1      26.447  26.556  -3.952  0.00  0.00     0.038 A 
HETATM   15  O   UNK N   1      28.132  24.947  -3.849  0.00  0.00    -0.309 OA
HETATM   16  C   UNK N   1      28.928  23.862  -3.961  0.00  0.00     0.086 A 
HETATM   17  C   UNK N   1      29.666  23.559  -2.805  0.00  0.00     0.038 A 
HETATM   18  C   UNK N   1      29.061  23.024  -5.109  0.00  0.00     0.006 A 
HETATM   19  C   UNK N   1      30.503  22.453  -2.734  0.00  0.00     0.003 A 
HETATM   20  C   UNK N   1      30.604  21.605  -3.821  0.00  0.00     0.001 A 
HETATM   21  C   UNK N   1      29.896  21.893  -4.982  0.00  0.00     0.015 A 
ENDBRANCH   6   7
ENDBRANCH   4   6
ENDBRANCH   3   4
TORSDOF 3
ENDMDL
MODEL 2
REMARK VINA RESULT:      -6.4      1.758      5.440
REMARK  3 active torsions:
REMARK  status: ('A' for Active; 'I' for Inactive)
REMARK    1  A    between atoms: N_20  and  C_12 
REMARK    2  A    between atoms: C_16  and  C_14 
REMARK    3  A    between atoms: N_20  and  C_14 
ROOT
HETATM    1  C   UNK N   1      31.222  21.119  -5.592  0.00  0.00     0.013 C 
HETATM    2  C   UNK N   1      31.148  21.946  -4.721  0.00  0.00    -0.087 C 
HETATM    3  C   UNK N   1      30.967  22.945  -3.668  0.00  0.00     0.364 C 
ENDROOT
BRANCH   3   4
HETATM    4  N   UNK N   1      29.542  23.102  -3.451  0.00  0.00     0.099 N 
HETATM    5  C   UNK N   1      29.282  23.001  -2.020  0.00  0.00     0.311 C 
BRANCH   4   6
HETATM    6  C   UNK N   1      29.137  24.418  -3.919  0.00  0.00     0.312 C 
BRANCH   6   7
HETATM    7  C   UNK N   1      27.967  24.422  -4.892  0.00  0.00    -0.016 C 
HETATM    8  C   UNK N   1      28.022  23.395  -5.731  0.00  0.00     0.024 C 
HETATM    9  C   UNK N   1      27.174  22.940  -6.817  0.00  0.00    -0.002 A 
HETATM   10  C   UNK N   1      27.540  21.706  -7.371  0.00  0.00     0.014 A 
HETATM   11  C   UNK N   1      26.053  23.620  -7.325  0.00  0.00     0.086 A 
HETATM   12  C   UNK N   1      26.801  21.133  -8.402  0.00  0.00     0.001 A 
HETATM   13  C   UNK N   1      25.684  21.795  -8.897  0.00  0.00     0.003 A 
HETATM   14  C   UNK N   1      25.322  23.031  -8.367  0.00  0.00     0.038 A 
HETATM   15  O   UNK N   1      25.602  24.811  -6.886  0.00  0.00    -0.309 OA
HETATM   16  C   UNK N   1      25.852  25.633  -5.844  0.00  0.00     0.086 A 
HETATM   17  C   UNK N   1      24.970  26.721  -5.735  0.00  0.00     0.038 A 
HETATM   18  C   UNK N   1      26.891  25.483  -4.877  0.00  0.00     0.006 A 
HETATM   19  C   UNK N   1      25.059  27.641  -4.699  0.00  0.00     0.003 A 
HETATM   20  C   UNK N   1      26.029  27.480  -3.727  0.00  0.00     0.001 A 
HETATM   21  C   UNK N   1      26.924  26.422  -3.823  0.00  0.00     0.015 A 
ENDBRANCH   6   7
ENDBRANCH   4   6
ENDBRANCH   3   4
TORSDOF 3
ENDMDL
MODEL 3
REMARK VINA RESULT:      -6.3      1.917      5.685
REMARK  3 active torsions:
REMARK  status: ('A' for Active; 'I' for Inactive)
REMARK    1  A    between atoms: N_20  and  C_12 
REMARK    2  A    between atoms: C_16  and  C_14 
REMARK    3  A    between atoms: N_20  and  C_14 
ROOT
HETATM    1  C   UNK N   1      26.658  26.482  -8.305  0.00  0.00     0.013 C 
HETATM    2  C   UNK N   1      26.013  26.657  -7.303  0.00  0.00    -0.087 C 
HETATM    3  C   UNK N   1      25.300  26.834  -6.039  0.00  0.00     0.364 C 
ENDROOT
BRANCH   3   4
HETATM    4  N   UNK N   1      26.164  26.357  -4.977  0.00  0.00     0.099 N 
HETATM    5  C   UNK N   1      25.900  27.149  -3.781  0.00  0.00     0.311 C 
BRANCH   4   6
HETATM    6  C   UNK N   1      25.851  24.963  -4.706  0.00  0.00     0.312 C 
BRANCH   6   7
HETATM    7  C   UNK N   1      26.955  23.976  -5.058  0.00  0.00    -0.016 C 
HETATM    8  C   UNK N   1      27.925  23.982  -4.152  0.00  0.00     0.024 C 
HETATM    9  C   UNK N   1      29.168  23.246  -4.009  0.00  0.00    -0.002 A 
HETATM   10  C   UNK N   1      29.850  23.472  -2.806  0.00  0.00     0.014 A 
HETATM   11  C   UNK N   1      29.708  22.352  -4.952  0.00  0.00     0.086 A 
HETATM   12  C   UNK N   1      31.042  22.813  -2.520  0.00  0.00     0.001 A 
HETATM   13  C   UNK N   1      31.572  21.919  -3.443  0.00  0.00     0.003 A 
HETATM   14  C   UNK N   1      30.911  21.701  -4.650  0.00  0.00     0.038 A 
HETATM   15  O   UNK N   1      29.155  22.053  -6.144  0.00  0.00    -0.309 OA
HETATM   16  C   UNK N   1      27.978  22.279  -6.766  0.00  0.00     0.086 A 
HETATM   17  C   UNK N   1      27.821  21.593  -7.982  0.00  0.00     0.038 A 
HETATM   18  C   UNK N   1      26.918  23.113  -6.298  0.00  0.00     0.006 A 
HETATM   19  C   UNK N   1      26.655  21.679  -8.731  0.00  0.00     0.003 A 
HETATM   20  C   UNK N   1      25.602  22.444  -8.265  0.00  0.00     0.001 A 
HETATM   21  C   UNK N   1      25.740  23.145  -7.073  0.00  0.00     0.015 A 
ENDBRANCH   6   7
ENDBRANCH   4   6
ENDBRANCH   3   4
TORSDOF 3
ENDMDL
MODEL 4
REMARK VINA RESULT:      -6.1      1.736      4.440
REMARK  3 active torsions:
REMARK  status: ('A' for Active; 'I' for Inactive)
REMARK    1  A    between atoms: N_20  and  C_12 
REMARK    2  A    between atoms: C_16  and  C_14 
REMARK    3  A    between atoms: N_20  and  C_14 
ROOT
HETATM    1  C   UNK N   1      32.508  21.183  -5.253  0.00  0.00     0.013 C 
HETATM    2  C   UNK N   1      32.113  21.618  -4.202  0.00  0.00    -0.087 C 
HETATM    3  C   UNK N   1      31.554  22.166  -2.968  0.00  0.00     0.364 C 
ENDROOT
BRANCH   3   4
HETATM    4  N   UNK N   1      30.193  22.584  -3.249  0.00  0.00     0.099 N 
HETATM    5  C   UNK N   1      29.550  22.930  -1.987  0.00  0.00     0.311 C 
BRANCH   4   6
HETATM    6  C   UNK N   1      30.230  23.759  -4.105  0.00  0.00     0.312 C 
BRANCH   6   7
HETATM    7  C   UNK N   1      28.920  24.083  -4.808  0.00  0.00    -0.016 C 
HETATM    8  C   UNK N   1      28.363  25.186  -4.324  0.00  0.00     0.024 C 
HETATM    9  C   UNK N   1      27.150  25.918  -4.638  0.00  0.00    -0.002 A 
HETATM   10  C   UNK N   1      27.003  27.133  -3.955  0.00  0.00     0.014 A 
HETATM   11  C   UNK N   1      26.157  25.513  -5.547  0.00  0.00     0.086 A 
HETATM   12  C   UNK N   1      25.901  27.955  -4.177  0.00  0.00     0.001 A 
HETATM   13  C   UNK N   1      24.925  27.564  -5.085  0.00  0.00     0.003 A 
HETATM   14  C   UNK N   1      25.052  26.349  -5.756  0.00  0.00     0.038 A 
HETATM   15  O   UNK N   1      26.176  24.369  -6.260  0.00  0.00    -0.309 OA
HETATM   16  C   UNK N   1      27.066  23.387  -6.518  0.00  0.00     0.086 A 
HETATM   17  C   UNK N   1      26.648  22.462  -7.489  0.00  0.00     0.038 A 
HETATM   18  C   UNK N   1      28.351  23.229  -5.917  0.00  0.00     0.006 A 
HETATM   19  C   UNK N   1      27.457  21.412  -7.904  0.00  0.00     0.003 A 
HETATM   20  C   UNK N   1      28.723  21.276  -7.366  0.00  0.00     0.001 A 
HETATM   21  C   UNK N   1      29.153  22.169  -6.392  0.00  0.00     0.015 A 
ENDBRANCH   6   7
ENDBRANCH   4   6
ENDBRANCH   3   4
TORSDOF 3
ENDMDL
MODEL 5
REMARK VINA RESULT:      -6.0      2.045      4.836
REMARK  3 active torsions:
REMARK  status: ('A' for Active; 'I' for Inactive)
REMARK    1  A    between atoms: N_20  and  C_12 
REMARK    2  A    between atoms: C_16  and  C_14 
REMARK    3  A    between atoms: N_20  and  C_14 
ROOT
HETATM    1  C   UNK N   1      24.591  27.160  -5.709  0.00  0.00     0.013 C 
HETATM    2  C   UNK N   1      25.463  27.405  -4.916  0.00  0.00    -0.087 C 
HETATM    3  C   UNK N   1      26.574  27.640  -3.996  0.00  0.00     0.364 C 
ENDROOT
BRANCH   3   4
HETATM    4  N   UNK N   1      27.671  26.782  -4.403  0.00  0.00     0.099 N 
HETATM    5  C   UNK N   1      28.907  27.326  -3.855  0.00  0.00     0.311 C 
BRANCH   4   6
HETATM    6  C   UNK N   1      27.452  25.450  -3.860  0.00  0.00     0.312 C 
BRANCH   6   7
HETATM    7  C   UNK N   1      27.894  24.308  -4.763  0.00  0.00    -0.016 C 
HETATM    8  C   UNK N   1      27.091  24.171  -5.811  0.00  0.00     0.024 C 
HETATM    9  C   UNK N   1      27.070  23.269  -6.948  0.00  0.00    -0.002 A 
HETATM   10  C   UNK N   1      26.097  23.562  -7.912  0.00  0.00     0.014 A 
HETATM   11  C   UNK N   1      27.928  22.172  -7.143  0.00  0.00     0.086 A 
HETATM   12  C   UNK N   1      25.978  22.797  -9.070  0.00  0.00     0.001 A 
HETATM   13  C   UNK N   1      26.833  21.721  -9.273  0.00  0.00     0.003 A 
HETATM   14  C   UNK N   1      27.792  21.410  -8.312  0.00  0.00     0.038 A 
HETATM   15  O   UNK N   1      28.898  21.783  -6.292  0.00  0.00    -0.309 OA
HETATM   16  C   UNK N   1      29.493  22.280  -5.187  0.00  0.00     0.086 A 
HETATM   17  C   UNK N   1      30.605  21.546  -4.744  0.00  0.00     0.038 A 
HETATM   18  C   UNK N   1      29.105  23.453  -4.470  0.00  0.00     0.006 A 
HETATM   19  C   UNK N   1      31.359  21.940  -3.646  0.00  0.00     0.003 A 
HETATM   20  C   UNK N   1      31.024  23.100  -2.972  0.00  0.00     0.001 A 
HETATM   21  C   UNK N   1      29.918  23.834  -3.381  0.00  0.00     0.015 A 
ENDBRANCH   6   7
ENDBRANCH   4   6
ENDBRANCH   3   4
TORSDOF 3
ENDMDL
MODEL 6
REMARK VINA RESULT:      -5.9      1.627      4.716
REMARK  3 active torsions:
REMARK  status: ('A' for Active; 'I' for Inactive)
REMARK    1  A    between atoms: N_20  and  C_12 
REMARK    2  A    between atoms: C_16  and  C_14 
REMARK    3  A    between atoms: N_20  and  C_14 
ROOT
HETATM    1  C   UNK N   1      25.095  25.984 -10.232  0.00  0.00     0.013 C 
HETATM    2  C   UNK N   1      25.199  24.922  -9.674  0.00  0.00    -0.087 C 
HETATM    3  C   UNK N   1      25.413  23.652  -8.983  0.00  0.00     0.364 C 
ENDROOT
BRANCH   3   4
HETATM    4  N   UNK N   1      26.796  23.617  -8.547  0.00  0.00     0.099 N 
HETATM    5  C   UNK N   1      27.641  23.422  -9.720  0.00  0.00     0.311 C 
BRANCH   4   6
HETATM    6  C   UNK N   1      27.127  24.889  -7.926  0.00  0.00     0.312 C 
BRANCH   6   7
HETATM    7  C   UNK N   1      27.430  24.818  -6.437  0.00  0.00    -0.016 C 
HETATM    8  C   UNK N   1      28.247  23.812  -6.150  0.00  0.00     0.024 C 
HETATM    9  C   UNK N   1      28.840  23.321  -4.920  0.00  0.00    -0.002 A 
HETATM   10  C   UNK N   1      29.770  22.286  -5.088  0.00  0.00     0.014 A 
HETATM   11  C   UNK N   1      28.563  23.797  -3.626  0.00  0.00     0.086 A 
HETATM   12  C   UNK N   1      30.438  21.735  -3.998  0.00  0.00     0.001 A 
HETATM   13  C   UNK N   1      30.177  22.213  -2.719  0.00  0.00     0.003 A 
HETATM   14  C   UNK N   1      29.241  23.228  -2.539  0.00  0.00     0.038 A 
HETATM   15  O   UNK N   1      27.689  24.779  -3.330  0.00  0.00    -0.309 OA
HETATM   16  C   UNK N   1      26.973  25.697  -4.015  0.00  0.00     0.086 A 
HETATM   17  C   UNK N   1      26.312  26.639  -3.210  0.00  0.00     0.038 A 
HETATM   18  C   UNK N   1      26.852  25.790  -5.434  0.00  0.00     0.006 A 
HETATM   19  C   UNK N   1      25.565  27.676  -3.752  0.00  0.00     0.003 A 
HETATM   20  C   UNK N   1      25.479  27.808  -5.126  0.00  0.00     0.001 A 
HETATM   21  C   UNK N   1      26.111  26.878  -5.943  0.00  0.00     0.015 A 
ENDBRANCH   6   7
ENDBRANCH   4   6
ENDBRANCH   3   4
TORSDOF 3
ENDMDL
MODEL 7
REMARK VINA RESULT:      -5.8      2.494      6.283
REMARK  3 active torsions:
REMARK  status: ('A' for Active; 'I' for Inactive)
REMARK    1  A    between atoms: N_20  and  C_12 
REMARK    2  A    between atoms: C_16  and  C_14 
REMARK    3  A    between atoms: N_20  and  C_14 
ROOT
HETATM    1  C   UNK N   1      28.673  28.491  -8.024  0.00  0.00     0.013 C 
HETATM    2  C   UNK N   1      28.214  28.634  -6.920  0.00  0.00    -0.087 C 
HETATM    3  C   UNK N   1      27.716  28.744  -5.550  0.00  0.00     0.364 C 
ENDROOT
BRANCH   3   4
HETATM    4  N   UNK N   1      28.492  27.838  -4.726  0.00  0.00     0.099 N 
HETATM    5  C   UNK N   1      28.997  28.580  -3.577  0.00  0.00     0.311 C 
BRANCH   4   6
HETATM    6  C   UNK N   1      27.626  26.767  -4.261  0.00  0.00     0.312 C 
BRANCH   6   7
HETATM    7  C   UNK N   1      28.012  25.374  -4.737  0.00  0.00    -0.016 C 
HETATM    8  C   UNK N   1      28.943  24.831  -3.963  0.00  0.00     0.024 C 
HETATM    9  C   UNK N   1      29.634  23.555  -3.970  0.00  0.00    -0.002 A 
HETATM   10  C   UNK N   1      30.469  23.333  -2.867  0.00  0.00     0.014 A 
HETATM   11  C   UNK N   1      29.522  22.564  -4.962  0.00  0.00     0.086 A 
HETATM   12  C   UNK N   1      31.174  22.140  -2.726  0.00  0.00     0.001 A 
HETATM   13  C   UNK N   1      31.055  21.154  -3.697  0.00  0.00     0.003 A 
HETATM   14  C   UNK N   1      30.242  21.371  -4.807  0.00  0.00     0.038 A 
HETATM   15  O   UNK N   1      28.760  22.657  -6.069  0.00  0.00    -0.309 OA
HETATM   16  C   UNK N   1      27.806  23.488  -6.539  0.00  0.00     0.086 A 
HETATM   17  C   UNK N   1      27.178  23.048  -7.716  0.00  0.00     0.038 A 
HETATM   18  C   UNK N   1      27.392  24.721  -5.951  0.00  0.00     0.006 A 
HETATM   19  C   UNK N   1      26.146  23.762  -8.312  0.00  0.00     0.003 A 
HETATM   20  C   UNK N   1      25.702  24.932  -7.726  0.00  0.00     0.001 A 
HETATM   21  C   UNK N   1      26.319  25.396  -6.571  0.00  0.00     0.015 A 
ENDBRANCH   6   7
ENDBRANCH   4   6
ENDBRANCH   3   4
TORSDOF 3
ENDMDL
MODEL 8
REMARK VINA RESULT:      -5.7     22.178     25.545
REMARK  3 active torsions:
REMARK  status: ('A' for Active; 'I' for Inactive)
REMARK    1  A    between atoms: N_20  and  C_12 
REMARK    2  A    between atoms: C_16  and  C_14 
REMARK    3  A    between atoms: N_20  and  C_14 
ROOT
HETATM    1  C   UNK N   1      34.075  10.597   9.981  0.00  0.00     0.013 C 
HETATM    2  C   UNK N   1      34.664  11.576  10.362  0.00  0.00    -0.087 C 
HETATM    3  C   UNK N   1      35.398  12.718  10.903  0.00  0.00     0.364 C 
ENDROOT
BRANCH   3   4
HETATM    4  N   UNK N   1      35.902  12.338  12.209  0.00  0.00     0.099 N 
HETATM    5  C   UNK N   1      36.884  13.332  12.628  0.00  0.00     0.311 C 
BRANCH   4   6
HETATM    6  C   UNK N   1      34.798  12.327  13.155  0.00  0.00     0.312 C 
BRANCH   6   7
HETATM    7  C   UNK N   1      35.067  11.571  14.448  0.00  0.00    -0.016 C 
HETATM    8  C   UNK N   1      35.050  12.377  15.502  0.00  0.00     0.024 C 
HETATM    9  C   UNK N   1      35.233  12.170  16.926  0.00  0.00    -0.002 A 
HETATM   10  C   UNK N   1      34.998  13.301  17.719  0.00  0.00     0.014 A 
HETATM   11  C   UNK N   1      35.606  10.961  17.540  0.00  0.00     0.086 A 
HETATM   12  C   UNK N   1      35.109  13.243  19.106  0.00  0.00     0.001 A 
HETATM   13  C   UNK N   1      35.464  12.047  19.717  0.00  0.00     0.003 A 
HETATM   14  C   UNK N   1      35.717  10.921  18.937  0.00  0.00     0.038 A 
HETATM   15  O   UNK N   1      35.864   9.808  16.892  0.00  0.00    -0.309 OA
HETATM   16  C   UNK N   1      35.723   9.334  15.636  0.00  0.00     0.086 A 
HETATM   17  C   UNK N   1      35.996   7.963  15.497  0.00  0.00     0.038 A 
HETATM   18  C   UNK N   1      35.321  10.082  14.488  0.00  0.00     0.006 A 
HETATM   19  C   UNK N   1      35.862   7.305  14.282  0.00  0.00     0.003 A 
HETATM   20  C   UNK N   1      35.426   8.005  13.172  0.00  0.00     0.001 A 
HETATM   21  C   UNK N   1      35.166   9.366  13.282  0.00  0.00     0.015 A 
ENDBRANCH   6   7
ENDBRANCH   4   6
ENDBRANCH   3   4
TORSDOF 3
ENDMDL
MODEL 9
REMARK VINA RESULT:      -5.7     21.939     25.359
REMARK  3 active torsions:
REMARK  status: ('A' for Active; 'I' for Inactive)
REMARK    1  A    between atoms: N_20  and  C_12 
REMARK    2  A    between atoms: C_16  and  C_14 
REMARK    3  A    between atoms: N_20  and  C_14 
ROOT
HETATM    1  C   UNK N   1      38.340   7.881  11.036  0.00  0.00     0.013 C 
HETATM    2  C   UNK N   1      38.395   7.719  12.228  0.00  0.00    -0.087 C 
HETATM    3  C   UNK N   1      38.389   7.579  13.683  0.00  0.00     0.364 C 
ENDROOT
BRANCH   3   4
HETATM    4  N   UNK N   1      37.292   8.376  14.197  0.00  0.00     0.099 N 
HETATM    5  C   UNK N   1      36.419   7.505  14.976  0.00  0.00     0.311 C 
BRANCH   4   6
HETATM    6  C   UNK N   1      37.830   9.412  15.064  0.00  0.00     0.312 C 
BRANCH   6   7
HETATM    7  C   UNK N   1      37.177  10.779  14.913  0.00  0.00    -0.016 C 
HETATM    8  C   UNK N   1      37.383  11.290  13.705  0.00  0.00     0.024 C 
HETATM    9  C   UNK N   1      36.981  12.525  13.058  0.00  0.00    -0.002 A 
HETATM   10  C   UNK N   1      37.311  12.610  11.699  0.00  0.00     0.014 A 
HETATM   11  C   UNK N   1      36.305  13.594  13.673  0.00  0.00     0.086 A 
HETATM   12  C   UNK N   1      36.964  13.726  10.942  0.00  0.00     0.001 A 
HETATM   13  C   UNK N   1      36.284  14.778  11.543  0.00  0.00     0.003 A 
HETATM   14  C   UNK N   1      35.967  14.712  12.898  0.00  0.00     0.038 A 
HETATM   15  O   UNK N   1      35.937  13.638  14.968  0.00  0.00    -0.309 OA
HETATM   16  C   UNK N   1      35.887  12.776  16.006  0.00  0.00     0.086 A 
HETATM   17  C   UNK N   1      35.248  13.279  17.151  0.00  0.00     0.038 A 
HETATM   18  C   UNK N   1      36.398  11.443  16.025  0.00  0.00     0.006 A 
HETATM   19  C   UNK N   1      35.073  12.510  18.294  0.00  0.00     0.003 A 
HETATM   20  C   UNK N   1      35.519  11.202  18.310  0.00  0.00     0.001 A 
HETATM   21  C   UNK N   1      36.169  10.687  17.194  0.00  0.00     0.015 A 
ENDBRANCH   6   7
ENDBRANCH   4   6
ENDBRANCH   3   4
TORSDOF 3
ENDMDL
