REMARK  6 active torsions:
REMARK  status: ('A' for Active; 'I' for Inactive)
REMARK    1  A    between atoms: C_4  and  C_11 
REMARK    2  A    between atoms: C_11  and  N_12 
REMARK    3  A    between atoms: N_12  and  C_13 
REMARK    4  A    between atoms: C_13  and  C_14 
REMARK       I    between atoms: N_17  and  C_20 
REMARK    5  A    between atoms: C_24  and  C_28 
REMARK       I    between atoms: C_28  and  N_30 
REMARK    6  A    between atoms: N_30  and  O_31 
ROOT
HETATM    1  C   UNK N   1      -1.203  -4.272   0.970  0.00  0.00     0.006 C 
HETATM    2  C   UNK N   1      -2.072  -5.519   0.818  0.00  0.00     0.027 C 
HETATM    3  C   UNK N   1      -2.955  -5.392  -0.419  0.00  0.00     0.141 C 
HETATM    4  N   UNK N   1      -3.742  -4.187  -0.302  0.00  0.00    -0.218 N 
HETATM    5  C   UNK N   1      -3.054  -2.923  -0.156  0.00  0.00     0.141 C 
HETATM    6  C   UNK N   1      -2.085  -3.008   1.030  0.00  0.00     0.027 C 
HETATM    7  C   UNK N   1      -5.158  -4.279  -0.229  0.00  0.00     0.679 A 
HETATM    8  N   UNK N   1      -5.753  -5.500  -0.299  0.00  0.00    -0.201 N 
ATOM      9  HN  UNK N   1      -5.176  -6.331  -0.427  1.00  0.00     0.183 HD
HETATM   10  C   UNK N   1      -7.097  -5.633  -0.202  0.00  0.00     0.124 A 
HETATM   11  C   UNK N   1      -7.906  -4.510  -0.030  0.00  0.00     0.066 A 
HETATM   12  C   UNK N   1      -7.278  -3.258   0.032  0.00  0.00     0.124 A 
HETATM   13  N   UNK N   1      -5.923  -3.164  -0.066  0.00  0.00    -0.201 N 
ATOM     14  HN  UNK N   1      -5.477  -2.248  -0.017  1.00  0.00     0.183 HD
ENDROOT
BRANCH   1  15
HETATM   15  C   UNK N   1      -0.184  -4.239  -0.165  0.00  0.00     0.118 C 
BRANCH  15  16
HETATM   16  N   UNK N   1       0.703  -3.102  -0.027  0.00  0.00    -0.417 N 
HETATM   17  H   UNK N   1       1.429  -2.973   0.678  0.00  0.00     0.153 HD
BRANCH  16  18
HETATM   18  C   UNK N   1       0.348  -2.185  -1.093  0.00  0.00     0.155 C 
BRANCH  18  19
HETATM   19  C   UNK N   1       0.623  -0.794  -0.653  0.00  0.00    -0.013 A 
HETATM   20  C   UNK N   1      -0.317   0.220  -0.499  0.00  0.00     0.100 A 
HETATM   21  N   UNK N   1       0.319   1.335  -0.071  0.00  0.00    -0.360 N 
HETATM   22  C   UNK N   1      -0.314   2.612   0.211  0.00  0.00     0.155 C 
HETATM   23  C   UNK N   1       1.626   1.038   0.043  0.00  0.00     0.044 A 
HETATM   24  C   UNK N   1       1.845  -0.264  -0.307  0.00  0.00    -0.000 A 
HETATM   25  C   UNK N   1       2.665   1.873   0.453  0.00  0.00     0.030 A 
HETATM   26  C   UNK N   1       3.116  -0.834  -0.276  0.00  0.00     0.014 A 
HETATM   27  C   UNK N   1       4.187  -0.020   0.133  0.00  0.00     0.001 A 
HETATM   28  C   UNK N   1       3.963   1.328   0.496  0.00  0.00     0.002 A 
ENDBRANCH  18  19
ENDBRANCH  16  18
ENDBRANCH  15  16
ENDBRANCH   1  15
BRANCH  11  29
HETATM   29  C   UNK N   1      -9.382  -4.689   0.090  0.00  0.00     0.277 C 
HETATM   30  O   UNK N   1      -9.839  -5.822   0.064  0.00  0.00    -0.265 OA
HETATM   31  N   UNK N   1     -10.243  -3.650   0.230  0.00  0.00    -0.233 N 
HETATM   32  H   UNK N   1     -11.205  -3.840   0.313  0.00  0.00     0.197 HD
BRANCH  31  33
HETATM   33  O   UNK N   1      -9.835  -2.374   0.260  0.00  0.00    -0.287 OA
HETATM   34  H   UNK N   1      -8.887  -2.168   0.281  0.00  0.00     0.244 HD
ENDBRANCH  31  33
ENDBRANCH  11  29
TORSDOF 6
