REMARK  4 active torsions:
REMARK  status: ('A' for Active; 'I' for Inactive)
REMARK    1  A    between atoms: C_3  and  O_12 
REMARK    2  A    between atoms: C_4  and  O_11 
REMARK    3  A    between atoms: C_6  and  C_7 
REMARK       I    between atoms: C_7  and  N_9 
REMARK    4  A    between atoms: N_9  and  O_10 
ROOT
HETATM    1  C   UNK N   1       2.020   0.836   0.001  0.00  0.00     0.020 A 
HETATM    2  C   UNK N   1       2.067  -0.563  -0.002  0.00  0.00     0.040 A 
HETATM    3  C   UNK N   1       0.881  -1.306  -0.003  0.00  0.00     0.098 A 
HETATM    4  C   UNK N   1      -0.355  -0.647  -0.001  0.00  0.00     0.099 A 
HETATM    5  C   UNK N   1      -0.399   0.745   0.002  0.00  0.00     0.056 A 
HETATM    6  C   UNK N   1       0.782   1.498   0.002  0.00  0.00     0.036 A 
ENDROOT
BRANCH   6   7
HETATM    7  C   UNK N   1       0.697   2.971   0.003  0.00  0.00     0.275 C 
HETATM    8  O   UNK N   1       1.717   3.650   0.002  0.00  0.00    -0.265 OA
HETATM    9  N   UNK N   1      -0.517   3.571   0.002  0.00  0.00    -0.233 N 
HETATM   10  H   UNK N   1      -1.329   3.016   0.002  0.00  0.00     0.197 HD
BRANCH   9  11
HETATM   11  O   UNK N   1      -0.633   4.905   0.000  0.00  0.00    -0.287 OA
HETATM   12  H   UNK N   1       0.161   5.461  -0.001  0.00  0.00     0.244 HD
ENDBRANCH   9  11
ENDBRANCH   6   7
BRANCH   4  13
HETATM   13  O   UNK N   1      -1.502  -1.346  -0.001  0.00  0.00    -0.358 OA
HETATM   14  H   UNK N   1      -2.324  -0.897  -0.002  0.00  0.00     0.217 HD
ENDBRANCH   4  13
BRANCH   3  15
HETATM   15  O   UNK N   1       0.931  -2.649  -0.006  0.00  0.00    -0.358 OA
HETATM   16  H   UNK N   1       0.138  -3.148  -0.008  0.00  0.00     0.217 HD
ENDBRANCH   3  15
TORSDOF 4
