REMARK  13 active torsions:
REMARK  status: ('A' for Active; 'I' for Inactive)
REMARK    1  A    between atoms: C_2  and  N_4 
REMARK    2  A    between atoms: N_4  and  C_5 
REMARK    3  A    between atoms: C_8  and  C_11 
REMARK    4  A    between atoms: C_13  and  O_25 
REMARK    5  A    between atoms: C_17  and  O_23 
REMARK    6  A    between atoms: C_26  and  O_25 
REMARK    7  A    between atoms: C_32  and  P_56 
REMARK    8  A    between atoms: C_42  and  N_47 
REMARK       I    between atoms: N_47  and  C_48 
REMARK    9  A    between atoms: C_48  and  O_50 
REMARK   10  A    between atoms: O_50  and  C_51 
REMARK   11  A    between atoms: P_56  and  C_58 
REMARK   12  A    between atoms: P_56  and  O_67 
REMARK   13  A    between atoms: C_58  and  C_59 
ROOT
HETATM    1  C   UNK N   1       3.104   1.067   0.296  0.00  0.00     0.149 C 
HETATM    2  C   UNK N   1       3.697   1.371  -1.077  0.00  0.00     0.069 C 
HETATM    3  C   UNK N   1       5.144   1.018  -0.789  0.00  0.00     0.181 C 
HETATM    4  C   UNK N   1       6.147   0.803  -1.899  0.00  0.00     0.241 C 
HETATM    5  O   UNK N   1       5.734   0.783  -3.047  0.00  0.00    -0.271 OA
HETATM    6  N   UNK N   1       7.495   0.751  -1.701  0.00  0.00    -0.341 N 
HETATM    7  C   UNK N   1       8.240   0.723  -0.448  0.00  0.00     0.109 A 
HETATM    8  C   UNK N   1       8.041  -0.488   0.405  0.00  0.00     0.049 A 
HETATM    9  C   UNK N   1       9.225  -0.443  -0.547  0.00  0.00     0.026 A 
HETATM   10  C   UNK N   1      10.374  -0.708   0.402  0.00  0.00     0.008 C 
HETATM   11  C   UNK N   1      10.833  -2.167   0.233  0.00  0.00     0.000 C 
HETATM   12  C   UNK N   1       9.712  -3.188   0.474  0.00  0.00     0.000 C 
HETATM   13  C   UNK N   1       8.885  -3.392  -0.791  0.00  0.00     0.000 C 
HETATM   14  C   UNK N   1       7.480  -3.855  -0.447  0.00  0.00     0.000 C 
HETATM   15  C   UNK N   1       6.533  -3.551  -1.603  0.00  0.00     0.002 C 
HETATM   16  C   UNK N   1       6.038  -2.113  -1.535  0.00  0.00     0.035 C 
HETATM   17  C   UNK N   1       5.010  -1.991  -0.430  0.00  0.00     0.179 C 
HETATM   18  C   UNK N   1       5.244  -1.012   0.686  0.00  0.00     0.243 C 
HETATM   19  O   UNK N   1       5.234  -1.454   1.825  0.00  0.00    -0.271 OA
HETATM   20  N   UNK N   1       5.153   0.344   0.490  0.00  0.00    -0.334 N 
HETATM   21  C   UNK N   1       4.215   1.008   1.340  0.00  0.00     0.159 C 
HETATM   22  H   UNK N   1       8.041   0.729  -2.520  0.00  0.00     0.163 HD
ENDROOT
BRANCH   1  23
HETATM   23  O   UNK N   1       1.833   1.491   0.577  0.00  0.00    -0.343 OA
BRANCH  23  24
HETATM   24  C   UNK N   1       1.404   2.767   0.518  0.00  0.00     0.084 A 
HETATM   25  C   UNK N   1       2.301   3.848   0.501  0.00  0.00     0.069 A 
HETATM   26  C   UNK N   1       1.797   5.151   0.457  0.00  0.00     0.062 A 
HETATM   27  N   UNK N   1       0.453   5.353   0.414  0.00  0.00    -0.352 N 
HETATM   28  C   UNK N   1      -0.440   4.331   0.405  0.00  0.00     0.070 A 
ATOM     29  HN  UNK N   1       0.102   6.310   0.386  1.00  0.00     0.166 HD
HETATM   30  C   UNK N   1      -1.819   4.600   0.334  0.00  0.00     0.095 A 
HETATM   31  C   UNK N   1       0.026   3.008   0.460  0.00  0.00     0.026 A 
HETATM   32  C   UNK N   1      -2.744   3.512   0.319  0.00  0.00     0.092 A 
HETATM   33 Cl   UNK N   1      -2.314   6.295   0.254  0.00  0.00    -0.079 Cl
HETATM   34  C   UNK N   1      -2.250   2.203   0.363  0.00  0.00     0.039 A 
HETATM   35  C   UNK N   1      -0.884   1.949   0.435  0.00  0.00     0.019 A 
BRANCH  26  36
HETATM   36  C   UNK N   1       2.685   6.319   0.390  0.00  0.00     0.067 A 
HETATM   37  N   UNK N   1       4.054   6.221   0.224  0.00  0.00    -0.335 N 
HETATM   38  C   UNK N   1       4.623   7.442   0.071  0.00  0.00     0.145 A 
ATOM     39  HN  UNK N   1       4.571   5.341   0.218  1.00  0.00     0.168 HD
HETATM   40  S   UNK N   1       3.461   8.610   0.146  0.00  0.00    -0.064 SA
HETATM   41  C   UNK N   1       2.159   7.627   0.382  0.00  0.00     0.085 A 
BRANCH  38  42
HETATM   42  N   UNK N   1       5.986   7.637  -0.267  0.00  0.00    -0.367 N 
HETATM   43  H   UNK N   1       6.632   6.922  -0.065  0.00  0.00     0.162 HD
BRANCH  42  44
HETATM   44  C   UNK N   1       6.460   8.850  -0.898  0.00  0.00     0.075 C 
HETATM   45  C   UNK N   1       7.927   8.706  -1.238  0.00  0.00     0.032 C 
HETATM   46  C   UNK N   1       6.271  10.069  -0.014  0.00  0.00     0.032 C 
ENDBRANCH  42  44
ENDBRANCH  38  42
ENDBRANCH  26  36
BRANCH  32  47
HETATM   47  O   UNK N   1      -4.096   3.651   0.268  0.00  0.00    -0.354 OA
HETATM   48  C   UNK N   1      -4.804   4.824   0.360  0.00  0.00     0.210 C 
ENDBRANCH  32  47
ENDBRANCH  23  24
ENDBRANCH   1  23
BRANCH  17  49
HETATM   49  N   UNK N   1       3.665  -1.780  -0.911  0.00  0.00    -0.324 N 
HETATM   50  C   UNK N   1       2.580  -2.276  -0.247  0.00  0.00     0.361 C 
HETATM   51  O   UNK N   1       1.475  -1.834  -0.488  0.00  0.00    -0.238 OA
HETATM   52  H   UNK N   1       3.526  -1.264  -1.738  0.00  0.00     0.165 HD
BRANCH  50  53
HETATM   53  O   UNK N   1       2.713  -3.251   0.697  0.00  0.00    -0.299 OA
BRANCH  53  54
HETATM   54  C   UNK N   1       3.577  -4.308   0.520  0.00  0.00     0.133 C 
HETATM   55  C   UNK N   1       3.646  -5.186   1.740  0.00  0.00     0.032 C 
HETATM   56  C   UNK N   1       4.112  -6.519   1.190  0.00  0.00     0.002 C 
HETATM   57  C   UNK N   1       3.567  -6.603  -0.227  0.00  0.00     0.002 C 
HETATM   58  C   UNK N   1       3.053  -5.221  -0.571  0.00  0.00     0.032 C 
ENDBRANCH  53  54
ENDBRANCH  50  53
ENDBRANCH  17  49
BRANCH   7  59
HETATM   59  P   UNK N   1       8.919   2.344   0.278  0.00  0.00     0.131 P 
HETATM   60  O   UNK N   1       9.003   2.763  -1.213  0.00  0.00    -0.672 OA
BRANCH  59  61
HETATM   61  C   UNK N   1       8.038   3.992   0.355  0.00  0.00     0.141 C 
BRANCH  61  62
HETATM   62  C   UNK N   1       8.831   5.223   0.684  0.00  0.00     0.028 A 
HETATM   63  C   UNK N   1       8.280   6.136   1.601  0.00  0.00     0.126 A 
HETATM   64  C   UNK N   1       8.943   7.331   1.889  0.00  0.00     0.043 A 
HETATM   65  F   UNK N   1       7.085   5.880   2.191  0.00  0.00    -0.205 F 
HETATM   66  C   UNK N   1      10.158   7.625   1.272  0.00  0.00     0.006 A 
HETATM   67  C   UNK N   1      10.715   6.725   0.362  0.00  0.00     0.043 A 
HETATM   68  C   UNK N   1      10.060   5.529   0.061  0.00  0.00     0.126 A 
HETATM   69  F   UNK N   1      10.626   4.692  -0.839  0.00  0.00    -0.205 F 
ENDBRANCH  61  62
ENDBRANCH  59  61
BRANCH  59  70
HETATM   70  O   UNK N   1       7.220   2.304   0.603  0.00  0.00    -0.347 OA
HETATM   71  H   UNK N   1       6.724   3.117   0.785  0.00  0.00     0.218 HD
ENDBRANCH  59  70
ENDBRANCH   7  59
TORSDOF 13
