MODEL 1
REMARK VINA RESULT:      -7.3      0.000      0.000
REMARK  16 active torsions:
REMARK  status: ('A' for Active; 'I' for Inactive)
REMARK    1  A    between atoms: C_6  and  N_7 
REMARK       I    between atoms: N_7  and  C_8 
REMARK       I    between atoms: C_8  and  N_10 
REMARK    2  A    between atoms: N_10  and  C_11 
REMARK    3  A    between atoms: C_11  and  C_12 
REMARK    4  A    between atoms: C_12  and  C_13 
REMARK    5  A    between atoms: C_13  and  C_14 
REMARK    6  A    between atoms: C_14  and  C_15 
REMARK    7  A    between atoms: C_15  and  C_16 
REMARK    8  A    between atoms: C_15  and  N_19 
REMARK    9  A    between atoms: C_16  and  O_18 
REMARK       I    between atoms: N_19  and  C_20 
REMARK       I    between atoms: C_20  and  N_22 
REMARK   10  A    between atoms: C_23  and  N_22 
REMARK   11  A    between atoms: C_23  and  C_24 
REMARK   12  A    between atoms: C_23  and  C_29 
REMARK   13  A    between atoms: C_24  and  C_25 
REMARK   14  A    between atoms: C_25  and  C_26 
REMARK   15  A    between atoms: C_26  and  O_28 
REMARK   16  A    between atoms: C_29  and  O_31 
ROOT
HETATM    1  C   UNK N   1      20.797  16.447   6.619  0.00  0.00     0.184 C 
ENDROOT
BRANCH   1   2
HETATM    2  C   UNK N   1      22.182  15.771   6.639  0.00  0.00     0.036 C 
BRANCH   2   3
HETATM    3  C   UNK N   1      23.177  16.351   5.637  0.00  0.00     0.004 C 
BRANCH   3   4
HETATM    4  C   UNK N   1      24.627  15.945   5.899  0.00  0.00     0.020 C 
BRANCH   4   5
HETATM    5  C   UNK N   1      25.641  16.607   4.963  0.00  0.00     0.124 C 
BRANCH   5   6
HETATM    6  N   UNK N   1      26.132  17.856   5.498  0.00  0.00    -0.343 N 
HETATM    7  C   UNK N   1      27.398  18.049   5.935  0.00  0.00     0.320 C 
HETATM    8  N   UNK N   1      28.285  17.013   5.968  0.00  0.00    -0.309 N 
HETATM    9  O   UNK N   1      27.718  19.158   6.332  0.00  0.00    -0.247 OA
HETATM   10  H   UNK N   1      27.972  16.136   5.647  0.00  0.00     0.170 HD
HETATM   11  H   UNK N   1      25.507  18.615   5.548  0.00  0.00     0.164 HD
BRANCH   8  12
HETATM   12  C   UNK N   1      29.631  17.102   6.431  0.00  0.00     0.036 A 
HETATM   13  C   UNK N   1      30.722  17.138   5.545  0.00  0.00     0.031 A 
HETATM   14  C   UNK N   1      32.022  17.300   6.027  0.00  0.00     0.020 A 
HETATM   15  C   UNK N   1      32.244  17.432   7.398  0.00  0.00     0.006 A 
HETATM   16  C   UNK N   1      31.169  17.378   8.289  0.00  0.00     0.020 A 
HETATM   17  I   UNK N   1      34.195  17.759   8.113  0.00  0.00    -0.045 I 
HETATM   18  C   UNK N   1      29.868  17.207   7.806  0.00  0.00     0.031 A 
ENDBRANCH   8  12
ENDBRANCH   5   6
ENDBRANCH   4   5
ENDBRANCH   3   4
ENDBRANCH   2   3
ENDBRANCH   1   2
BRANCH   1  19
HETATM   19  C   UNK N   1      20.626  17.605   7.574  0.00  0.00     0.163 C 
HETATM   20  O   UNK N   1      20.857  18.739   7.188  0.00  0.00    -0.648 OA
BRANCH  19  21
HETATM   21  O   UNK N   1      20.219  17.408   8.843  0.00  0.00    -0.775 OA
HETATM   22  H   UNK N   1      20.163  17.774   9.703  0.00  0.00     0.167 HD
ENDBRANCH  19  21
ENDBRANCH   1  19
BRANCH   1  23
HETATM   23  N   UNK N   1      20.461  16.886   5.278  0.00  0.00    -0.329 N 
HETATM   24  C   UNK N   1      19.435  16.358   4.553  0.00  0.00     0.317 C 
HETATM   25  O   UNK N   1      18.683  15.534   5.052  0.00  0.00    -0.247 OA
HETATM   26  N   UNK N   1      19.244  16.724   3.266  0.00  0.00    -0.329 N 
HETATM   27  H   UNK N   1      18.461  16.372   2.785  0.00  0.00     0.165 HD
HETATM   28  H   UNK N   1      21.001  17.603   4.872  0.00  0.00     0.165 HD
BRANCH  26  29
HETATM   29  C   UNK N   1      20.146  17.610   2.571  0.00  0.00     0.184 C 
BRANCH  29  30
HETATM   30  C   UNK N   1      19.721  19.074   2.723  0.00  0.00     0.046 C 
BRANCH  30  31
HETATM   31  C   UNK N   1      20.780  19.954   3.381  0.00  0.00     0.112 C 
BRANCH  31  32
HETATM   32  C   UNK N   1      21.465  20.826   2.381  0.00  0.00     0.139 C 
HETATM   33  O   UNK N   1      21.361  20.594   1.189  0.00  0.00    -0.650 OA
BRANCH  32  34
HETATM   34  O   UNK N   1      22.173  21.891   2.797  0.00  0.00    -0.776 OA
HETATM   35  H   UNK N   1      22.160  22.688   2.304  0.00  0.00     0.167 HD
ENDBRANCH  32  34
ENDBRANCH  31  32
ENDBRANCH  30  31
ENDBRANCH  29  30
BRANCH  29  36
HETATM   36  C   UNK N   1      20.261  17.182   1.138  0.00  0.00     0.163 C 
HETATM   37  O   UNK N   1      20.400  16.005   0.850  0.00  0.00    -0.648 OA
BRANCH  36  38
HETATM   38  O   UNK N   1      20.255  18.111   0.164  0.00  0.00    -0.775 OA
HETATM   39  H   UNK N   1      20.130  19.018  -0.034  0.00  0.00     0.167 HD
ENDBRANCH  36  38
ENDBRANCH  29  36
ENDBRANCH  26  29
ENDBRANCH   1  23
TORSDOF 16
ENDMDL
MODEL 2
REMARK VINA RESULT:      -6.8      5.683      9.777
REMARK  16 active torsions:
REMARK  status: ('A' for Active; 'I' for Inactive)
REMARK    1  A    between atoms: C_6  and  N_7 
REMARK       I    between atoms: N_7  and  C_8 
REMARK       I    between atoms: C_8  and  N_10 
REMARK    2  A    between atoms: N_10  and  C_11 
REMARK    3  A    between atoms: C_11  and  C_12 
REMARK    4  A    between atoms: C_12  and  C_13 
REMARK    5  A    between atoms: C_13  and  C_14 
REMARK    6  A    between atoms: C_14  and  C_15 
REMARK    7  A    between atoms: C_15  and  C_16 
REMARK    8  A    between atoms: C_15  and  N_19 
REMARK    9  A    between atoms: C_16  and  O_18 
REMARK       I    between atoms: N_19  and  C_20 
REMARK       I    between atoms: C_20  and  N_22 
REMARK   10  A    between atoms: C_23  and  N_22 
REMARK   11  A    between atoms: C_23  and  C_24 
REMARK   12  A    between atoms: C_23  and  C_29 
REMARK   13  A    between atoms: C_24  and  C_25 
REMARK   14  A    between atoms: C_25  and  C_26 
REMARK   15  A    between atoms: C_26  and  O_28 
REMARK   16  A    between atoms: C_29  and  O_31 
ROOT
HETATM    1  C   UNK N   1      20.128  16.352   5.945  0.00  0.00     0.184 C 
ENDROOT
BRANCH   1   2
HETATM    2  C   UNK N   1      21.108  16.924   4.902  0.00  0.00     0.036 C 
BRANCH   2   3
HETATM    3  C   UNK N   1      21.251  18.443   4.944  0.00  0.00     0.004 C 
BRANCH   3   4
HETATM    4  C   UNK N   1      21.047  19.121   3.590  0.00  0.00     0.020 C 
BRANCH   4   5
HETATM    5  C   UNK N   1      19.816  18.632   2.825  0.00  0.00     0.124 C 
BRANCH   5   6
HETATM    6  N   UNK N   1      20.115  18.364   1.438  0.00  0.00    -0.343 N 
HETATM    7  C   UNK N   1      20.054  17.136   0.872  0.00  0.00     0.320 C 
HETATM    8  N   UNK N   1      19.773  16.037   1.629  0.00  0.00    -0.309 N 
HETATM    9  O   UNK N   1      20.290  17.028  -0.322  0.00  0.00    -0.247 OA
HETATM   10  H   UNK N   1      19.602  16.178   2.589  0.00  0.00     0.170 HD
HETATM   11  H   UNK N   1      20.381  19.121   0.868  0.00  0.00     0.164 HD
BRANCH   8  12
HETATM   12  C   UNK N   1      19.708  14.699   1.139  0.00  0.00     0.036 A 
HETATM   13  C   UNK N   1      20.800  13.819   1.230  0.00  0.00     0.031 A 
HETATM   14  C   UNK N   1      20.681  12.494   0.807  0.00  0.00     0.020 A 
HETATM   15  C   UNK N   1      19.468  12.035   0.294  0.00  0.00     0.006 A 
HETATM   16  C   UNK N   1      18.381  12.906   0.181  0.00  0.00     0.020 A 
HETATM   17  I   UNK N   1      19.267  10.016  -0.263  0.00  0.00    -0.045 I 
HETATM   18  C   UNK N   1      18.504  14.236   0.597  0.00  0.00     0.031 A 
ENDBRANCH   8  12
ENDBRANCH   5   6
ENDBRANCH   4   5
ENDBRANCH   3   4
ENDBRANCH   2   3
ENDBRANCH   1   2
BRANCH   1  19
HETATM   19  C   UNK N   1      18.860  15.750   5.383  0.00  0.00     0.163 C 
HETATM   20  O   UNK N   1      18.926  15.018   4.409  0.00  0.00    -0.648 OA
BRANCH  19  21
HETATM   21  O   UNK N   1      17.661  16.003   5.941  0.00  0.00    -0.775 OA
HETATM   22  H   UNK N   1      17.126  16.642   6.369  0.00  0.00     0.167 HD
ENDBRANCH  19  21
ENDBRANCH   1  19
BRANCH   1  23
HETATM   23  N   UNK N   1      20.787  15.369   6.783  0.00  0.00    -0.329 N 
HETATM   24  C   UNK N   1      21.046  15.567   8.107  0.00  0.00     0.317 C 
HETATM   25  O   UNK N   1      20.642  16.572   8.673  0.00  0.00    -0.247 OA
HETATM   26  N   UNK N   1      21.769  14.666   8.807  0.00  0.00    -0.329 N 
HETATM   27  H   UNK N   1      21.890  14.804   9.773  0.00  0.00     0.165 HD
HETATM   28  H   UNK N   1      21.061  14.515   6.376  0.00  0.00     0.165 HD
BRANCH  26  29
HETATM   29  C   UNK N   1      22.370  13.507   8.191  0.00  0.00     0.184 C 
BRANCH  29  30
HETATM   30  C   UNK N   1      22.217  12.263   9.070  0.00  0.00     0.046 C 
BRANCH  30  31
HETATM   31  C   UNK N   1      21.917  12.580  10.533  0.00  0.00     0.112 C 
BRANCH  31  32
HETATM   32  C   UNK N   1      22.954  12.006  11.441  0.00  0.00     0.139 C 
HETATM   33  O   UNK N   1      24.117  11.937  11.082  0.00  0.00    -0.650 OA
BRANCH  32  34
HETATM   34  O   UNK N   1      22.609  11.596  12.675  0.00  0.00    -0.776 OA
HETATM   35  H   UNK N   1      22.294  10.723  12.811  0.00  0.00     0.167 HD
ENDBRANCH  32  34
ENDBRANCH  31  32
ENDBRANCH  30  31
ENDBRANCH  29  30
BRANCH  29  36
HETATM   36  C   UNK N   1      23.798  13.808   7.849  0.00  0.00     0.163 C 
HETATM   37  O   UNK N   1      24.073  14.631   6.991  0.00  0.00    -0.648 OA
BRANCH  36  38
HETATM   38  O   UNK N   1      24.786  13.132   8.465  0.00  0.00    -0.775 OA
HETATM   39  H   UNK N   1      25.671  12.831   8.398  0.00  0.00     0.167 HD
ENDBRANCH  36  38
ENDBRANCH  29  36
ENDBRANCH  26  29
ENDBRANCH   1  23
TORSDOF 16
ENDMDL
MODEL 3
REMARK VINA RESULT:      -6.7      7.509     12.192
REMARK  16 active torsions:
REMARK  status: ('A' for Active; 'I' for Inactive)
REMARK    1  A    between atoms: C_6  and  N_7 
REMARK       I    between atoms: N_7  and  C_8 
REMARK       I    between atoms: C_8  and  N_10 
REMARK    2  A    between atoms: N_10  and  C_11 
REMARK    3  A    between atoms: C_11  and  C_12 
REMARK    4  A    between atoms: C_12  and  C_13 
REMARK    5  A    between atoms: C_13  and  C_14 
REMARK    6  A    between atoms: C_14  and  C_15 
REMARK    7  A    between atoms: C_15  and  C_16 
REMARK    8  A    between atoms: C_15  and  N_19 
REMARK    9  A    between atoms: C_16  and  O_18 
REMARK       I    between atoms: N_19  and  C_20 
REMARK       I    between atoms: C_20  and  N_22 
REMARK   10  A    between atoms: C_23  and  N_22 
REMARK   11  A    between atoms: C_23  and  C_24 
REMARK   12  A    between atoms: C_23  and  C_29 
REMARK   13  A    between atoms: C_24  and  C_25 
REMARK   14  A    between atoms: C_25  and  C_26 
REMARK   15  A    between atoms: C_26  and  O_28 
REMARK   16  A    between atoms: C_29  and  O_31 
ROOT
HETATM    1  C   UNK N   1      33.285  17.381   8.577  0.00  0.00     0.184 C 
ENDROOT
BRANCH   1   2
HETATM    2  C   UNK N   1      33.645  16.005   9.170  0.00  0.00     0.036 C 
BRANCH   2   3
HETATM    3  C   UNK N   1      35.129  15.826   9.482  0.00  0.00     0.004 C 
BRANCH   3   4
HETATM    4  C   UNK N   1      35.519  16.253  10.896  0.00  0.00     0.020 C 
BRANCH   4   5
HETATM    5  C   UNK N   1      35.660  15.092  11.883  0.00  0.00     0.124 C 
BRANCH   5   6
HETATM    6  N   UNK N   1      36.422  15.468  13.052  0.00  0.00    -0.343 N 
HETATM    7  C   UNK N   1      36.506  14.720  14.176  0.00  0.00     0.320 C 
HETATM    8  N   UNK N   1      35.785  13.568  14.298  0.00  0.00    -0.309 N 
HETATM    9  O   UNK N   1      37.211  15.115  15.091  0.00  0.00    -0.247 OA
HETATM   10  H   UNK N   1      35.223  13.301  13.534  0.00  0.00     0.170 HD
HETATM   11  H   UNK N   1      36.911  16.322  13.029  0.00  0.00     0.164 HD
BRANCH   8  12
HETATM   12  C   UNK N   1      35.782  12.722  15.445  0.00  0.00     0.036 A 
HETATM   13  C   UNK N   1      35.234  13.133  16.673  0.00  0.00     0.031 A 
HETATM   14  C   UNK N   1      35.181  12.255  17.756  0.00  0.00     0.020 A 
HETATM   15  C   UNK N   1      35.669  10.955  17.621  0.00  0.00     0.006 A 
HETATM   16  C   UNK N   1      36.234  10.541  16.412  0.00  0.00     0.020 A 
HETATM   17  I   UNK N   1      35.511   9.608  19.229  0.00  0.00    -0.045 I 
HETATM   18  C   UNK N   1      36.295  11.425  15.329  0.00  0.00     0.031 A 
ENDBRANCH   8  12
ENDBRANCH   5   6
ENDBRANCH   4   5
ENDBRANCH   3   4
ENDBRANCH   2   3
ENDBRANCH   1   2
BRANCH   1  19
HETATM   19  C   UNK N   1      34.413  18.102   7.877  0.00  0.00     0.163 C 
HETATM   20  O   UNK N   1      34.643  17.857   6.704  0.00  0.00    -0.648 OA
BRANCH  19  21
HETATM   21  O   UNK N   1      35.166  19.013   8.523  0.00  0.00    -0.775 OA
HETATM   22  H   UNK N   1      35.737  19.170   9.249  0.00  0.00     0.167 HD
ENDBRANCH  19  21
ENDBRANCH   1  19
BRANCH   1  23
HETATM   23  N   UNK N   1      32.159  17.270   7.669  0.00  0.00    -0.329 N 
HETATM   24  C   UNK N   1      30.911  17.731   7.963  0.00  0.00     0.317 C 
HETATM   25  O   UNK N   1      30.708  18.354   8.995  0.00  0.00    -0.247 OA
HETATM   26  N   UNK N   1      29.876  17.493   7.128  0.00  0.00    -0.329 N 
HETATM   27  H   UNK N   1      29.000  17.888   7.335  0.00  0.00     0.165 HD
HETATM   28  H   UNK N   1      32.304  16.838   6.795  0.00  0.00     0.165 HD
BRANCH  26  29
HETATM   29  C   UNK N   1      30.008  16.678   5.943  0.00  0.00     0.184 C 
BRANCH  29  30
HETATM   30  C   UNK N   1      30.579  17.483   4.772  0.00  0.00     0.046 C 
BRANCH  30  31
HETATM   31  C   UNK N   1      31.040  16.618   3.602  0.00  0.00     0.112 C 
BRANCH  31  32
HETATM   32  C   UNK N   1      32.527  16.492   3.566  0.00  0.00     0.139 C 
HETATM   33  O   UNK N   1      33.112  16.399   2.501  0.00  0.00    -0.650 OA
BRANCH  32  34
HETATM   34  O   UNK N   1      33.227  16.514   4.715  0.00  0.00    -0.776 OA
HETATM   35  H   UNK N   1      33.715  17.277   4.955  0.00  0.00     0.167 HD
ENDBRANCH  32  34
ENDBRANCH  31  32
ENDBRANCH  30  31
ENDBRANCH  29  30
BRANCH  29  36
HETATM   36  C   UNK N   1      28.688  16.042   5.625  0.00  0.00     0.163 C 
HETATM   37  O   UNK N   1      28.574  14.828   5.597  0.00  0.00    -0.648 OA
BRANCH  36  38
HETATM   38  O   UNK N   1      27.631  16.819   5.326  0.00  0.00    -0.775 OA
HETATM   39  H   UNK N   1      26.741  17.022   5.535  0.00  0.00     0.167 HD
ENDBRANCH  36  38
ENDBRANCH  29  36
ENDBRANCH  26  29
ENDBRANCH   1  23
TORSDOF 16
ENDMDL
MODEL 4
REMARK VINA RESULT:      -6.7     12.416     15.131
REMARK  16 active torsions:
REMARK  status: ('A' for Active; 'I' for Inactive)
REMARK    1  A    between atoms: C_6  and  N_7 
REMARK       I    between atoms: N_7  and  C_8 
REMARK       I    between atoms: C_8  and  N_10 
REMARK    2  A    between atoms: N_10  and  C_11 
REMARK    3  A    between atoms: C_11  and  C_12 
REMARK    4  A    between atoms: C_12  and  C_13 
REMARK    5  A    between atoms: C_13  and  C_14 
REMARK    6  A    between atoms: C_14  and  C_15 
REMARK    7  A    between atoms: C_15  and  C_16 
REMARK    8  A    between atoms: C_15  and  N_19 
REMARK    9  A    between atoms: C_16  and  O_18 
REMARK       I    between atoms: N_19  and  C_20 
REMARK       I    between atoms: C_20  and  N_22 
REMARK   10  A    between atoms: C_23  and  N_22 
REMARK   11  A    between atoms: C_23  and  C_24 
REMARK   12  A    between atoms: C_23  and  C_29 
REMARK   13  A    between atoms: C_24  and  C_25 
REMARK   14  A    between atoms: C_25  and  C_26 
REMARK   15  A    between atoms: C_26  and  O_28 
REMARK   16  A    between atoms: C_29  and  O_31 
ROOT
HETATM    1  C   UNK N   1      27.353  27.093  -4.513  0.00  0.00     0.184 C 
ENDROOT
BRANCH   1   2
HETATM    2  C   UNK N   1      26.716  27.472  -5.864  0.00  0.00     0.036 C 
BRANCH   2   3
HETATM    3  C   UNK N   1      25.447  26.693  -6.199  0.00  0.00     0.004 C 
BRANCH   3   4
HETATM    4  C   UNK N   1      25.695  25.438  -7.035  0.00  0.00     0.020 C 
BRANCH   4   5
HETATM    5  C   UNK N   1      25.840  24.157  -6.211  0.00  0.00     0.124 C 
BRANCH   5   6
HETATM    6  N   UNK N   1      25.287  23.011  -6.895  0.00  0.00    -0.343 N 
HETATM    7  C   UNK N   1      26.031  22.036  -7.467  0.00  0.00     0.320 C 
HETATM    8  N   UNK N   1      27.392  22.131  -7.499  0.00  0.00    -0.309 N 
HETATM    9  O   UNK N   1      25.459  21.090  -7.986  0.00  0.00    -0.247 OA
HETATM   10  H   UNK N   1      27.802  22.921  -7.076  0.00  0.00     0.170 HD
HETATM   11  H   UNK N   1      24.307  22.933  -6.947  0.00  0.00     0.164 HD
BRANCH   8  12
HETATM   12  C   UNK N   1      28.266  21.176  -8.097  0.00  0.00     0.036 A 
HETATM   13  C   UNK N   1      28.874  20.154  -7.348  0.00  0.00     0.031 A 
HETATM   14  C   UNK N   1      29.666  19.190  -7.975  0.00  0.00     0.020 A 
HETATM   15  C   UNK N   1      29.853  19.236  -9.357  0.00  0.00     0.006 A 
HETATM   16  C   UNK N   1      29.268  20.259 -10.109  0.00  0.00     0.020 A 
HETATM   17  I   UNK N   1      30.977  17.734 -10.309  0.00  0.00    -0.045 I 
HETATM   18  C   UNK N   1      28.482  21.229  -9.478  0.00  0.00     0.031 A 
ENDBRANCH   8  12
ENDBRANCH   5   6
ENDBRANCH   4   5
ENDBRANCH   3   4
ENDBRANCH   2   3
ENDBRANCH   1   2
BRANCH   1  19
HETATM   19  C   UNK N   1      26.380  26.775  -3.402  0.00  0.00     0.163 C 
HETATM   20  O   UNK N   1      26.334  25.641  -2.954  0.00  0.00    -0.648 OA
BRANCH  19  21
HETATM   21  O   UNK N   1      25.565  27.720  -2.896  0.00  0.00    -0.775 OA
HETATM   22  H   UNK N   1      25.097  28.512  -3.071  0.00  0.00     0.167 HD
ENDBRANCH  19  21
ENDBRANCH   1  19
BRANCH   1  23
HETATM   23  N   UNK N   1      28.269  25.980  -4.673  0.00  0.00    -0.329 N 
HETATM   24  C   UNK N   1      29.561  26.004  -4.240  0.00  0.00     0.317 C 
HETATM   25  O   UNK N   1      29.983  26.958  -3.603  0.00  0.00    -0.247 OA
HETATM   26  N   UNK N   1      30.400  24.984  -4.523  0.00  0.00    -0.329 N 
HETATM   27  H   UNK N   1      31.309  25.000  -4.148  0.00  0.00     0.165 HD
HETATM   28  H   UNK N   1      27.940  25.164  -5.117  0.00  0.00     0.165 HD
BRANCH  26  29
HETATM   29  C   UNK N   1      30.013  23.870  -5.356  0.00  0.00     0.184 C 
BRANCH  29  30
HETATM   30  C   UNK N   1      30.781  22.599  -4.984  0.00  0.00     0.046 C 
BRANCH  30  31
HETATM   31  C   UNK N   1      30.234  21.892  -3.747  0.00  0.00     0.112 C 
BRANCH  31  32
HETATM   32  C   UNK N   1      31.041  22.210  -2.532  0.00  0.00     0.139 C 
HETATM   33  O   UNK N   1      30.708  23.121  -1.793  0.00  0.00    -0.650 OA
BRANCH  32  34
HETATM   34  O   UNK N   1      32.121  21.467  -2.235  0.00  0.00    -0.776 OA
HETATM   35  H   UNK N   1      32.205  20.598  -2.576  0.00  0.00     0.167 HD
ENDBRANCH  32  34
ENDBRANCH  31  32
ENDBRANCH  30  31
ENDBRANCH  29  30
BRANCH  29  36
HETATM   36  C   UNK N   1      30.172  24.247  -6.799  0.00  0.00     0.163 C 
HETATM   37  O   UNK N   1      31.261  24.175  -7.344  0.00  0.00    -0.648 OA
BRANCH  36  38
HETATM   38  O   UNK N   1      29.111  24.711  -7.486  0.00  0.00    -0.775 OA
HETATM   39  H   UNK N   1      28.629  24.655  -8.286  0.00  0.00     0.167 HD
ENDBRANCH  36  38
ENDBRANCH  29  36
ENDBRANCH  26  29
ENDBRANCH   1  23
TORSDOF 16
ENDMDL
MODEL 5
REMARK VINA RESULT:      -6.7      3.225      4.318
REMARK  16 active torsions:
REMARK  status: ('A' for Active; 'I' for Inactive)
REMARK    1  A    between atoms: C_6  and  N_7 
REMARK       I    between atoms: N_7  and  C_8 
REMARK       I    between atoms: C_8  and  N_10 
REMARK    2  A    between atoms: N_10  and  C_11 
REMARK    3  A    between atoms: C_11  and  C_12 
REMARK    4  A    between atoms: C_12  and  C_13 
REMARK    5  A    between atoms: C_13  and  C_14 
REMARK    6  A    between atoms: C_14  and  C_15 
REMARK    7  A    between atoms: C_15  and  C_16 
REMARK    8  A    between atoms: C_15  and  N_19 
REMARK    9  A    between atoms: C_16  and  O_18 
REMARK       I    between atoms: N_19  and  C_20 
REMARK       I    between atoms: C_20  and  N_22 
REMARK   10  A    between atoms: C_23  and  N_22 
REMARK   11  A    between atoms: C_23  and  C_24 
REMARK   12  A    between atoms: C_23  and  C_29 
REMARK   13  A    between atoms: C_24  and  C_25 
REMARK   14  A    between atoms: C_25  and  C_26 
REMARK   15  A    between atoms: C_26  and  O_28 
REMARK   16  A    between atoms: C_29  and  O_31 
ROOT
HETATM    1  C   UNK N   1      20.035  16.421   7.179  0.00  0.00     0.184 C 
ENDROOT
BRANCH   1   2
HETATM    2  C   UNK N   1      21.081  15.398   7.660  0.00  0.00     0.036 C 
BRANCH   2   3
HETATM    3  C   UNK N   1      21.124  15.210   9.175  0.00  0.00     0.004 C 
BRANCH   3   4
HETATM    4  C   UNK N   1      20.797  13.788   9.631  0.00  0.00     0.020 C 
BRANCH   4   5
HETATM    5  C   UNK N   1      21.748  12.722   9.084  0.00  0.00     0.124 C 
BRANCH   5   6
HETATM    6  N   UNK N   1      23.064  12.821   9.673  0.00  0.00    -0.343 N 
HETATM    7  C   UNK N   1      24.166  13.233   9.003  0.00  0.00     0.320 C 
HETATM    8  N   UNK N   1      24.103  13.508   7.668  0.00  0.00    -0.309 N 
HETATM    9  O   UNK N   1      25.222  13.317   9.610  0.00  0.00    -0.247 OA
HETATM   10  H   UNK N   1      23.228  13.413   7.226  0.00  0.00     0.170 HD
HETATM   11  H   UNK N   1      23.166  12.575  10.620  0.00  0.00     0.164 HD
BRANCH   8  12
HETATM   12  C   UNK N   1      25.206  13.924   6.866  0.00  0.00     0.036 A 
HETATM   13  C   UNK N   1      25.761  15.211   6.973  0.00  0.00     0.031 A 
HETATM   14  C   UNK N   1      26.887  15.563   6.226  0.00  0.00     0.020 A 
HETATM   15  C   UNK N   1      27.471  14.630   5.368  0.00  0.00     0.006 A 
HETATM   16  C   UNK N   1      26.916  13.354   5.239  0.00  0.00     0.020 A 
HETATM   17  I   UNK N   1      29.216  15.136   4.308  0.00  0.00    -0.045 I 
HETATM   18  C   UNK N   1      25.783  13.005   5.982  0.00  0.00     0.031 A 
ENDBRANCH   8  12
ENDBRANCH   5   6
ENDBRANCH   4   5
ENDBRANCH   3   4
ENDBRANCH   2   3
ENDBRANCH   1   2
BRANCH   1  19
HETATM   19  C   UNK N   1      20.097  17.776   7.845  0.00  0.00     0.163 C 
HETATM   20  O   UNK N   1      19.411  17.990   8.831  0.00  0.00    -0.648 OA
BRANCH  19  21
HETATM   21  O   UNK N   1      20.897  18.750   7.371  0.00  0.00    -0.775 OA
HETATM   22  H   UNK N   1      21.774  18.991   7.146  0.00  0.00     0.167 HD
ENDBRANCH  19  21
ENDBRANCH   1  19
BRANCH   1  23
HETATM   23  N   UNK N   1      20.112  16.597   5.742  0.00  0.00    -0.329 N 
HETATM   24  C   UNK N   1      19.123  16.214   4.886  0.00  0.00     0.317 C 
HETATM   25  O   UNK N   1      18.066  15.778   5.317  0.00  0.00    -0.247 OA
HETATM   26  N   UNK N   1      19.302  16.294   3.549  0.00  0.00    -0.329 N 
HETATM   27  H   UNK N   1      18.550  16.067   2.956  0.00  0.00     0.165 HD
HETATM   28  H   UNK N   1      20.921  17.014   5.364  0.00  0.00     0.165 HD
BRANCH  26  29
HETATM   29  C   UNK N   1      20.555  16.698   2.958  0.00  0.00     0.184 C 
BRANCH  29  30
HETATM   30  C   UNK N   1      20.387  17.951   2.094  0.00  0.00     0.046 C 
BRANCH  30  31
HETATM   31  C   UNK N   1      19.608  19.070   2.781  0.00  0.00     0.112 C 
BRANCH  31  32
HETATM   32  C   UNK N   1      20.510  19.959   3.572  0.00  0.00     0.139 C 
HETATM   33  O   UNK N   1      20.938  19.596   4.655  0.00  0.00    -0.650 OA
BRANCH  32  34
HETATM   34  O   UNK N   1      20.879  21.151   3.072  0.00  0.00    -0.776 OA
HETATM   35  H   UNK N   1      20.536  21.445   2.251  0.00  0.00     0.167 HD
ENDBRANCH  32  34
ENDBRANCH  31  32
ENDBRANCH  30  31
ENDBRANCH  29  30
BRANCH  29  36
HETATM   36  C   UNK N   1      21.147  15.545   2.204  0.00  0.00     0.163 C 
HETATM   37  O   UNK N   1      21.302  15.605   0.995  0.00  0.00    -0.648 OA
BRANCH  36  38
HETATM   38  O   UNK N   1      21.470  14.416   2.862  0.00  0.00    -0.775 OA
HETATM   39  H   UNK N   1      22.110  13.996   3.401  0.00  0.00     0.167 HD
ENDBRANCH  36  38
ENDBRANCH  29  36
ENDBRANCH  26  29
ENDBRANCH   1  23
TORSDOF 16
ENDMDL
MODEL 6
REMARK VINA RESULT:      -6.7      3.768      4.496
REMARK  16 active torsions:
REMARK  status: ('A' for Active; 'I' for Inactive)
REMARK    1  A    between atoms: C_6  and  N_7 
REMARK       I    between atoms: N_7  and  C_8 
REMARK       I    between atoms: C_8  and  N_10 
REMARK    2  A    between atoms: N_10  and  C_11 
REMARK    3  A    between atoms: C_11  and  C_12 
REMARK    4  A    between atoms: C_12  and  C_13 
REMARK    5  A    between atoms: C_13  and  C_14 
REMARK    6  A    between atoms: C_14  and  C_15 
REMARK    7  A    between atoms: C_15  and  C_16 
REMARK    8  A    between atoms: C_15  and  N_19 
REMARK    9  A    between atoms: C_16  and  O_18 
REMARK       I    between atoms: N_19  and  C_20 
REMARK       I    between atoms: C_20  and  N_22 
REMARK   10  A    between atoms: C_23  and  N_22 
REMARK   11  A    between atoms: C_23  and  C_24 
REMARK   12  A    between atoms: C_23  and  C_29 
REMARK   13  A    between atoms: C_24  and  C_25 
REMARK   14  A    between atoms: C_25  and  C_26 
REMARK   15  A    between atoms: C_26  and  O_28 
REMARK   16  A    between atoms: C_29  and  O_31 
ROOT
HETATM    1  C   UNK N   1      19.869  15.827   7.498  0.00  0.00     0.184 C 
ENDROOT
BRANCH   1   2
HETATM    2  C   UNK N   1      21.118  15.041   7.941  0.00  0.00     0.036 C 
BRANCH   2   3
HETATM    3  C   UNK N   1      21.091  13.560   7.570  0.00  0.00     0.004 C 
BRANCH   3   4
HETATM    4  C   UNK N   1      22.222  12.745   8.197  0.00  0.00     0.020 C 
BRANCH   4   5
HETATM    5  C   UNK N   1      23.414  12.510   7.268  0.00  0.00     0.124 C 
BRANCH   5   6
HETATM    6  N   UNK N   1      24.531  13.365   7.598  0.00  0.00    -0.343 N 
HETATM    7  C   UNK N   1      24.791  14.545   6.988  0.00  0.00     0.320 C 
HETATM    8  N   UNK N   1      24.029  14.963   5.936  0.00  0.00    -0.309 N 
HETATM    9  O   UNK N   1      25.742  15.207   7.374  0.00  0.00    -0.247 OA
HETATM   10  H   UNK N   1      23.282  14.385   5.658  0.00  0.00     0.170 HD
HETATM   11  H   UNK N   1      25.141  13.071   8.313  0.00  0.00     0.164 HD
BRANCH   8  12
HETATM   12  C   UNK N   1      24.232  16.173   5.209  0.00  0.00     0.036 A 
HETATM   13  C   UNK N   1      23.446  17.316   5.434  0.00  0.00     0.031 A 
HETATM   14  C   UNK N   1      23.717  18.508   4.758  0.00  0.00     0.020 A 
HETATM   15  C   UNK N   1      24.779  18.569   3.856  0.00  0.00     0.006 A 
HETATM   16  C   UNK N   1      25.556  17.433   3.611  0.00  0.00     0.020 A 
HETATM   17  I   UNK N   1      25.237  20.388   2.904  0.00  0.00    -0.045 I 
HETATM   18  C   UNK N   1      25.278  16.238   4.282  0.00  0.00     0.031 A 
ENDBRANCH   8  12
ENDBRANCH   5   6
ENDBRANCH   4   5
ENDBRANCH   3   4
ENDBRANCH   2   3
ENDBRANCH   1   2
BRANCH   1  19
HETATM   19  C   UNK N   1      19.505  17.011   8.363  0.00  0.00     0.163 C 
HETATM   20  O   UNK N   1      18.412  17.044   8.904  0.00  0.00    -0.648 OA
BRANCH  19  21
HETATM   21  O   UNK N   1      20.368  18.029   8.551  0.00  0.00    -0.775 OA
HETATM   22  H   UNK N   1      20.904  18.485   9.169  0.00  0.00     0.167 HD
ENDBRANCH  19  21
ENDBRANCH   1  19
BRANCH   1  23
HETATM   23  N   UNK N   1      20.002  16.269   6.123  0.00  0.00    -0.329 N 
HETATM   24  C   UNK N   1      19.001  16.167   5.203  0.00  0.00     0.317 C 
HETATM   25  O   UNK N   1      17.894  15.770   5.534  0.00  0.00    -0.247 OA
HETATM   26  N   UNK N   1      19.224  16.486   3.909  0.00  0.00    -0.329 N 
HETATM   27  H   UNK N   1      18.469  16.460   3.279  0.00  0.00     0.165 HD
HETATM   28  H   UNK N   1      20.859  16.663   5.840  0.00  0.00     0.165 HD
BRANCH  26  29
HETATM   29  C   UNK N   1      20.527  16.862   3.416  0.00  0.00     0.184 C 
BRANCH  29  30
HETATM   30  C   UNK N   1      20.428  17.958   2.352  0.00  0.00     0.046 C 
BRANCH  30  31
HETATM   31  C   UNK N   1      20.299  19.365   2.932  0.00  0.00     0.112 C 
BRANCH  31  32
HETATM   32  C   UNK N   1      21.027  20.368   2.100  0.00  0.00     0.139 C 
HETATM   33  O   UNK N   1      21.091  20.235   0.890  0.00  0.00    -0.650 OA
BRANCH  32  34
HETATM   34  O   UNK N   1      21.586  21.442   2.686  0.00  0.00    -0.776 OA
HETATM   35  H   UNK N   1      22.388  21.355   3.163  0.00  0.00     0.167 HD
ENDBRANCH  32  34
ENDBRANCH  31  32
ENDBRANCH  30  31
ENDBRANCH  29  30
BRANCH  29  36
HETATM   36  C   UNK N   1      21.248  15.640   2.930  0.00  0.00     0.163 C 
HETATM   37  O   UNK N   1      21.492  15.493   1.743  0.00  0.00    -0.648 OA
BRANCH  36  38
HETATM   38  O   UNK N   1      21.591  14.677   3.805  0.00  0.00    -0.775 OA
HETATM   39  H   UNK N   1      21.569  13.759   3.986  0.00  0.00     0.167 HD
ENDBRANCH  36  38
ENDBRANCH  29  36
ENDBRANCH  26  29
ENDBRANCH   1  23
TORSDOF 16
ENDMDL
MODEL 7
REMARK VINA RESULT:      -6.6      7.971     12.551
REMARK  16 active torsions:
REMARK  status: ('A' for Active; 'I' for Inactive)
REMARK    1  A    between atoms: C_6  and  N_7 
REMARK       I    between atoms: N_7  and  C_8 
REMARK       I    between atoms: C_8  and  N_10 
REMARK    2  A    between atoms: N_10  and  C_11 
REMARK    3  A    between atoms: C_11  and  C_12 
REMARK    4  A    between atoms: C_12  and  C_13 
REMARK    5  A    between atoms: C_13  and  C_14 
REMARK    6  A    between atoms: C_14  and  C_15 
REMARK    7  A    between atoms: C_15  and  C_16 
REMARK    8  A    between atoms: C_15  and  N_19 
REMARK    9  A    between atoms: C_16  and  O_18 
REMARK       I    between atoms: N_19  and  C_20 
REMARK       I    between atoms: C_20  and  N_22 
REMARK   10  A    between atoms: C_23  and  N_22 
REMARK   11  A    between atoms: C_23  and  C_24 
REMARK   12  A    between atoms: C_23  and  C_29 
REMARK   13  A    between atoms: C_24  and  C_25 
REMARK   14  A    between atoms: C_25  and  C_26 
REMARK   15  A    between atoms: C_26  and  O_28 
REMARK   16  A    between atoms: C_29  and  O_31 
ROOT
HETATM    1  C   UNK N   1      33.491  15.406   9.054  0.00  0.00     0.184 C 
ENDROOT
BRANCH   1   2
HETATM    2  C   UNK N   1      33.835  15.614  10.542  0.00  0.00     0.036 C 
BRANCH   2   3
HETATM    3  C   UNK N   1      35.157  16.339  10.784  0.00  0.00     0.004 C 
BRANCH   3   4
HETATM    4  C   UNK N   1      36.274  15.433  11.299  0.00  0.00     0.020 C 
BRANCH   4   5
HETATM    5  C   UNK N   1      35.899  14.621  12.540  0.00  0.00     0.124 C 
BRANCH   5   6
HETATM    6  N   UNK N   1      36.719  14.965  13.678  0.00  0.00    -0.343 N 
HETATM    7  C   UNK N   1      36.710  14.292  14.852  0.00  0.00     0.320 C 
HETATM    8  N   UNK N   1      35.835  13.265  15.055  0.00  0.00    -0.309 N 
HETATM    9  O   UNK N   1      37.474  14.646  15.736  0.00  0.00    -0.247 OA
HETATM   10  H   UNK N   1      35.233  13.028  14.313  0.00  0.00     0.170 HD
HETATM   11  H   UNK N   1      37.323  15.738  13.595  0.00  0.00     0.164 HD
BRANCH   8  12
HETATM   12  C   UNK N   1      35.726  12.509  16.259  0.00  0.00     0.036 A 
HETATM   13  C   UNK N   1      36.182  11.182  16.348  0.00  0.00     0.031 A 
HETATM   14  C   UNK N   1      36.129  10.493  17.561  0.00  0.00     0.020 A 
HETATM   15  C   UNK N   1      35.624  11.125  18.697  0.00  0.00     0.006 A 
HETATM   16  C   UNK N   1      35.149  12.437  18.616  0.00  0.00     0.020 A 
HETATM   17  I   UNK N   1      35.622  10.112  20.541  0.00  0.00    -0.045 I 
HETATM   18  C   UNK N   1      35.196  13.124  17.399  0.00  0.00     0.031 A 
ENDBRANCH   8  12
ENDBRANCH   5   6
ENDBRANCH   4   5
ENDBRANCH   3   4
ENDBRANCH   2   3
ENDBRANCH   1   2
BRANCH   1  19
HETATM   19  C   UNK N   1      33.387  13.966   8.607  0.00  0.00     0.163 C 
HETATM   20  O   UNK N   1      32.289  13.493   8.366  0.00  0.00    -0.648 OA
BRANCH  19  21
HETATM   21  O   UNK N   1      34.485  13.198   8.467  0.00  0.00    -0.775 OA
HETATM   22  H   UNK N   1      35.396  13.107   8.663  0.00  0.00     0.167 HD
ENDBRANCH  19  21
ENDBRANCH   1  19
BRANCH   1  23
HETATM   23  N   UNK N   1      32.265  16.098   8.710  0.00  0.00    -0.329 N 
HETATM   24  C   UNK N   1      32.219  17.416   8.366  0.00  0.00     0.317 C 
HETATM   25  O   UNK N   1      33.251  18.060   8.244  0.00  0.00    -0.247 OA
HETATM   26  N   UNK N   1      31.034  18.035   8.171  0.00  0.00    -0.329 N 
HETATM   27  H   UNK N   1      31.033  18.970   7.866  0.00  0.00     0.165 HD
HETATM   28  H   UNK N   1      31.421  15.590   8.726  0.00  0.00     0.165 HD
BRANCH  26  29
HETATM   29  C   UNK N   1      29.770  17.376   8.396  0.00  0.00     0.184 C 
BRANCH  29  30
HETATM   30  C   UNK N   1      28.998  17.185   7.088  0.00  0.00     0.046 C 
BRANCH  30  31
HETATM   31  C   UNK N   1      29.876  17.262   5.841  0.00  0.00     0.112 C 
BRANCH  31  32
HETATM   32  C   UNK N   1      29.094  17.699   4.647  0.00  0.00     0.139 C 
HETATM   33  O   UNK N   1      28.727  16.883   3.819  0.00  0.00    -0.650 OA
BRANCH  32  34
HETATM   34  O   UNK N   1      28.765  18.995   4.502  0.00  0.00    -0.776 OA
HETATM   35  H   UNK N   1      29.328  19.575   4.027  0.00  0.00     0.167 HD
ENDBRANCH  32  34
ENDBRANCH  31  32
ENDBRANCH  30  31
ENDBRANCH  29  30
BRANCH  29  36
HETATM   36  C   UNK N   1      28.989  18.133   9.429  0.00  0.00     0.163 C 
HETATM   37  O   UNK N   1      29.562  18.789  10.283  0.00  0.00    -0.648 OA
BRANCH  36  38
HETATM   38  O   UNK N   1      27.646  18.051   9.439  0.00  0.00    -0.775 OA
HETATM   39  H   UNK N   1      26.903  17.555   9.158  0.00  0.00     0.167 HD
ENDBRANCH  36  38
ENDBRANCH  29  36
ENDBRANCH  26  29
ENDBRANCH   1  23
TORSDOF 16
ENDMDL
MODEL 8
REMARK VINA RESULT:      -6.6      8.021     12.217
REMARK  16 active torsions:
REMARK  status: ('A' for Active; 'I' for Inactive)
REMARK    1  A    between atoms: C_6  and  N_7 
REMARK       I    between atoms: N_7  and  C_8 
REMARK       I    between atoms: C_8  and  N_10 
REMARK    2  A    between atoms: N_10  and  C_11 
REMARK    3  A    between atoms: C_11  and  C_12 
REMARK    4  A    between atoms: C_12  and  C_13 
REMARK    5  A    between atoms: C_13  and  C_14 
REMARK    6  A    between atoms: C_14  and  C_15 
REMARK    7  A    between atoms: C_15  and  C_16 
REMARK    8  A    between atoms: C_15  and  N_19 
REMARK    9  A    between atoms: C_16  and  O_18 
REMARK       I    between atoms: N_19  and  C_20 
REMARK       I    between atoms: C_20  and  N_22 
REMARK   10  A    between atoms: C_23  and  N_22 
REMARK   11  A    between atoms: C_23  and  C_24 
REMARK   12  A    between atoms: C_23  and  C_29 
REMARK   13  A    between atoms: C_24  and  C_25 
REMARK   14  A    between atoms: C_25  and  C_26 
REMARK   15  A    between atoms: C_26  and  O_28 
REMARK   16  A    between atoms: C_29  and  O_31 
ROOT
HETATM    1  C   UNK N   1      33.864  15.669   7.745  0.00  0.00     0.184 C 
ENDROOT
BRANCH   1   2
HETATM    2  C   UNK N   1      33.841  14.315   8.480  0.00  0.00     0.036 C 
BRANCH   2   3
HETATM    3  C   UNK N   1      34.794  14.231   9.669  0.00  0.00     0.004 C 
BRANCH   3   4
HETATM    4  C   UNK N   1      34.492  15.240  10.777  0.00  0.00     0.020 C 
BRANCH   4   5
HETATM    5  C   UNK N   1      35.695  15.578  11.660  0.00  0.00     0.124 C 
BRANCH   5   6
HETATM    6  N   UNK N   1      36.585  14.450  11.811  0.00  0.00    -0.343 N 
HETATM    7  C   UNK N   1      36.433  13.482  12.745  0.00  0.00     0.320 C 
HETATM    8  N   UNK N   1      35.440  13.568  13.676  0.00  0.00    -0.309 N 
HETATM    9  O   UNK N   1      37.224  12.552  12.758  0.00  0.00    -0.247 OA
HETATM   10  H   UNK N   1      34.837  14.345  13.627  0.00  0.00     0.170 HD
HETATM   11  H   UNK N   1      37.351  14.381  11.196  0.00  0.00     0.164 HD
BRANCH   8  12
HETATM   12  C   UNK N   1      35.208  12.619  14.715  0.00  0.00     0.036 A 
HETATM   13  C   UNK N   1      34.471  11.442  14.495  0.00  0.00     0.031 A 
HETATM   14  C   UNK N   1      34.323  10.497  15.512  0.00  0.00     0.020 A 
HETATM   15  C   UNK N   1      34.915  10.718  16.757  0.00  0.00     0.006 A 
HETATM   16  C   UNK N   1      35.633  11.893  16.992  0.00  0.00     0.020 A 
HETATM   17  I   UNK N   1      34.761   9.254  18.260  0.00  0.00    -0.045 I 
HETATM   18  C   UNK N   1      35.773  12.843  15.975  0.00  0.00     0.031 A 
ENDBRANCH   8  12
ENDBRANCH   5   6
ENDBRANCH   4   5
ENDBRANCH   3   4
ENDBRANCH   2   3
ENDBRANCH   1   2
BRANCH   1  19
HETATM   19  C   UNK N   1      34.214  15.605   6.276  0.00  0.00     0.163 C 
HETATM   20  O   UNK N   1      35.371  15.782   5.929  0.00  0.00    -0.648 OA
BRANCH  19  21
HETATM   21  O   UNK N   1      33.274  15.353   5.345  0.00  0.00    -0.775 OA
HETATM   22  H   UNK N   1      32.495  15.664   4.928  0.00  0.00     0.167 HD
ENDBRANCH  19  21
ENDBRANCH   1  19
BRANCH   1  23
HETATM   23  N   UNK N   1      32.597  16.358   7.899  0.00  0.00    -0.329 N 
HETATM   24  C   UNK N   1      32.491  17.639   8.351  0.00  0.00     0.317 C 
HETATM   25  O   UNK N   1      33.493  18.305   8.565  0.00  0.00    -0.247 OA
HETATM   26  N   UNK N   1      31.278  18.186   8.586  0.00  0.00    -0.329 N 
HETATM   27  H   UNK N   1      31.230  19.131   8.855  0.00  0.00     0.165 HD
HETATM   28  H   UNK N   1      31.771  15.875   7.664  0.00  0.00     0.165 HD
BRANCH  26  29
HETATM   29  C   UNK N   1      30.052  17.436   8.460  0.00  0.00     0.184 C 
BRANCH  29  30
HETATM   30  C   UNK N   1      29.323  17.771   7.155  0.00  0.00     0.046 C 
BRANCH  30  31
HETATM   31  C   UNK N   1      29.368  16.648   6.122  0.00  0.00     0.112 C 
BRANCH  31  32
HETATM   32  C   UNK N   1      30.186  17.030   4.934  0.00  0.00     0.139 C 
HETATM   33  O   UNK N   1      29.713  16.961   3.812  0.00  0.00    -0.650 OA
BRANCH  32  34
HETATM   34  O   UNK N   1      31.440  17.485   5.105  0.00  0.00    -0.776 OA
HETATM   35  H   UNK N   1      31.592  18.297   5.548  0.00  0.00     0.167 HD
ENDBRANCH  32  34
ENDBRANCH  31  32
ENDBRANCH  30  31
ENDBRANCH  29  30
BRANCH  29  36
HETATM   36  C   UNK N   1      29.203  17.658   9.676  0.00  0.00     0.163 C 
HETATM   37  O   UNK N   1      28.127  17.094   9.795  0.00  0.00    -0.648 OA
BRANCH  36  38
HETATM   38  O   UNK N   1      29.612  18.521  10.624  0.00  0.00    -0.775 OA
HETATM   39  H   UNK N   1      30.295  18.734  11.228  0.00  0.00     0.167 HD
ENDBRANCH  36  38
ENDBRANCH  29  36
ENDBRANCH  26  29
ENDBRANCH   1  23
TORSDOF 16
ENDMDL
MODEL 9
REMARK VINA RESULT:      -6.5      2.327      3.812
REMARK  16 active torsions:
REMARK  status: ('A' for Active; 'I' for Inactive)
REMARK    1  A    between atoms: C_6  and  N_7 
REMARK       I    between atoms: N_7  and  C_8 
REMARK       I    between atoms: C_8  and  N_10 
REMARK    2  A    between atoms: N_10  and  C_11 
REMARK    3  A    between atoms: C_11  and  C_12 
REMARK    4  A    between atoms: C_12  and  C_13 
REMARK    5  A    between atoms: C_13  and  C_14 
REMARK    6  A    between atoms: C_14  and  C_15 
REMARK    7  A    between atoms: C_15  and  C_16 
REMARK    8  A    between atoms: C_15  and  N_19 
REMARK    9  A    between atoms: C_16  and  O_18 
REMARK       I    between atoms: N_19  and  C_20 
REMARK       I    between atoms: C_20  and  N_22 
REMARK   10  A    between atoms: C_23  and  N_22 
REMARK   11  A    between atoms: C_23  and  C_24 
REMARK   12  A    between atoms: C_23  and  C_29 
REMARK   13  A    between atoms: C_24  and  C_25 
REMARK   14  A    between atoms: C_25  and  C_26 
REMARK   15  A    between atoms: C_26  and  O_28 
REMARK   16  A    between atoms: C_29  and  O_31 
ROOT
HETATM    1  C   UNK N   1      24.664  18.510   4.095  0.00  0.00     0.184 C 
ENDROOT
BRANCH   1   2
HETATM    2  C   UNK N   1      25.537  17.379   3.517  0.00  0.00     0.036 C 
BRANCH   2   3
HETATM    3  C   UNK N   1      26.663  16.922   4.441  0.00  0.00     0.004 C 
BRANCH   3   4
HETATM    4  C   UNK N   1      28.054  17.023   3.817  0.00  0.00     0.020 C 
BRANCH   4   5
HETATM    5  C   UNK N   1      29.038  17.879   4.617  0.00  0.00     0.124 C 
BRANCH   5   6
HETATM    6  N   UNK N   1      30.409  17.608   4.252  0.00  0.00    -0.343 N 
HETATM    7  C   UNK N   1      31.378  17.271   5.135  0.00  0.00     0.320 C 
HETATM    8  N   UNK N   1      31.117  17.248   6.474  0.00  0.00    -0.309 N 
HETATM    9  O   UNK N   1      32.496  17.024   4.712  0.00  0.00    -0.247 OA
HETATM   10  H   UNK N   1      30.201  17.466   6.762  0.00  0.00     0.170 HD
HETATM   11  H   UNK N   1      30.655  17.671   3.300  0.00  0.00     0.164 HD
BRANCH   8  12
HETATM   12  C   UNK N   1      32.069  16.932   7.488  0.00  0.00     0.036 A 
HETATM   13  C   UNK N   1      32.107  15.669   8.104  0.00  0.00     0.031 A 
HETATM   14  C   UNK N   1      33.097  15.366   9.041  0.00  0.00     0.020 A 
HETATM   15  C   UNK N   1      34.061  16.321   9.366  0.00  0.00     0.006 A 
HETATM   16  C   UNK N   1      34.021  17.586   8.774  0.00  0.00     0.020 A 
HETATM   17  I   UNK N   1      35.600  15.833  10.714  0.00  0.00    -0.045 I 
HETATM   18  C   UNK N   1      33.023  17.891   7.842  0.00  0.00     0.031 A 
ENDBRANCH   8  12
ENDBRANCH   5   6
ENDBRANCH   4   5
ENDBRANCH   3   4
ENDBRANCH   2   3
ENDBRANCH   1   2
BRANCH   1  19
HETATM   19  C   UNK N   1      25.082  19.912   3.718  0.00  0.00     0.163 C 
HETATM   20  O   UNK N   1      25.676  20.599   4.533  0.00  0.00    -0.648 OA
BRANCH  19  21
HETATM   21  O   UNK N   1      24.815  20.414   2.497  0.00  0.00    -0.775 OA
HETATM   22  H   UNK N   1      25.040  20.401   1.588  0.00  0.00     0.167 HD
ENDBRANCH  19  21
ENDBRANCH   1  19
BRANCH   1  23
HETATM   23  N   UNK N   1      23.272  18.318   3.735  0.00  0.00    -0.329 N 
HETATM   24  C   UNK N   1      22.340  17.812   4.590  0.00  0.00     0.317 C 
HETATM   25  O   UNK N   1      22.630  17.576   5.754  0.00  0.00    -0.247 OA
HETATM   26  N   UNK N   1      21.087  17.545   4.160  0.00  0.00    -0.329 N 
HETATM   27  H   UNK N   1      20.418  17.237   4.813  0.00  0.00     0.165 HD
HETATM   28  H   UNK N   1      22.986  18.567   2.825  0.00  0.00     0.165 HD
BRANCH  26  29
HETATM   29  C   UNK N   1      20.692  17.696   2.780  0.00  0.00     0.184 C 
BRANCH  29  30
HETATM   30  C   UNK N   1      19.575  18.731   2.627  0.00  0.00     0.046 C 
BRANCH  30  31
HETATM   31  C   UNK N   1      20.078  20.172   2.569  0.00  0.00     0.112 C 
BRANCH  31  32
HETATM   32  C   UNK N   1      21.069  20.361   1.469  0.00  0.00     0.139 C 
HETATM   33  O   UNK N   1      22.212  20.703   1.722  0.00  0.00    -0.650 OA
BRANCH  32  34
HETATM   34  O   UNK N   1      20.709  20.119   0.196  0.00  0.00    -0.776 OA
HETATM   35  H   UNK N   1      19.807  19.988  -0.023  0.00  0.00     0.167 HD
ENDBRANCH  32  34
ENDBRANCH  31  32
ENDBRANCH  30  31
ENDBRANCH  29  30
BRANCH  29  36
HETATM   36  C   UNK N   1      20.326  16.355   2.217  0.00  0.00     0.163 C 
HETATM   37  O   UNK N   1      20.780  15.986   1.145  0.00  0.00    -0.648 OA
BRANCH  36  38
HETATM   38  O   UNK N   1      19.456  15.571   2.878  0.00  0.00    -0.775 OA
HETATM   39  H   UNK N   1      19.336  14.749   3.312  0.00  0.00     0.167 HD
ENDBRANCH  36  38
ENDBRANCH  29  36
ENDBRANCH  26  29
ENDBRANCH   1  23
TORSDOF 16
ENDMDL
