MODEL 1
REMARK VINA RESULT:      -4.6      0.000      0.000
REMARK  10 active torsions:
REMARK  status: ('A' for Active; 'I' for Inactive)
REMARK    1  A    between atoms: C_3  and  C_1 
REMARK    2  A    between atoms: C_4  and  C_2 
REMARK    3  A    between atoms: O_8  and  C_2 
REMARK    4  A    between atoms: C_5  and  C_3 
REMARK    5  A    between atoms: C_3  and  O_9 
REMARK    6  A    between atoms: C_6  and  C_4 
REMARK    7  A    between atoms: C_4  and  O_10 
REMARK    8  A    between atoms: C_6  and  C_5 
REMARK    9  A    between atoms: C_5  and  O_11 
REMARK   10  A    between atoms: C_6  and  O_12 
ROOT
HETATM    1  C   UNK N   1      34.651  15.151  10.491  0.00  0.00     0.180 C 
ENDROOT
BRANCH   1   2
HETATM    2  C   UNK N   1      35.649  14.770  11.612  0.00  0.00     0.173 C 
BRANCH   2   3
HETATM    3  C   UNK N   1      35.470  13.316  12.054  0.00  0.00     0.198 C 
BRANCH   3   4
HETATM    4  O   UNK N   1      34.406  13.180  12.948  0.00  0.00    -0.398 OA
HETATM    5  H   UNK N   1      33.674  12.577  12.744  0.00  0.00     0.209 HD
ENDBRANCH   3   4
ENDBRANCH   2   3
BRANCH   2   6
HETATM    6  O   UNK N   1      36.960  14.906  11.153  0.00  0.00    -0.391 OA
HETATM    7  H   UNK N   1      37.689  15.008  11.784  0.00  0.00     0.210 HD
ENDBRANCH   2   6
ENDBRANCH   1   2
BRANCH   1   8
HETATM    8  C   UNK N   1      35.002  16.448   9.715  0.00  0.00     0.184 C 
BRANCH   8   9
HETATM    9  C   UNK N   1      33.810  17.120   8.991  0.00  0.00     0.210 C 
BRANCH   9  10
HETATM   10  C   UNK N   1      34.278  18.175   8.031  0.00  0.00     0.265 C 
HETATM   11  O   UNK N   1      35.024  19.073   8.397  0.00  0.00    -0.304 OA
ENDBRANCH   9  10
BRANCH   9  12
HETATM   12  O   UNK N   1      33.095  16.169   8.258  0.00  0.00    -0.386 OA
HETATM   13  H   UNK N   1      33.556  15.412   7.864  0.00  0.00     0.210 HD
ENDBRANCH   9  12
ENDBRANCH   8   9
BRANCH   8  14
HETATM   14  O   UNK N   1      35.601  17.364  10.588  0.00  0.00    -0.390 OA
HETATM   15  H   UNK N   1      36.381  17.105  11.103  0.00  0.00     0.210 HD
ENDBRANCH   8  14
ENDBRANCH   1   8
BRANCH   1  16
HETATM   16  O   UNK N   1      33.361  15.264  11.020  0.00  0.00    -0.390 OA
HETATM   17  H   UNK N   1      33.188  15.012  11.940  0.00  0.00     0.210 HD
ENDBRANCH   1  16
TORSDOF 10
ENDMDL
MODEL 2
REMARK VINA RESULT:      -4.5      0.198      4.995
REMARK  10 active torsions:
REMARK  status: ('A' for Active; 'I' for Inactive)
REMARK    1  A    between atoms: C_3  and  C_1 
REMARK    2  A    between atoms: C_4  and  C_2 
REMARK    3  A    between atoms: O_8  and  C_2 
REMARK    4  A    between atoms: C_5  and  C_3 
REMARK    5  A    between atoms: C_3  and  O_9 
REMARK    6  A    between atoms: C_6  and  C_4 
REMARK    7  A    between atoms: C_4  and  O_10 
REMARK    8  A    between atoms: C_6  and  C_5 
REMARK    9  A    between atoms: C_5  and  O_11 
REMARK   10  A    between atoms: C_6  and  O_12 
ROOT
HETATM    1  C   UNK N   1      35.036  16.428   9.720  0.00  0.00     0.180 C 
ENDROOT
BRANCH   1   2
HETATM    2  C   UNK N   1      33.816  17.068   9.013  0.00  0.00     0.173 C 
BRANCH   2   3
HETATM    3  C   UNK N   1      34.249  18.028   7.903  0.00  0.00     0.198 C 
BRANCH   3   4
HETATM    4  O   UNK N   1      35.008  19.085   8.409  0.00  0.00    -0.398 OA
HETATM    5  H   UNK N   1      35.079  19.915   7.912  0.00  0.00     0.209 HD
ENDBRANCH   3   4
ENDBRANCH   2   3
BRANCH   2   6
HETATM    6  O   UNK N   1      33.030  16.077   8.421  0.00  0.00    -0.391 OA
HETATM    7  H   UNK N   1      32.868  16.090   7.466  0.00  0.00     0.210 HD
ENDBRANCH   2   6
ENDBRANCH   1   2
BRANCH   1   8
HETATM    8  C   UNK N   1      34.716  15.162  10.560  0.00  0.00     0.184 C 
BRANCH   8   9
HETATM    9  C   UNK N   1      35.718  14.865  11.702  0.00  0.00     0.210 C 
BRANCH   9  10
HETATM   10  C   UNK N   1      35.433  13.540  12.348  0.00  0.00     0.265 C 
HETATM   11  O   UNK N   1      34.600  13.440  13.239  0.00  0.00    -0.304 OA
ENDBRANCH   9  10
BRANCH   9  12
HETATM   12  O   UNK N   1      37.020  14.819  11.199  0.00  0.00    -0.386 OA
HETATM   13  H   UNK N   1      37.214  14.306  10.398  0.00  0.00     0.210 HD
ENDBRANCH   9  12
ENDBRANCH   8   9
BRANCH   8  14
HETATM   14  O   UNK N   1      33.422  15.266  11.082  0.00  0.00    -0.390 OA
HETATM   15  H   UNK N   1      33.169  14.745  11.861  0.00  0.00     0.210 HD
ENDBRANCH   8  14
ENDBRANCH   1   8
BRANCH   1  16
HETATM   16  O   UNK N   1      35.666  17.374  10.534  0.00  0.00    -0.390 OA
HETATM   17  H   UNK N   1      36.260  17.087  11.245  0.00  0.00     0.210 HD
ENDBRANCH   1  16
TORSDOF 10
ENDMDL
MODEL 3
REMARK VINA RESULT:      -4.4     16.018     17.309
REMARK  10 active torsions:
REMARK  status: ('A' for Active; 'I' for Inactive)
REMARK    1  A    between atoms: C_3  and  C_1 
REMARK    2  A    between atoms: C_4  and  C_2 
REMARK    3  A    between atoms: O_8  and  C_2 
REMARK    4  A    between atoms: C_5  and  C_3 
REMARK    5  A    between atoms: C_3  and  O_9 
REMARK    6  A    between atoms: C_6  and  C_4 
REMARK    7  A    between atoms: C_4  and  O_10 
REMARK    8  A    between atoms: C_6  and  C_5 
REMARK    9  A    between atoms: C_5  and  O_11 
REMARK   10  A    between atoms: C_6  and  O_12 
ROOT
HETATM    1  C   UNK N   1      21.018  19.390   2.985  0.00  0.00     0.180 C 
ENDROOT
BRANCH   1   2
HETATM    2  C   UNK N   1      21.601  20.523   2.106  0.00  0.00     0.173 C 
BRANCH   2   3
HETATM    3  C   UNK N   1      20.537  21.120   1.181  0.00  0.00     0.198 C 
BRANCH   3   4
HETATM    4  O   UNK N   1      20.800  20.825  -0.158  0.00  0.00    -0.398 OA
HETATM    5  H   UNK N   1      20.095  20.478  -0.727  0.00  0.00     0.209 HD
ENDBRANCH   3   4
ENDBRANCH   2   3
BRANCH   2   6
HETATM    6  O   UNK N   1      22.078  21.558   2.912  0.00  0.00    -0.391 OA
HETATM    7  H   UNK N   1      21.806  22.473   2.742  0.00  0.00     0.210 HD
ENDBRANCH   2   6
ENDBRANCH   1   2
BRANCH   1   8
HETATM    8  C   UNK N   1      19.954  18.500   2.288  0.00  0.00     0.184 C 
BRANCH   8   9
HETATM    9  C   UNK N   1      20.525  17.440   1.315  0.00  0.00     0.210 C 
BRANCH   9  10
HETATM   10  C   UNK N   1      19.894  16.096   1.540  0.00  0.00     0.265 C 
HETATM   11  O   UNK N   1      20.159  15.147   0.814  0.00  0.00    -0.304 OA
ENDBRANCH   9  10
BRANCH   9  12
HETATM   12  O   UNK N   1      20.267  17.812  -0.007  0.00  0.00    -0.386 OA
HETATM   13  H   UNK N   1      20.887  17.562  -0.711  0.00  0.00     0.210 HD
ENDBRANCH   9  12
ENDBRANCH   8   9
BRANCH   8  14
HETATM   14  O   UNK N   1      19.165  17.873   3.259  0.00  0.00    -0.390 OA
HETATM   15  H   UNK N   1      18.543  18.394   3.790  0.00  0.00     0.210 HD
ENDBRANCH   8  14
ENDBRANCH   1   8
BRANCH   1  16
HETATM   16  O   UNK N   1      20.475  19.927   4.156  0.00  0.00    -0.390 OA
HETATM   17  H   UNK N   1      20.435  20.888   4.279  0.00  0.00     0.210 HD
ENDBRANCH   1  16
TORSDOF 10
ENDMDL
MODEL 4
REMARK VINA RESULT:      -4.3      1.532      5.482
REMARK  10 active torsions:
REMARK  status: ('A' for Active; 'I' for Inactive)
REMARK    1  A    between atoms: C_3  and  C_1 
REMARK    2  A    between atoms: C_4  and  C_2 
REMARK    3  A    between atoms: O_8  and  C_2 
REMARK    4  A    between atoms: C_5  and  C_3 
REMARK    5  A    between atoms: C_3  and  O_9 
REMARK    6  A    between atoms: C_6  and  C_4 
REMARK    7  A    between atoms: C_4  and  O_10 
REMARK    8  A    between atoms: C_6  and  C_5 
REMARK    9  A    between atoms: C_5  and  O_11 
REMARK   10  A    between atoms: C_6  and  O_12 
ROOT
HETATM    1  C   UNK N   1      35.716  14.322  11.093  0.00  0.00     0.180 C 
ENDROOT
BRANCH   1   2
HETATM    2  C   UNK N   1      34.681  15.472  11.153  0.00  0.00     0.173 C 
BRANCH   2   3
HETATM    3  C   UNK N   1      34.802  16.401   9.943  0.00  0.00     0.198 C 
BRANCH   3   4
HETATM    4  O   UNK N   1      35.638  17.486  10.214  0.00  0.00    -0.398 OA
HETATM    5  H   UNK N   1      35.417  18.104  10.929  0.00  0.00     0.209 HD
ENDBRANCH   3   4
ENDBRANCH   2   3
BRANCH   2   6
HETATM    6  O   UNK N   1      33.385  14.952  11.148  0.00  0.00    -0.391 OA
HETATM    7  H   UNK N   1      32.927  14.793  10.309  0.00  0.00     0.210 HD
ENDBRANCH   2   6
ENDBRANCH   1   2
BRANCH   1   8
HETATM    8  C   UNK N   1      35.651  13.320  12.278  0.00  0.00     0.184 C 
BRANCH   8   9
HETATM    9  C   UNK N   1      35.696  13.967  13.683  0.00  0.00     0.210 C 
BRANCH   9  10
HETATM   10  C   UNK N   1      35.380  12.964  14.756  0.00  0.00     0.265 C 
HETATM   11  O   UNK N   1      34.222  12.685  15.035  0.00  0.00    -0.304 OA
ENDBRANCH   9  10
BRANCH   9  12
HETATM   12  O   UNK N   1      36.972  14.472  13.940  0.00  0.00    -0.386 OA
HETATM   13  H   UNK N   1      37.420  14.260  14.775  0.00  0.00     0.210 HD
ENDBRANCH   9  12
ENDBRANCH   8   9
BRANCH   8  14
HETATM   14  O   UNK N   1      34.501  12.532  12.157  0.00  0.00    -0.390 OA
HETATM   15  H   UNK N   1      34.072  12.175  12.950  0.00  0.00     0.210 HD
ENDBRANCH   8  14
ENDBRANCH   1   8
BRANCH   1  16
HETATM   16  O   UNK N   1      37.008  14.848  11.004  0.00  0.00    -0.390 OA
HETATM   17  H   UNK N   1      37.633  14.497  10.350  0.00  0.00     0.210 HD
ENDBRANCH   1  16
TORSDOF 10
ENDMDL
MODEL 5
REMARK VINA RESULT:      -4.3      1.495      3.050
REMARK  10 active torsions:
REMARK  status: ('A' for Active; 'I' for Inactive)
REMARK    1  A    between atoms: C_3  and  C_1 
REMARK    2  A    between atoms: C_4  and  C_2 
REMARK    3  A    between atoms: O_8  and  C_2 
REMARK    4  A    between atoms: C_5  and  C_3 
REMARK    5  A    between atoms: C_3  and  O_9 
REMARK    6  A    between atoms: C_6  and  C_4 
REMARK    7  A    between atoms: C_4  and  O_10 
REMARK    8  A    between atoms: C_6  and  C_5 
REMARK    9  A    between atoms: C_5  and  O_11 
REMARK   10  A    between atoms: C_6  and  O_12 
ROOT
HETATM    1  C   UNK N   1      35.263  13.185  11.781  0.00  0.00     0.180 C 
ENDROOT
BRANCH   1   2
HETATM    2  C   UNK N   1      36.620  12.829  12.436  0.00  0.00     0.173 C 
BRANCH   2   3
HETATM    3  C   UNK N   1      37.644  12.373  11.395  0.00  0.00     0.198 C 
BRANCH   3   4
HETATM    4  O   UNK N   1      38.568  13.380  11.111  0.00  0.00    -0.398 OA
HETATM    5  H   UNK N   1      39.066  13.363  10.278  0.00  0.00     0.209 HD
ENDBRANCH   3   4
ENDBRANCH   2   3
BRANCH   2   6
HETATM    6  O   UNK N   1      37.152  13.950  13.077  0.00  0.00    -0.391 OA
HETATM    7  H   UNK N   1      37.597  13.856  13.933  0.00  0.00     0.210 HD
ENDBRANCH   2   6
ENDBRANCH   1   2
BRANCH   1   8
HETATM    8  C   UNK N   1      35.031  14.701  11.538  0.00  0.00     0.184 C 
BRANCH   8   9
HETATM    9  C   UNK N   1      35.824  15.303  10.354  0.00  0.00     0.210 C 
BRANCH   9  10
HETATM   10  C   UNK N   1      34.999  16.299   9.592  0.00  0.00     0.265 C 
HETATM   11  O   UNK N   1      34.866  17.446   9.997  0.00  0.00    -0.304 OA
ENDBRANCH   9  10
BRANCH   9  12
HETATM   12  O   UNK N   1      36.961  15.966  10.823  0.00  0.00    -0.386 OA
HETATM   13  H   UNK N   1      36.869  16.705  11.446  0.00  0.00     0.210 HD
ENDBRANCH   9  12
ENDBRANCH   8   9
BRANCH   8  14
HETATM   14  O   UNK N   1      33.663  14.937  11.359  0.00  0.00    -0.390 OA
HETATM   15  H   UNK N   1      33.153  15.390  12.049  0.00  0.00     0.210 HD
ENDBRANCH   8  14
ENDBRANCH   1   8
BRANCH   1  16
HETATM   16  O   UNK N   1      34.214  12.675  12.552  0.00  0.00    -0.390 OA
HETATM   17  H   UNK N   1      33.342  13.101  12.531  0.00  0.00     0.210 HD
ENDBRANCH   1  16
TORSDOF 10
ENDMDL
MODEL 6
REMARK VINA RESULT:      -4.3      1.638      2.896
REMARK  10 active torsions:
REMARK  status: ('A' for Active; 'I' for Inactive)
REMARK    1  A    between atoms: C_3  and  C_1 
REMARK    2  A    between atoms: C_4  and  C_2 
REMARK    3  A    between atoms: O_8  and  C_2 
REMARK    4  A    between atoms: C_5  and  C_3 
REMARK    5  A    between atoms: C_3  and  O_9 
REMARK    6  A    between atoms: C_6  and  C_4 
REMARK    7  A    between atoms: C_4  and  O_10 
REMARK    8  A    between atoms: C_6  and  C_5 
REMARK    9  A    between atoms: C_5  and  O_11 
REMARK   10  A    between atoms: C_6  and  O_12 
ROOT
HETATM    1  C   UNK N   1      35.340  13.761  12.421  0.00  0.00     0.180 C 
ENDROOT
BRANCH   1   2
HETATM    2  C   UNK N   1      35.791  13.981  13.886  0.00  0.00     0.173 C 
BRANCH   2   3
HETATM    3  C   UNK N   1      35.418  12.792  14.774  0.00  0.00     0.198 C 
BRANCH   3   4
HETATM    4  O   UNK N   1      34.186  12.988  15.399  0.00  0.00    -0.398 OA
HETATM    5  H   UNK N   1      34.089  12.815  16.349  0.00  0.00     0.209 HD
ENDBRANCH   3   4
ENDBRANCH   2   3
BRANCH   2   6
HETATM    6  O   UNK N   1      37.179  14.122  13.944  0.00  0.00    -0.391 OA
HETATM    7  H   UNK N   1      37.742  13.349  14.102  0.00  0.00     0.210 HD
ENDBRANCH   2   6
ENDBRANCH   1   2
BRANCH   1   8
HETATM    8  C   UNK N   1      34.924  15.050  11.663  0.00  0.00     0.184 C 
BRANCH   8   9
HETATM    9  C   UNK N   1      35.804  15.402  10.440  0.00  0.00     0.210 C 
BRANCH   9  10
HETATM   10  C   UNK N   1      35.066  16.279   9.470  0.00  0.00     0.265 C 
HETATM   11  O   UNK N   1      34.686  17.396   9.795  0.00  0.00    -0.304 OA
ENDBRANCH   9  10
BRANCH   9  12
HETATM   12  O   UNK N   1      36.945  16.095  10.853  0.00  0.00    -0.386 OA
HETATM   13  H   UNK N   1      36.997  17.057  10.738  0.00  0.00     0.210 HD
ENDBRANCH   9  12
ENDBRANCH   8   9
BRANCH   8  14
HETATM   14  O   UNK N   1      33.585  14.942  11.266  0.00  0.00    -0.390 OA
HETATM   15  H   UNK N   1      33.268  14.129  10.844  0.00  0.00     0.210 HD
ENDBRANCH   8  14
ENDBRANCH   1   8
BRANCH   1  16
HETATM   16  O   UNK N   1      34.288  12.840  12.380  0.00  0.00    -0.390 OA
HETATM   17  H   UNK N   1      33.369  13.149  12.417  0.00  0.00     0.210 HD
ENDBRANCH   1  16
TORSDOF 10
ENDMDL
MODEL 7
REMARK VINA RESULT:      -4.2      1.767      5.391
REMARK  10 active torsions:
REMARK  status: ('A' for Active; 'I' for Inactive)
REMARK    1  A    between atoms: C_3  and  C_1 
REMARK    2  A    between atoms: C_4  and  C_2 
REMARK    3  A    between atoms: O_8  and  C_2 
REMARK    4  A    between atoms: C_5  and  C_3 
REMARK    5  A    between atoms: C_3  and  O_9 
REMARK    6  A    between atoms: C_6  and  C_4 
REMARK    7  A    between atoms: C_4  and  O_10 
REMARK    8  A    between atoms: C_6  and  C_5 
REMARK    9  A    between atoms: C_5  and  O_11 
REMARK   10  A    between atoms: C_6  and  O_12 
ROOT
HETATM    1  C   UNK N   1      35.402  14.893  11.980  0.00  0.00     0.180 C 
ENDROOT
BRANCH   1   2
HETATM    2  C   UNK N   1      36.062  15.233  10.621  0.00  0.00     0.173 C 
BRANCH   2   3
HETATM    3  C   UNK N   1      35.087  15.949   9.685  0.00  0.00     0.198 C 
BRANCH   3   4
HETATM    4  O   UNK N   1      34.523  17.071  10.296  0.00  0.00    -0.398 OA
HETATM    5  H   UNK N   1      34.567  17.936   9.860  0.00  0.00     0.209 HD
ENDBRANCH   3   4
ENDBRANCH   2   3
BRANCH   2   6
HETATM    6  O   UNK N   1      37.151  16.086  10.818  0.00  0.00    -0.391 OA
HETATM    7  H   UNK N   1      37.221  16.910  10.312  0.00  0.00     0.210 HD
ENDBRANCH   2   6
ENDBRANCH   1   2
BRANCH   1   8
HETATM    8  C   UNK N   1      36.236  13.959  12.898  0.00  0.00     0.184 C 
BRANCH   8   9
HETATM    9  C   UNK N   1      35.467  12.738  13.458  0.00  0.00     0.210 C 
BRANCH   9  10
HETATM   10  C   UNK N   1      36.398  11.762  14.119  0.00  0.00     0.265 C 
HETATM   11  O   UNK N   1      37.351  12.151  14.781  0.00  0.00    -0.304 OA
ENDBRANCH   9  10
BRANCH   9  12
HETATM   12  O   UNK N   1      34.539  13.151  14.416  0.00  0.00    -0.386 OA
HETATM   13  H   UNK N   1      33.715  13.582  14.139  0.00  0.00     0.210 HD
ENDBRANCH   9  12
ENDBRANCH   8   9
BRANCH   8  14
HETATM   14  O   UNK N   1      37.374  13.525  12.208  0.00  0.00    -0.390 OA
HETATM   15  H   UNK N   1      37.730  14.055  11.478  0.00  0.00     0.210 HD
ENDBRANCH   8  14
ENDBRANCH   1   8
BRANCH   1  16
HETATM   16  O   UNK N   1      34.141  14.327  11.769  0.00  0.00    -0.390 OA
HETATM   17  H   UNK N   1      34.052  13.369  11.644  0.00  0.00     0.210 HD
ENDBRANCH   1  16
TORSDOF 10
ENDMDL
MODEL 8
REMARK VINA RESULT:      -4.1      2.088      5.329
REMARK  10 active torsions:
REMARK  status: ('A' for Active; 'I' for Inactive)
REMARK    1  A    between atoms: C_3  and  C_1 
REMARK    2  A    between atoms: C_4  and  C_2 
REMARK    3  A    between atoms: O_8  and  C_2 
REMARK    4  A    between atoms: C_5  and  C_3 
REMARK    5  A    between atoms: C_3  and  O_9 
REMARK    6  A    between atoms: C_6  and  C_4 
REMARK    7  A    between atoms: C_4  and  O_10 
REMARK    8  A    between atoms: C_6  and  C_5 
REMARK    9  A    between atoms: C_5  and  O_11 
REMARK   10  A    between atoms: C_6  and  O_12 
ROOT
HETATM    1  C   UNK N   1      36.449  13.862  11.400  0.00  0.00     0.180 C 
ENDROOT
BRANCH   1   2
HETATM    2  C   UNK N   1      36.253  15.100  10.491  0.00  0.00     0.173 C 
BRANCH   2   3
HETATM    3  C   UNK N   1      34.846  15.684  10.631  0.00  0.00     0.198 C 
BRANCH   3   4
HETATM    4  O   UNK N   1      34.880  17.073  10.766  0.00  0.00    -0.398 OA
HETATM    5  H   UNK N   1      35.449  17.604  10.186  0.00  0.00     0.209 HD
ENDBRANCH   3   4
ENDBRANCH   2   3
BRANCH   2   6
HETATM    6  O   UNK N   1      37.156  16.104  10.847  0.00  0.00    -0.391 OA
HETATM    7  H   UNK N   1      38.111  15.948  10.779  0.00  0.00     0.210 HD
ENDBRANCH   2   6
ENDBRANCH   1   2
BRANCH   1   8
HETATM    8  C   UNK N   1      35.853  13.997  12.827  0.00  0.00     0.184 C 
BRANCH   8   9
HETATM    9  C   UNK N   1      35.492  12.658  13.514  0.00  0.00     0.210 C 
BRANCH   9  10
HETATM   10  C   UNK N   1      35.456  12.801  15.008  0.00  0.00     0.265 C 
HETATM   11  O   UNK N   1      34.517  13.355  15.564  0.00  0.00    -0.304 OA
ENDBRANCH   9  10
BRANCH   9  12
HETATM   12  O   UNK N   1      34.228  12.230  13.099  0.00  0.00    -0.386 OA
HETATM   13  H   UNK N   1      33.943  11.319  13.273  0.00  0.00     0.210 HD
ENDBRANCH   9  12
ENDBRANCH   8   9
BRANCH   8  14
HETATM   14  O   UNK N   1      36.742  14.717  13.635  0.00  0.00    -0.390 OA
HETATM   15  H   UNK N   1      36.476  15.573  14.005  0.00  0.00     0.210 HD
ENDBRANCH   8  14
ENDBRANCH   1   8
BRANCH   1  16
HETATM   16  O   UNK N   1      37.809  13.551  11.495  0.00  0.00    -0.390 OA
HETATM   17  H   UNK N   1      38.442  13.936  10.869  0.00  0.00     0.210 HD
ENDBRANCH   1  16
TORSDOF 10
ENDMDL
MODEL 9
REMARK VINA RESULT:      -4.0      1.613      2.777
REMARK  10 active torsions:
REMARK  status: ('A' for Active; 'I' for Inactive)
REMARK    1  A    between atoms: C_3  and  C_1 
REMARK    2  A    between atoms: C_4  and  C_2 
REMARK    3  A    between atoms: O_8  and  C_2 
REMARK    4  A    between atoms: C_5  and  C_3 
REMARK    5  A    between atoms: C_3  and  O_9 
REMARK    6  A    between atoms: C_6  and  C_4 
REMARK    7  A    between atoms: C_4  and  O_10 
REMARK    8  A    between atoms: C_6  and  C_5 
REMARK    9  A    between atoms: C_5  and  O_11 
REMARK   10  A    between atoms: C_6  and  O_12 
ROOT
HETATM    1  C   UNK N   1      34.702  17.037   9.721  0.00  0.00     0.180 C 
ENDROOT
BRANCH   1   2
HETATM    2  C   UNK N   1      34.976  15.519   9.591  0.00  0.00     0.173 C 
BRANCH   2   3
HETATM    3  C   UNK N   1      34.389  14.738  10.768  0.00  0.00     0.198 C 
BRANCH   3   4
HETATM    4  O   UNK N   1      33.035  15.029  10.949  0.00  0.00    -0.398 OA
HETATM    5  H   UNK N   1      32.374  14.320  10.896  0.00  0.00     0.209 HD
ENDBRANCH   3   4
ENDBRANCH   2   3
BRANCH   2   6
HETATM    6  O   UNK N   1      34.384  15.023   8.427  0.00  0.00    -0.391 OA
HETATM    7  H   UNK N   1      34.300  15.589   7.645  0.00  0.00     0.210 HD
ENDBRANCH   2   6
ENDBRANCH   1   2
BRANCH   1   8
HETATM    8  C   UNK N   1      34.386  17.763   8.385  0.00  0.00     0.184 C 
BRANCH   8   9
HETATM    9  C   UNK N   1      32.880  17.944   8.080  0.00  0.00     0.210 C 
BRANCH   9  10
HETATM   10  C   UNK N   1      32.537  17.447   6.704  0.00  0.00     0.265 C 
HETATM   11  O   UNK N   1      31.384  17.174   6.403  0.00  0.00    -0.304 OA
ENDBRANCH   9  10
BRANCH   9  12
HETATM   12  O   UNK N   1      32.113  17.217   8.994  0.00  0.00    -0.386 OA
HETATM   13  H   UNK N   1      32.548  16.665   9.663  0.00  0.00     0.210 HD
ENDBRANCH   9  12
ENDBRANCH   8   9
BRANCH   8  14
HETATM   14  O   UNK N   1      35.023  19.009   8.373  0.00  0.00    -0.390 OA
HETATM   15  H   UNK N   1      34.914  19.602   7.613  0.00  0.00     0.210 HD
ENDBRANCH   8  14
ENDBRANCH   1   8
BRANCH   1  16
HETATM   16  O   UNK N   1      35.785  17.666  10.342  0.00  0.00    -0.390 OA
HETATM   17  H   UNK N   1      36.582  17.880   9.833  0.00  0.00     0.210 HD
ENDBRANCH   1  16
TORSDOF 10
ENDMDL
