MODEL 1
REMARK VINA RESULT:      -5.7      0.000      0.000
REMARK  7 active torsions:
REMARK  status: ('A' for Active; 'I' for Inactive)
REMARK    1  A    between atoms: C_3  and  C_9 
REMARK    2  A    between atoms: C_4  and  N_8 
REMARK    3  A    between atoms: C_9  and  C_11 
REMARK    4  A    between atoms: C_11  and  C_12 
REMARK    5  A    between atoms: C_12  and  C_13 
REMARK    6  A    between atoms: C_12  and  N_16 
REMARK    7  A    between atoms: C_13  and  O_15 
ROOT
HETATM    1  C   UNK N   1      30.543  17.326   7.908  0.00  0.00     0.164 C 
HETATM    2  O   UNK N   1      30.208  17.009   9.042  0.00  0.00    -0.292 OA
ENDROOT
BRANCH   1   3
HETATM    3  C   UNK N   1      29.509  17.780   6.931  0.00  0.00     0.036 A 
HETATM    4  C   UNK N   1      29.722  17.520   5.566  0.00  0.00     0.019 A 
HETATM    5  C   UNK N   1      28.811  17.958   4.602  0.00  0.00     0.025 A 
HETATM    6  C   UNK N   1      27.668  18.657   4.988  0.00  0.00     0.036 A 
HETATM    7  C   UNK N   1      27.428  18.908   6.338  0.00  0.00     0.053 A 
HETATM    8 Cl   UNK N   1      26.536  19.229   3.782  0.00  0.00    -0.084 Cl
HETATM    9  C   UNK N   1      28.332  18.480   7.312  0.00  0.00     0.041 A 
BRANCH   9  10
HETATM   10  N   UNK N   1      28.035  18.751   8.663  0.00  0.00    -0.398 N 
HETATM   11  H   UNK N   1      27.182  18.454   9.053  0.00  0.00     0.156 HD
HETATM   12  H   UNK N   1      28.684  19.240   9.220  0.00  0.00     0.156 HD
ENDBRANCH   9  10
ENDBRANCH   1   3
BRANCH   1  13
HETATM   13  C   UNK N   1      31.978  17.163   7.506  0.00  0.00     0.119 C 
BRANCH  13  14
HETATM   14  C   UNK N   1      32.950  17.749   8.513  0.00  0.00     0.180 C 
BRANCH  14  15
HETATM   15  C   UNK N   1      34.161  18.251   7.778  0.00  0.00     0.163 C 
HETATM   16  O   UNK N   1      34.385  17.907   6.628  0.00  0.00    -0.648 OA
BRANCH  15  17
HETATM   17  O   UNK N   1      35.011  19.093   8.398  0.00  0.00    -0.775 OA
HETATM   18  H   UNK N   1      34.683  19.753   8.977  0.00  0.00     0.167 HD
ENDBRANCH  15  17
ENDBRANCH  14  15
BRANCH  14  19
HETATM   19  N   UNK N   1      33.311  16.731   9.490  0.00  0.00    -0.417 N 
HETATM   20  H   UNK N   1      32.949  16.782  10.443  0.00  0.00     0.150 HD
HETATM   21  H   UNK N   1      33.929  15.965   9.221  0.00  0.00     0.150 HD
ENDBRANCH  14  19
ENDBRANCH  13  14
ENDBRANCH   1  13
TORSDOF 7
ENDMDL
MODEL 2
REMARK VINA RESULT:      -5.6      2.696      4.224
REMARK  7 active torsions:
REMARK  status: ('A' for Active; 'I' for Inactive)
REMARK    1  A    between atoms: C_3  and  C_9 
REMARK    2  A    between atoms: C_4  and  N_8 
REMARK    3  A    between atoms: C_9  and  C_11 
REMARK    4  A    between atoms: C_11  and  C_12 
REMARK    5  A    between atoms: C_12  and  C_13 
REMARK    6  A    between atoms: C_12  and  N_16 
REMARK    7  A    between atoms: C_13  and  O_15 
ROOT
HETATM    1  C   UNK N   1      34.476  18.007   8.416  0.00  0.00     0.164 C 
HETATM    2  O   UNK N   1      35.015  19.104   8.353  0.00  0.00    -0.292 OA
ENDROOT
BRANCH   1   3
HETATM    3  C   UNK N   1      33.428  17.639   7.416  0.00  0.00     0.036 A 
HETATM    4  C   UNK N   1      33.829  17.384   6.094  0.00  0.00     0.019 A 
HETATM    5  C   UNK N   1      32.890  17.078   5.106  0.00  0.00     0.025 A 
HETATM    6  C   UNK N   1      31.535  17.014   5.427  0.00  0.00     0.036 A 
HETATM    7  C   UNK N   1      31.118  17.244   6.737  0.00  0.00     0.053 A 
HETATM    8 Cl   UNK N   1      30.352  16.655   4.188  0.00  0.00    -0.084 Cl
HETATM    9  C   UNK N   1      32.045  17.556   7.734  0.00  0.00     0.041 A 
BRANCH   9  10
HETATM   10  N   UNK N   1      31.571  17.769   9.044  0.00  0.00    -0.398 N 
HETATM   11  H   UNK N   1      31.809  17.143   9.766  0.00  0.00     0.156 HD
HETATM   12  H   UNK N   1      30.999  18.547   9.238  0.00  0.00     0.156 HD
ENDBRANCH   9  10
ENDBRANCH   1   3
BRANCH   1  13
HETATM   13  C   UNK N   1      34.820  17.096   9.555  0.00  0.00     0.119 C 
BRANCH  13  14
HETATM   14  C   UNK N   1      34.512  15.638   9.267  0.00  0.00     0.180 C 
BRANCH  14  15
HETATM   15  C   UNK N   1      33.679  15.090  10.391  0.00  0.00     0.163 C 
HETATM   16  O   UNK N   1      34.199  14.685  11.418  0.00  0.00    -0.648 OA
BRANCH  15  17
HETATM   17  O   UNK N   1      32.338  15.046  10.263  0.00  0.00    -0.775 OA
HETATM   18  H   UNK N   1      31.872  15.783   9.922  0.00  0.00     0.167 HD
ENDBRANCH  15  17
ENDBRANCH  14  15
BRANCH  14  19
HETATM   19  N   UNK N   1      35.757  14.897   9.124  0.00  0.00    -0.417 N 
HETATM   20  H   UNK N   1      35.743  13.924   8.815  0.00  0.00     0.150 HD
HETATM   21  H   UNK N   1      36.646  15.351   9.334  0.00  0.00     0.150 HD
ENDBRANCH  14  19
ENDBRANCH  13  14
ENDBRANCH   1  13
TORSDOF 7
ENDMDL
MODEL 3
REMARK VINA RESULT:      -5.4      5.999      8.410
REMARK  7 active torsions:
REMARK  status: ('A' for Active; 'I' for Inactive)
REMARK    1  A    between atoms: C_3  and  C_9 
REMARK    2  A    between atoms: C_4  and  N_8 
REMARK    3  A    between atoms: C_9  and  C_11 
REMARK    4  A    between atoms: C_11  and  C_12 
REMARK    5  A    between atoms: C_12  and  C_13 
REMARK    6  A    between atoms: C_12  and  N_16 
REMARK    7  A    between atoms: C_13  and  O_15 
ROOT
HETATM    1  C   UNK N   1      35.324  15.258   9.975  0.00  0.00     0.164 C 
HETATM    2  O   UNK N   1      35.527  14.627   8.946  0.00  0.00    -0.292 OA
ENDROOT
BRANCH   1   3
HETATM    3  C   UNK N   1      35.426  14.569  11.297  0.00  0.00     0.036 A 
HETATM    4  C   UNK N   1      36.098  15.227  12.341  0.00  0.00     0.019 A 
HETATM    5  C   UNK N   1      36.263  14.615  13.586  0.00  0.00     0.025 A 
HETATM    6  C   UNK N   1      35.750  13.338  13.809  0.00  0.00     0.036 A 
HETATM    7  C   UNK N   1      35.062  12.677  12.794  0.00  0.00     0.053 A 
HETATM    8 Cl   UNK N   1      35.974  12.557  15.359  0.00  0.00    -0.084 Cl
HETATM    9  C   UNK N   1      34.894  13.274  11.542  0.00  0.00     0.041 A 
BRANCH   9  10
HETATM   10  N   UNK N   1      34.181  12.565  10.554  0.00  0.00    -0.398 N 
HETATM   11  H   UNK N   1      33.231  12.347  10.689  0.00  0.00     0.156 HD
HETATM   12  H   UNK N   1      34.635  12.288   9.726  0.00  0.00     0.156 HD
ENDBRANCH   9  10
ENDBRANCH   1   3
BRANCH   1  13
HETATM   13  C   UNK N   1      34.887  16.688   9.872  0.00  0.00     0.119 C 
BRANCH  13  14
HETATM   14  C   UNK N   1      33.971  16.948   8.691  0.00  0.00     0.180 C 
BRANCH  14  15
HETATM   15  C   UNK N   1      34.526  18.096   7.895  0.00  0.00     0.163 C 
HETATM   16  O   UNK N   1      34.383  18.148   6.684  0.00  0.00    -0.648 OA
BRANCH  15  17
HETATM   17  O   UNK N   1      35.189  19.083   8.529  0.00  0.00    -0.775 OA
HETATM   18  H   UNK N   1      35.605  19.763   8.037  0.00  0.00     0.167 HD
ENDBRANCH  15  17
ENDBRANCH  14  15
BRANCH  14  19
HETATM   19  N   UNK N   1      32.628  17.240   9.170  0.00  0.00    -0.417 N 
HETATM   20  H   UNK N   1      31.964  16.482   9.332  0.00  0.00     0.150 HD
HETATM   21  H   UNK N   1      32.349  18.206   9.345  0.00  0.00     0.150 HD
ENDBRANCH  14  19
ENDBRANCH  13  14
ENDBRANCH   1  13
TORSDOF 7
ENDMDL
MODEL 4
REMARK VINA RESULT:      -5.4      7.958     10.144
REMARK  7 active torsions:
REMARK  status: ('A' for Active; 'I' for Inactive)
REMARK    1  A    between atoms: C_3  and  C_9 
REMARK    2  A    between atoms: C_4  and  N_8 
REMARK    3  A    between atoms: C_9  and  C_11 
REMARK    4  A    between atoms: C_11  and  C_12 
REMARK    5  A    between atoms: C_12  and  C_13 
REMARK    6  A    between atoms: C_12  and  N_16 
REMARK    7  A    between atoms: C_13  and  O_15 
ROOT
HETATM    1  C   UNK N   1      35.387  13.221  12.099  0.00  0.00     0.164 C 
HETATM    2  O   UNK N   1      35.959  12.465  11.325  0.00  0.00    -0.292 OA
ENDROOT
BRANCH   1   3
HETATM    3  C   UNK N   1      35.283  12.859  13.545  0.00  0.00     0.036 A 
HETATM    4  C   UNK N   1      35.953  13.662  14.483  0.00  0.00     0.019 A 
HETATM    5  C   UNK N   1      35.928  13.348  15.844  0.00  0.00     0.025 A 
HETATM    6  C   UNK N   1      35.225  12.229  16.290  0.00  0.00     0.036 A 
HETATM    7  C   UNK N   1      34.537  11.431  15.378  0.00  0.00     0.053 A 
HETATM    8 Cl   UNK N   1      35.210  11.818  17.990  0.00  0.00    -0.084 Cl
HETATM    9  C   UNK N   1      34.558  11.729  14.013  0.00  0.00     0.041 A 
BRANCH   9  10
HETATM   10  N   UNK N   1      33.837  10.895  13.136  0.00  0.00    -0.398 N 
HETATM   11  H   UNK N   1      33.813  11.090  12.171  0.00  0.00     0.156 HD
HETATM   12  H   UNK N   1      33.354  10.113  13.489  0.00  0.00     0.156 HD
ENDBRANCH   9  10
ENDBRANCH   1   3
BRANCH   1  13
HETATM   13  C   UNK N   1      34.726  14.450  11.554  0.00  0.00     0.119 C 
BRANCH  13  14
HETATM   14  C   UNK N   1      35.671  15.630  11.430  0.00  0.00     0.180 C 
BRANCH  14  15
HETATM   15  C   UNK N   1      35.070  16.632  10.484  0.00  0.00     0.163 C 
HETATM   16  O   UNK N   1      35.656  17.667  10.209  0.00  0.00    -0.648 OA
BRANCH  15  17
HETATM   17  O   UNK N   1      33.866  16.383   9.931  0.00  0.00    -0.775 OA
HETATM   18  H   UNK N   1      33.523  16.954   9.272  0.00  0.00     0.167 HD
ENDBRANCH  15  17
ENDBRANCH  14  15
BRANCH  14  19
HETATM   19  N   UNK N   1      36.967  15.168  10.952  0.00  0.00    -0.417 N 
HETATM   20  H   UNK N   1      37.239  15.317   9.980  0.00  0.00     0.150 HD
HETATM   21  H   UNK N   1      37.604  14.693  11.592  0.00  0.00     0.150 HD
ENDBRANCH  14  19
ENDBRANCH  13  14
ENDBRANCH   1  13
TORSDOF 7
ENDMDL
MODEL 5
REMARK VINA RESULT:      -5.4      2.564      3.903
REMARK  7 active torsions:
REMARK  status: ('A' for Active; 'I' for Inactive)
REMARK    1  A    between atoms: C_3  and  C_9 
REMARK    2  A    between atoms: C_4  and  N_8 
REMARK    3  A    between atoms: C_9  and  C_11 
REMARK    4  A    between atoms: C_11  and  C_12 
REMARK    5  A    between atoms: C_12  and  C_13 
REMARK    6  A    between atoms: C_12  and  N_16 
REMARK    7  A    between atoms: C_13  and  O_15 
ROOT
HETATM    1  C   UNK N   1      33.987  17.260   7.301  0.00  0.00     0.164 C 
HETATM    2  O   UNK N   1      34.656  18.285   7.286  0.00  0.00    -0.292 OA
ENDROOT
BRANCH   1   3
HETATM    3  C   UNK N   1      32.549  17.310   6.898  0.00  0.00     0.036 A 
HETATM    4  C   UNK N   1      31.575  17.377   7.908  0.00  0.00     0.019 A 
HETATM    5  C   UNK N   1      30.214  17.382   7.593  0.00  0.00     0.025 A 
HETATM    6  C   UNK N   1      29.806  17.328   6.261  0.00  0.00     0.036 A 
HETATM    7  C   UNK N   1      30.756  17.282   5.243  0.00  0.00     0.053 A 
HETATM    8 Cl   UNK N   1      28.102  17.310   5.862  0.00  0.00    -0.084 Cl
HETATM    9  C   UNK N   1      32.120  17.271   5.543  0.00  0.00     0.041 A 
BRANCH   9  10
HETATM   10  N   UNK N   1      33.039  17.233   4.474  0.00  0.00    -0.398 N 
HETATM   11  H   UNK N   1      33.430  16.377   4.186  0.00  0.00     0.156 HD
HETATM   12  H   UNK N   1      33.290  18.067   4.014  0.00  0.00     0.156 HD
ENDBRANCH   9  10
ENDBRANCH   1   3
BRANCH   1  13
HETATM   13  C   UNK N   1      34.609  15.997   7.813  0.00  0.00     0.119 C 
BRANCH  13  14
HETATM   14  C   UNK N   1      34.671  15.935   9.328  0.00  0.00     0.180 C 
BRANCH  14  15
HETATM   15  C   UNK N   1      33.582  15.022   9.818  0.00  0.00     0.163 C 
HETATM   16  O   UNK N   1      32.966  14.307   9.044  0.00  0.00    -0.648 OA
BRANCH  15  17
HETATM   17  O   UNK N   1      33.283  14.991  11.132  0.00  0.00    -0.775 OA
HETATM   18  H   UNK N   1      33.582  15.674  11.700  0.00  0.00     0.167 HD
ENDBRANCH  15  17
ENDBRANCH  14  15
BRANCH  14  19
HETATM   19  N   UNK N   1      34.521  17.275   9.877  0.00  0.00    -0.417 N 
HETATM   20  H   UNK N   1      35.344  17.819  10.137  0.00  0.00     0.150 HD
HETATM   21  H   UNK N   1      33.589  17.671  10.002  0.00  0.00     0.150 HD
ENDBRANCH  14  19
ENDBRANCH  13  14
ENDBRANCH   1  13
TORSDOF 7
ENDMDL
MODEL 6
REMARK VINA RESULT:      -5.4      8.438     10.623
REMARK  7 active torsions:
REMARK  status: ('A' for Active; 'I' for Inactive)
REMARK    1  A    between atoms: C_3  and  C_9 
REMARK    2  A    between atoms: C_4  and  N_8 
REMARK    3  A    between atoms: C_9  and  C_11 
REMARK    4  A    between atoms: C_11  and  C_12 
REMARK    5  A    between atoms: C_12  and  C_13 
REMARK    6  A    between atoms: C_12  and  N_16 
REMARK    7  A    between atoms: C_13  and  O_15 
ROOT
HETATM    1  C   UNK N   1      35.546  12.843  12.429  0.00  0.00     0.164 C 
HETATM    2  O   UNK N   1      35.839  12.283  11.381  0.00  0.00    -0.292 OA
ENDROOT
BRANCH   1   3
HETATM    3  C   UNK N   1      35.372  12.037  13.674  0.00  0.00     0.036 A 
HETATM    4  C   UNK N   1      34.187  11.297  13.829  0.00  0.00     0.019 A 
HETATM    5  C   UNK N   1      33.949  10.559  14.992  0.00  0.00     0.025 A 
HETATM    6  C   UNK N   1      34.897  10.543  16.014  0.00  0.00     0.036 A 
HETATM    7  C   UNK N   1      36.087  11.254  15.872  0.00  0.00     0.053 A 
HETATM    8 Cl   UNK N   1      34.592   9.640  17.482  0.00  0.00    -0.084 Cl
HETATM    9  C   UNK N   1      36.336  12.000  14.718  0.00  0.00     0.041 A 
BRANCH   9  10
HETATM   10  N   UNK N   1      37.561  12.692  14.622  0.00  0.00    -0.398 N 
HETATM   11  H   UNK N   1      37.909  13.193  15.394  0.00  0.00     0.156 HD
HETATM   12  H   UNK N   1      38.069  12.673  13.779  0.00  0.00     0.156 HD
ENDBRANCH   9  10
ENDBRANCH   1   3
BRANCH   1  13
HETATM   13  C   UNK N   1      35.281  14.318  12.411  0.00  0.00     0.119 C 
BRANCH  13  14
HETATM   14  C   UNK N   1      34.961  14.849  11.027  0.00  0.00     0.180 C 
BRANCH  14  15
HETATM   15  C   UNK N   1      35.730  16.122  10.809  0.00  0.00     0.163 C 
HETATM   16  O   UNK N   1      35.153  17.177  10.599  0.00  0.00    -0.648 OA
BRANCH  15  17
HETATM   17  O   UNK N   1      37.077  16.098  10.848  0.00  0.00    -0.775 OA
HETATM   18  H   UNK N   1      37.521  15.681  11.560  0.00  0.00     0.167 HD
ENDBRANCH  15  17
ENDBRANCH  14  15
BRANCH  14  19
HETATM   19  N   UNK N   1      33.527  15.075  10.911  0.00  0.00    -0.417 N 
HETATM   20  H   UNK N   1      33.133  15.994  11.113  0.00  0.00     0.150 HD
HETATM   21  H   UNK N   1      32.914  14.310  10.626  0.00  0.00     0.150 HD
ENDBRANCH  14  19
ENDBRANCH  13  14
ENDBRANCH   1  13
TORSDOF 7
ENDMDL
MODEL 7
REMARK VINA RESULT:      -5.3      5.878      8.489
REMARK  7 active torsions:
REMARK  status: ('A' for Active; 'I' for Inactive)
REMARK    1  A    between atoms: C_3  and  C_9 
REMARK    2  A    between atoms: C_4  and  N_8 
REMARK    3  A    between atoms: C_9  and  C_11 
REMARK    4  A    between atoms: C_11  and  C_12 
REMARK    5  A    between atoms: C_12  and  C_13 
REMARK    6  A    between atoms: C_12  and  N_16 
REMARK    7  A    between atoms: C_13  and  O_15 
ROOT
HETATM    1  C   UNK N   1      35.514  15.945   9.910  0.00  0.00     0.164 C 
HETATM    2  O   UNK N   1      35.745  17.072  10.327  0.00  0.00    -0.292 OA
ENDROOT
BRANCH   1   3
HETATM    3  C   UNK N   1      35.803  14.762  10.775  0.00  0.00     0.036 A 
HETATM    4  C   UNK N   1      34.766  14.251  11.574  0.00  0.00     0.019 A 
HETATM    5  C   UNK N   1      34.988  13.174  12.436  0.00  0.00     0.025 A 
HETATM    6  C   UNK N   1      36.250  12.584  12.505  0.00  0.00     0.036 A 
HETATM    7  C   UNK N   1      37.287  13.063  11.706  0.00  0.00     0.053 A 
HETATM    8 Cl   UNK N   1      36.540  11.251  13.600  0.00  0.00    -0.084 Cl
HETATM    9  C   UNK N   1      37.080  14.142  10.844  0.00  0.00     0.041 A 
BRANCH   9  10
HETATM   10  N   UNK N   1      38.161  14.579  10.051  0.00  0.00    -0.398 N 
HETATM   11  H   UNK N   1      38.962  14.015   9.950  0.00  0.00     0.156 HD
HETATM   12  H   UNK N   1      38.114  15.451   9.596  0.00  0.00     0.156 HD
ENDBRANCH   9  10
ENDBRANCH   1   3
BRANCH   1  13
HETATM   13  C   UNK N   1      35.030  15.780   8.501  0.00  0.00     0.119 C 
BRANCH  13  14
HETATM   14  C   UNK N   1      33.833  16.654   8.176  0.00  0.00     0.180 C 
BRANCH  14  15
HETATM   15  C   UNK N   1      34.321  17.910   7.509  0.00  0.00     0.163 C 
HETATM   16  O   UNK N   1      34.291  18.028   6.294  0.00  0.00    -0.648 OA
BRANCH  15  17
HETATM   17  O   UNK N   1      34.796  18.921   8.263  0.00  0.00    -0.775 OA
HETATM   18  H   UNK N   1      35.237  18.740   9.070  0.00  0.00     0.167 HD
ENDBRANCH  15  17
ENDBRANCH  14  15
BRANCH  14  19
HETATM   19  N   UNK N   1      33.105  16.958   9.400  0.00  0.00    -0.417 N 
HETATM   20  H   UNK N   1      33.249  16.392  10.237  0.00  0.00     0.150 HD
HETATM   21  H   UNK N   1      32.449  17.739   9.421  0.00  0.00     0.150 HD
ENDBRANCH  14  19
ENDBRANCH  13  14
ENDBRANCH   1  13
TORSDOF 7
ENDMDL
MODEL 8
REMARK VINA RESULT:      -5.3     11.085     13.062
REMARK  7 active torsions:
REMARK  status: ('A' for Active; 'I' for Inactive)
REMARK    1  A    between atoms: C_3  and  C_9 
REMARK    2  A    between atoms: C_4  and  N_8 
REMARK    3  A    between atoms: C_9  and  C_11 
REMARK    4  A    between atoms: C_11  and  C_12 
REMARK    5  A    between atoms: C_12  and  C_13 
REMARK    6  A    between atoms: C_12  and  N_16 
REMARK    7  A    between atoms: C_13  and  O_15 
ROOT
HETATM    1  C   UNK N   1      35.209  12.794  16.014  0.00  0.00     0.164 C 
HETATM    2  O   UNK N   1      34.127  13.200  15.610  0.00  0.00    -0.292 OA
ENDROOT
BRANCH   1   3
HETATM    3  C   UNK N   1      35.300  12.141  17.354  0.00  0.00     0.036 A 
HETATM    4  C   UNK N   1      35.375  10.739  17.409  0.00  0.00     0.019 A 
HETATM    5  C   UNK N   1      35.419  10.070  18.635  0.00  0.00     0.025 A 
HETATM    6  C   UNK N   1      35.396  10.794  19.826  0.00  0.00     0.036 A 
HETATM    7  C   UNK N   1      35.342  12.187  19.794  0.00  0.00     0.053 A 
HETATM    8 Cl   UNK N   1      35.426   9.960  21.365  0.00  0.00    -0.084 Cl
HETATM    9  C   UNK N   1      35.293  12.868  18.576  0.00  0.00     0.041 A 
BRANCH   9  10
HETATM   10  N   UNK N   1      35.249  14.277  18.600  0.00  0.00    -0.398 N 
HETATM   11  H   UNK N   1      34.805  14.773  17.875  0.00  0.00     0.156 HD
HETATM   12  H   UNK N   1      35.665  14.767  19.346  0.00  0.00     0.156 HD
ENDBRANCH   9  10
ENDBRANCH   1   3
BRANCH   1  13
HETATM   13  C   UNK N   1      36.432  13.048  15.186  0.00  0.00     0.119 C 
BRANCH  13  14
HETATM   14  C   UNK N   1      36.129  13.749  13.875  0.00  0.00     0.180 C 
BRANCH  14  15
HETATM   15  C   UNK N   1      36.621  12.891  12.744  0.00  0.00     0.163 C 
HETATM   16  O   UNK N   1      36.091  11.821  12.490  0.00  0.00    -0.648 OA
BRANCH  15  17
HETATM   17  O   UNK N   1      37.663  13.310  11.998  0.00  0.00    -0.775 OA
HETATM   18  H   UNK N   1      37.801  12.957  11.141  0.00  0.00     0.167 HD
ENDBRANCH  15  17
ENDBRANCH  14  15
BRANCH  14  19
HETATM   19  N   UNK N   1      36.771  15.056  13.862  0.00  0.00    -0.417 N 
HETATM   20  H   UNK N   1      37.258  15.397  14.691  0.00  0.00     0.150 HD
HETATM   21  H   UNK N   1      36.733  15.633  13.021  0.00  0.00     0.150 HD
ENDBRANCH  14  19
ENDBRANCH  13  14
ENDBRANCH   1  13
TORSDOF 7
ENDMDL
MODEL 9
REMARK VINA RESULT:      -5.2      4.625      7.146
REMARK  7 active torsions:
REMARK  status: ('A' for Active; 'I' for Inactive)
REMARK    1  A    between atoms: C_3  and  C_9 
REMARK    2  A    between atoms: C_4  and  N_8 
REMARK    3  A    between atoms: C_9  and  C_11 
REMARK    4  A    between atoms: C_11  and  C_12 
REMARK    5  A    between atoms: C_12  and  C_13 
REMARK    6  A    between atoms: C_12  and  N_16 
REMARK    7  A    between atoms: C_13  and  O_15 
ROOT
HETATM    1  C   UNK N   1      26.810  19.908   5.048  0.00  0.00     0.164 C 
HETATM    2  O   UNK N   1      26.430  20.942   5.579  0.00  0.00    -0.292 OA
ENDROOT
BRANCH   1   3
HETATM    3  C   UNK N   1      27.866  19.082   5.706  0.00  0.00     0.036 A 
HETATM    4  C   UNK N   1      28.743  18.347   4.891  0.00  0.00     0.019 A 
HETATM    5  C   UNK N   1      29.722  17.522   5.450  0.00  0.00     0.025 A 
HETATM    6  C   UNK N   1      29.846  17.428   6.836  0.00  0.00     0.036 A 
HETATM    7  C   UNK N   1      29.000  18.164   7.663  0.00  0.00     0.053 A 
HETATM    8 Cl   UNK N   1      31.056  16.378   7.542  0.00  0.00    -0.084 Cl
HETATM    9  C   UNK N   1      28.012  18.988   7.117  0.00  0.00     0.041 A 
BRANCH   9  10
HETATM   10  N   UNK N   1      27.191  19.719   7.999  0.00  0.00    -0.398 N 
HETATM   11  H   UNK N   1      26.284  19.987   7.725  0.00  0.00     0.156 HD
HETATM   12  H   UNK N   1      27.525  19.962   8.893  0.00  0.00     0.156 HD
ENDBRANCH   9  10
ENDBRANCH   1   3
BRANCH   1  13
HETATM   13  C   UNK N   1      26.265  19.546   3.699  0.00  0.00     0.119 C 
BRANCH  13  14
HETATM   14  C   UNK N   1      24.820  19.088   3.743  0.00  0.00     0.180 C 
BRANCH  14  15
HETATM   15  C   UNK N   1      23.956  20.158   3.138  0.00  0.00     0.163 C 
HETATM   16  O   UNK N   1      22.763  20.220   3.390  0.00  0.00    -0.648 OA
BRANCH  15  17
HETATM   17  O   UNK N   1      24.507  21.064   2.305  0.00  0.00    -0.775 OA
HETATM   18  H   UNK N   1      25.436  21.098   2.194  0.00  0.00     0.167 HD
ENDBRANCH  15  17
ENDBRANCH  14  15
BRANCH  14  19
HETATM   19  N   UNK N   1      24.436  18.819   5.122  0.00  0.00    -0.417 N 
HETATM   20  H   UNK N   1      24.669  19.485   5.859  0.00  0.00     0.150 HD
HETATM   21  H   UNK N   1      23.932  17.962   5.352  0.00  0.00     0.150 HD
ENDBRANCH  14  19
ENDBRANCH  13  14
ENDBRANCH   1  13
TORSDOF 7
ENDMDL
