MODEL 1
REMARK VINA RESULT:      -7.3      0.000      0.000
REMARK  4 active torsions:
REMARK  status: ('A' for Active; 'I' for Inactive)
REMARK    1  A    between atoms: C_2  and  C_16 
REMARK    2  A    between atoms: C_5  and  C_7 
REMARK    3  A    between atoms: N_8  and  C_10 
REMARK    4  A    between atoms: N_17  and  C_19 
ROOT
HETATM    1  C   UNK N   1      22.623  16.789   5.768  0.00  0.00     0.013 A 
HETATM    2  C   UNK N   1      21.565  17.608   6.192  0.00  0.00    -0.021 A 
HETATM    3  C   UNK N   1      20.771  17.211   7.270  0.00  0.00     0.013 A 
HETATM    4  C   UNK N   1      21.013  15.992   7.905  0.00  0.00     0.013 A 
HETATM    5  C   UNK N   1      22.052  15.159   7.462  0.00  0.00    -0.021 A 
HETATM    6  C   UNK N   1      22.863  15.568   6.400  0.00  0.00     0.013 A 
ENDROOT
BRANCH   2   7
HETATM    7  C   UNK N   1      21.200  18.809   5.433  0.00  0.00     0.095 C 
HETATM    8  N   UNK N   1      21.461  18.892   4.179  0.00  0.00    -0.383 N 
ATOM      9  HN  UNK N   1      22.051  18.184   3.743  1.00  0.00     0.159 HD
BRANCH   8  10
HETATM   10  C   UNK N   1      20.936  19.965   3.373  0.00  0.00     0.202 C 
HETATM   11  C   UNK N   1      20.031  19.429   2.376  0.00  0.00     0.266 C 
HETATM   12  O   UNK N   1      19.025  18.785   2.624  0.00  0.00    -0.269 OA
HETATM   13  N   UNK N   1      20.416  19.710   1.142  0.00  0.00    -0.233 N 
HETATM   14  O   UNK N   1      21.542  20.435   1.065  0.00  0.00    -0.275 OA
HETATM   15  H   UNK N   1      19.917  19.412   0.347  0.00  0.00     0.197 HD
HETATM   16  C   UNK N   1      21.993  20.543   2.415  0.00  0.00     0.236 C 
ENDBRANCH   8  10
ENDBRANCH   2   7
BRANCH   5  17
HETATM   17  C   UNK N   1      22.210  13.806   8.009  0.00  0.00     0.095 C 
HETATM   18  N   UNK N   1      22.294  13.622   9.276  0.00  0.00    -0.383 N 
ATOM     19  HN  UNK N   1      22.398  14.427   9.892  1.00  0.00     0.159 HD
BRANCH  18  20
HETATM   20  C   UNK N   1      22.246  12.299   9.846  0.00  0.00     0.202 C 
HETATM   21  C   UNK N   1      21.293  12.273  10.938  0.00  0.00     0.266 C 
HETATM   22  O   UNK N   1      20.109  12.547  10.836  0.00  0.00    -0.269 OA
HETATM   23  N   UNK N   1      21.851  11.916  12.084  0.00  0.00    -0.233 N 
HETATM   24  O   UNK N   1      23.162  11.643  12.002  0.00  0.00    -0.275 OA
HETATM   25  H   UNK N   1      21.346  11.856  12.927  0.00  0.00     0.197 HD
HETATM   26  C   UNK N   1      23.512  11.969  10.656  0.00  0.00     0.236 C 
ENDBRANCH  18  20
ENDBRANCH   5  17
TORSDOF 4
ENDMDL
MODEL 2
REMARK VINA RESULT:      -6.9      5.582      6.264
REMARK  4 active torsions:
REMARK  status: ('A' for Active; 'I' for Inactive)
REMARK    1  A    between atoms: C_2  and  C_16 
REMARK    2  A    between atoms: C_5  and  C_7 
REMARK    3  A    between atoms: N_8  and  C_10 
REMARK    4  A    between atoms: N_17  and  C_19 
ROOT
HETATM    1  C   UNK N   1      25.075  18.153   3.848  0.00  0.00     0.013 A 
HETATM    2  C   UNK N   1      24.751  19.514   3.741  0.00  0.00    -0.021 A 
HETATM    3  C   UNK N   1      25.595  20.474   4.304  0.00  0.00     0.013 A 
HETATM    4  C   UNK N   1      26.742  20.077   4.994  0.00  0.00     0.013 A 
HETATM    5  C   UNK N   1      27.050  18.715   5.128  0.00  0.00    -0.021 A 
HETATM    6  C   UNK N   1      26.220  17.756   4.543  0.00  0.00     0.013 A 
ENDROOT
BRANCH   2   7
HETATM    7  C   UNK N   1      23.471  19.933   3.161  0.00  0.00     0.095 C 
HETATM    8  N   UNK N   1      22.387  19.310   3.453  0.00  0.00    -0.383 N 
ATOM      9  HN  UNK N   1      22.439  18.434   3.972  1.00  0.00     0.159 HD
BRANCH   8  10
HETATM   10  C   UNK N   1      21.098  19.821   3.062  0.00  0.00     0.202 C 
HETATM   11  C   UNK N   1      20.625  19.107   1.893  0.00  0.00     0.266 C 
HETATM   12  O   UNK N   1      20.443  17.902   1.840  0.00  0.00    -0.269 OA
HETATM   13  N   UNK N   1      20.407  19.910   0.865  0.00  0.00    -0.233 N 
HETATM   14  O   UNK N   1      20.653  21.206   1.112  0.00  0.00    -0.275 OA
HETATM   15  H   UNK N   1      20.090  19.584  -0.009  0.00  0.00     0.197 HD
HETATM   16  C   UNK N   1      21.197  21.222   2.432  0.00  0.00     0.236 C 
ENDBRANCH   8  10
ENDBRANCH   2   7
BRANCH   5  17
HETATM   17  C   UNK N   1      28.155  18.280   5.990  0.00  0.00     0.095 C 
HETATM   18  N   UNK N   1      27.924  17.829   7.169  0.00  0.00    -0.383 N 
ATOM     19  HN  UNK N   1      26.986  17.910   7.560  1.00  0.00     0.159 HD
BRANCH  18  20
HETATM   20  C   UNK N   1      28.964  17.211   7.953  0.00  0.00     0.202 C 
HETATM   21  C   UNK N   1      28.677  17.381   9.363  0.00  0.00     0.266 C 
HETATM   22  O   UNK N   1      27.669  16.982   9.922  0.00  0.00    -0.269 OA
HETATM   23  N   UNK N   1      29.641  18.029   9.998  0.00  0.00    -0.233 N 
HETATM   24  O   UNK N   1      30.677  18.382   9.222  0.00  0.00    -0.275 OA
HETATM   25  H   UNK N   1      29.600  18.237  10.960  0.00  0.00     0.197 HD
HETATM   26  C   UNK N   1      30.280  18.007   7.903  0.00  0.00     0.236 C 
ENDBRANCH  18  20
ENDBRANCH   5  17
TORSDOF 4
ENDMDL
MODEL 3
REMARK VINA RESULT:      -6.8      6.048      9.913
REMARK  4 active torsions:
REMARK  status: ('A' for Active; 'I' for Inactive)
REMARK    1  A    between atoms: C_2  and  C_16 
REMARK    2  A    between atoms: C_5  and  C_7 
REMARK    3  A    between atoms: N_8  and  C_10 
REMARK    4  A    between atoms: N_17  and  C_19 
ROOT
HETATM    1  C   UNK N   1      27.076  19.942   5.363  0.00  0.00     0.013 A 
HETATM    2  C   UNK N   1      27.509  18.617   5.198  0.00  0.00    -0.021 A 
HETATM    3  C   UNK N   1      26.774  17.743   4.393  0.00  0.00     0.013 A 
HETATM    4  C   UNK N   1      25.599  18.181   3.779  0.00  0.00     0.013 A 
HETATM    5  C   UNK N   1      25.150  19.497   3.970  0.00  0.00    -0.021 A 
HETATM    6  C   UNK N   1      25.899  20.378   4.753  0.00  0.00     0.013 A 
ENDROOT
BRANCH   2   7
HETATM    7  C   UNK N   1      28.648  18.102   5.965  0.00  0.00     0.095 C 
HETATM    8  N   UNK N   1      28.554  17.925   7.233  0.00  0.00    -0.383 N 
ATOM      9  HN  UNK N   1      27.736  18.279   7.728  1.00  0.00     0.159 HD
BRANCH   8  10
HETATM   10  C   UNK N   1      29.580  17.234   7.972  0.00  0.00     0.202 C 
HETATM   11  C   UNK N   1      30.126  18.114   8.986  0.00  0.00     0.266 C 
HETATM   12  O   UNK N   1      29.477  18.633   9.880  0.00  0.00    -0.269 OA
HETATM   13  N   UNK N   1      31.426  18.307   8.841  0.00  0.00    -0.233 N 
HETATM   14  O   UNK N   1      31.971  17.649   7.806  0.00  0.00    -0.275 OA
HETATM   15  H   UNK N   1      31.950  18.885   9.441  0.00  0.00     0.197 HD
HETATM   16  C   UNK N   1      30.863  17.041   7.143  0.00  0.00     0.236 C 
ENDBRANCH   8  10
ENDBRANCH   2   7
BRANCH   5  17
HETATM   17  C   UNK N   1      23.836  19.918   3.469  0.00  0.00     0.095 C 
HETATM   18  N   UNK N   1      22.801  19.184   3.660  0.00  0.00    -0.383 N 
ATOM     19  HN  UNK N   1      22.917  18.242   4.030  1.00  0.00     0.159 HD
BRANCH  18  20
HETATM   20  C   UNK N   1      21.475  19.665   3.359  0.00  0.00     0.202 C 
HETATM   21  C   UNK N   1      20.783  18.700   2.529  0.00  0.00     0.266 C 
HETATM   22  O   UNK N   1      20.567  17.540   2.842  0.00  0.00    -0.269 OA
HETATM   23  N   UNK N   1      20.403  19.214   1.370  0.00  0.00    -0.233 N 
HETATM   24  O   UNK N   1      20.720  20.507   1.206  0.00  0.00    -0.275 OA
HETATM   25  H   UNK N   1      19.928  18.691   0.685  0.00  0.00     0.197 HD
HETATM   26  C   UNK N   1      21.494  20.835   2.360  0.00  0.00     0.236 C 
ENDBRANCH  18  20
ENDBRANCH   5  17
TORSDOF 4
ENDMDL
MODEL 4
REMARK VINA RESULT:      -6.6      6.140     10.010
REMARK  4 active torsions:
REMARK  status: ('A' for Active; 'I' for Inactive)
REMARK    1  A    between atoms: C_2  and  C_16 
REMARK    2  A    between atoms: C_5  and  C_7 
REMARK    3  A    between atoms: N_8  and  C_10 
REMARK    4  A    between atoms: N_17  and  C_19 
ROOT
HETATM    1  C   UNK N   1      26.455  17.655   4.742  0.00  0.00     0.013 A 
HETATM    2  C   UNK N   1      27.592  18.442   4.501  0.00  0.00    -0.021 A 
HETATM    3  C   UNK N   1      27.447  19.725   3.970  0.00  0.00     0.013 A 
HETATM    4  C   UNK N   1      26.176  20.212   3.656  0.00  0.00     0.013 A 
HETATM    5  C   UNK N   1      25.042  19.413   3.868  0.00  0.00    -0.021 A 
HETATM    6  C   UNK N   1      25.185  18.140   4.424  0.00  0.00     0.013 A 
ENDROOT
BRANCH   2   7
HETATM    7  C   UNK N   1      28.937  17.883   4.674  0.00  0.00     0.095 C 
HETATM    8  N   UNK N   1      29.308  17.417   5.811  0.00  0.00    -0.383 N 
ATOM      9  HN  UNK N   1      28.719  17.569   6.629  1.00  0.00     0.159 HD
BRANCH   8  10
HETATM   10  C   UNK N   1      30.540  16.684   5.956  0.00  0.00     0.202 C 
HETATM   11  C   UNK N   1      31.151  17.004   7.230  0.00  0.00     0.266 C 
HETATM   12  O   UNK N   1      30.625  16.830   8.317  0.00  0.00    -0.269 OA
HETATM   13  N   UNK N   1      32.362  17.518   7.094  0.00  0.00    -0.233 N 
HETATM   14  O   UNK N   1      32.778  17.627   5.823  0.00  0.00    -0.275 OA
HETATM   15  H   UNK N   1      32.912  17.798   7.861  0.00  0.00     0.197 HD
HETATM   16  C   UNK N   1      31.651  17.229   5.041  0.00  0.00     0.236 C 
ENDBRANCH   8  10
ENDBRANCH   2   7
BRANCH   5  17
HETATM   17  C   UNK N   1      23.724  19.846   3.389  0.00  0.00     0.095 C 
HETATM   18  N   UNK N   1      22.677  19.149   3.645  0.00  0.00    -0.383 N 
ATOM     19  HN  UNK N   1      22.781  18.222   4.055  1.00  0.00     0.159 HD
BRANCH  18  20
HETATM   20  C   UNK N   1      21.355  19.651   3.363  0.00  0.00     0.202 C 
HETATM   21  C   UNK N   1      20.686  18.765   2.431  0.00  0.00     0.266 C 
HETATM   22  O   UNK N   1      20.471  17.581   2.628  0.00  0.00    -0.269 OA
HETATM   23  N   UNK N   1      20.327  19.385   1.318  0.00  0.00    -0.233 N 
HETATM   24  O   UNK N   1      20.639  20.690   1.284  0.00  0.00    -0.275 OA
HETATM   25  H   UNK N   1      19.869  18.927   0.576  0.00  0.00     0.197 HD
HETATM   26  C   UNK N   1      21.387  20.910   2.479  0.00  0.00     0.236 C 
ENDBRANCH  18  20
ENDBRANCH   5  17
TORSDOF 4
ENDMDL
MODEL 5
REMARK VINA RESULT:      -6.6      6.402     10.005
REMARK  4 active torsions:
REMARK  status: ('A' for Active; 'I' for Inactive)
REMARK    1  A    between atoms: C_2  and  C_16 
REMARK    2  A    between atoms: C_5  and  C_7 
REMARK    3  A    between atoms: N_8  and  C_10 
REMARK    4  A    between atoms: N_17  and  C_19 
ROOT
HETATM    1  C   UNK N   1      27.496  19.972   3.985  0.00  0.00     0.013 A 
HETATM    2  C   UNK N   1      27.749  18.618   4.255  0.00  0.00    -0.021 A 
HETATM    3  C   UNK N   1      26.725  17.679   4.110  0.00  0.00     0.013 A 
HETATM    4  C   UNK N   1      25.448  18.092   3.726  0.00  0.00     0.013 A 
HETATM    5  C   UNK N   1      25.187  19.450   3.488  0.00  0.00    -0.021 A 
HETATM    6  C   UNK N   1      26.217  20.385   3.606  0.00  0.00     0.013 A 
ENDROOT
BRANCH   2   7
HETATM    7  C   UNK N   1      29.039  18.197   4.813  0.00  0.00     0.095 C 
HETATM    8  N   UNK N   1      29.898  17.587   4.080  0.00  0.00    -0.383 N 
ATOM      9  HN  UNK N   1      29.626  17.267   3.151  1.00  0.00     0.159 HD
BRANCH   8  10
HETATM   10  C   UNK N   1      31.241  17.345   4.543  0.00  0.00     0.202 C 
HETATM   11  C   UNK N   1      31.988  16.637   3.522  0.00  0.00     0.266 C 
HETATM   12  O   UNK N   1      32.182  17.049   2.390  0.00  0.00    -0.269 OA
HETATM   13  N   UNK N   1      32.446  15.472   3.949  0.00  0.00    -0.233 N 
HETATM   14  O   UNK N   1      32.142  15.191   5.226  0.00  0.00    -0.275 OA
HETATM   15  H   UNK N   1      32.967  14.862   3.378  0.00  0.00     0.197 HD
HETATM   16  C   UNK N   1      31.293  16.263   5.636  0.00  0.00     0.236 C 
ENDBRANCH   8  10
ENDBRANCH   2   7
BRANCH   5  17
HETATM   17  C   UNK N   1      23.816  19.916   3.249  0.00  0.00     0.095 C 
HETATM   18  N   UNK N   1      22.814  19.164   3.528  0.00  0.00    -0.383 N 
ATOM     19  HN  UNK N   1      22.975  18.189   3.778  1.00  0.00     0.159 HD
BRANCH  18  20
HETATM   20  C   UNK N   1      21.464  19.669   3.493  0.00  0.00     0.202 C 
HETATM   21  C   UNK N   1      20.613  18.736   2.783  0.00  0.00     0.266 C 
HETATM   22  O   UNK N   1      20.439  17.571   3.100  0.00  0.00    -0.269 OA
HETATM   23  N   UNK N   1      20.032  19.288   1.729  0.00  0.00    -0.233 N 
HETATM   24  O   UNK N   1      20.335  20.582   1.542  0.00  0.00    -0.275 OA
HETATM   25  H   UNK N   1      19.428  18.790   1.132  0.00  0.00     0.197 HD
HETATM   26  C   UNK N   1      21.316  20.867   2.539  0.00  0.00     0.236 C 
ENDBRANCH  18  20
ENDBRANCH   5  17
TORSDOF 4
ENDMDL
MODEL 6
REMARK VINA RESULT:      -6.5     15.985     20.121
REMARK  4 active torsions:
REMARK  status: ('A' for Active; 'I' for Inactive)
REMARK    1  A    between atoms: C_2  and  C_16 
REMARK    2  A    between atoms: C_5  and  C_7 
REMARK    3  A    between atoms: N_8  and  C_10 
REMARK    4  A    between atoms: N_17  and  C_19 
ROOT
HETATM    1  C   UNK N   1      35.090  12.783  18.436  0.00  0.00     0.013 A 
HETATM    2  C   UNK N   1      35.511  11.459  18.639  0.00  0.00    -0.021 A 
HETATM    3  C   UNK N   1      36.009  10.718  17.565  0.00  0.00     0.013 A 
HETATM    4  C   UNK N   1      36.061  11.284  16.289  0.00  0.00     0.013 A 
HETATM    5  C   UNK N   1      35.611  12.597  16.081  0.00  0.00    -0.021 A 
HETATM    6  C   UNK N   1      35.138  13.348  17.160  0.00  0.00     0.013 A 
ENDROOT
BRANCH   2   7
HETATM    7  C   UNK N   1      35.310  10.803  19.935  0.00  0.00     0.095 C 
HETATM    8  N   UNK N   1      34.305  10.028  20.125  0.00  0.00    -0.383 N 
ATOM      9  HN  UNK N   1      33.568   9.984  19.422  1.00  0.00     0.159 HD
BRANCH   8  10
HETATM   10  C   UNK N   1      34.196   9.217  21.311  0.00  0.00     0.202 C 
HETATM   11  C   UNK N   1      33.535   9.971  22.357  0.00  0.00     0.266 C 
HETATM   12  O   UNK N   1      32.413  10.443  22.272  0.00  0.00    -0.269 OA
HETATM   13  N   UNK N   1      34.286  10.101  23.438  0.00  0.00    -0.233 N 
HETATM   14  O   UNK N   1      35.487   9.508  23.352  0.00  0.00    -0.275 OA
HETATM   15  H   UNK N   1      33.990  10.593  24.238  0.00  0.00     0.197 HD
HETATM   16  C   UNK N   1      35.554   9.026  22.010  0.00  0.00     0.236 C 
ENDBRANCH   8  10
ENDBRANCH   2   7
BRANCH   5  17
HETATM   17  C   UNK N   1      35.505  13.143  14.722  0.00  0.00     0.095 C 
HETATM   18  N   UNK N   1      36.090  12.562  13.739  0.00  0.00    -0.383 N 
ATOM     19  HN  UNK N   1      36.748  11.806  13.925  1.00  0.00     0.159 HD
BRANCH  18  20
HETATM   20  C   UNK N   1      35.837  12.958  12.376  0.00  0.00     0.202 C 
HETATM   21  C   UNK N   1      37.095  13.131  11.678  0.00  0.00     0.266 C 
HETATM   22  O   UNK N   1      37.939  12.262  11.537  0.00  0.00    -0.269 OA
HETATM   23  N   UNK N   1      37.240  14.357  11.201  0.00  0.00    -0.233 N 
HETATM   24  O   UNK N   1      36.204  15.175  11.445  0.00  0.00    -0.275 OA
HETATM   25  H   UNK N   1      38.042  14.646  10.707  0.00  0.00     0.197 HD
HETATM   26  C   UNK N   1      35.332  14.408  12.276  0.00  0.00     0.236 C 
ENDBRANCH  18  20
ENDBRANCH   5  17
TORSDOF 4
ENDMDL
MODEL 7
REMARK VINA RESULT:      -6.5     15.766     18.016
REMARK  4 active torsions:
REMARK  status: ('A' for Active; 'I' for Inactive)
REMARK    1  A    between atoms: C_2  and  C_16 
REMARK    2  A    between atoms: C_5  and  C_7 
REMARK    3  A    between atoms: N_8  and  C_10 
REMARK    4  A    between atoms: N_17  and  C_19 
ROOT
HETATM    1  C   UNK N   1      36.222  11.274  16.162  0.00  0.00     0.013 A 
HETATM    2  C   UNK N   1      35.816  12.594  15.909  0.00  0.00    -0.021 A 
HETATM    3  C   UNK N   1      35.289  13.367  16.946  0.00  0.00     0.013 A 
HETATM    4  C   UNK N   1      35.142  12.819  18.221  0.00  0.00     0.013 A 
HETATM    5  C   UNK N   1      35.518  11.490  18.466  0.00  0.00    -0.021 A 
HETATM    6  C   UNK N   1      36.070  10.724  17.436  0.00  0.00     0.013 A 
ENDROOT
BRANCH   2   7
HETATM    7  C   UNK N   1      35.816  13.126  14.542  0.00  0.00     0.095 C 
HETATM    8  N   UNK N   1      35.972  12.342  13.537  0.00  0.00    -0.383 N 
ATOM      9  HN  UNK N   1      36.242  11.372  13.697  1.00  0.00     0.159 HD
BRANCH   8  10
HETATM   10  C   UNK N   1      35.774  12.805  12.187  0.00  0.00     0.202 C 
HETATM   11  C   UNK N   1      37.047  13.188  11.611  0.00  0.00     0.266 C 
HETATM   12  O   UNK N   1      38.006  12.443  11.484  0.00  0.00    -0.269 OA
HETATM   13  N   UNK N   1      37.069  14.455  11.232  0.00  0.00    -0.233 N 
HETATM   14  O   UNK N   1      35.921  15.116  11.443  0.00  0.00    -0.275 OA
HETATM   15  H   UNK N   1      37.862  14.877  10.828  0.00  0.00     0.197 HD
HETATM   16  C   UNK N   1      35.094  14.185  12.141  0.00  0.00     0.236 C 
ENDBRANCH   8  10
ENDBRANCH   2   7
BRANCH   5  17
HETATM   17  C   UNK N   1      35.214  10.853  19.753  0.00  0.00     0.095 C 
HETATM   18  N   UNK N   1      34.371   9.888  19.819  0.00  0.00    -0.383 N 
ATOM     19  HN  UNK N   1      33.805   9.662  19.002  1.00  0.00     0.159 HD
BRANCH  18  20
HETATM   20  C   UNK N   1      34.206   9.116  21.026  0.00  0.00     0.202 C 
HETATM   21  C   UNK N   1      33.519   9.912  22.023  0.00  0.00     0.266 C 
HETATM   22  O   UNK N   1      32.410  10.400  21.882  0.00  0.00    -0.269 OA
HETATM   23  N   UNK N   1      34.234  10.062  23.127  0.00  0.00    -0.233 N 
HETATM   24  O   UNK N   1      35.426   9.446  23.104  0.00  0.00    -0.275 OA
HETATM   25  H   UNK N   1      33.918  10.583  23.900  0.00  0.00     0.197 HD
HETATM   26  C   UNK N   1      35.535   8.926  21.779  0.00  0.00     0.236 C 
ENDBRANCH  18  20
ENDBRANCH   5  17
TORSDOF 4
ENDMDL
MODEL 8
REMARK VINA RESULT:      -6.4     13.256     16.154
REMARK  4 active torsions:
REMARK  status: ('A' for Active; 'I' for Inactive)
REMARK    1  A    between atoms: C_2  and  C_16 
REMARK    2  A    between atoms: C_5  and  C_7 
REMARK    3  A    between atoms: N_8  and  C_10 
REMARK    4  A    between atoms: N_17  and  C_19 
ROOT
HETATM    1  C   UNK N   1      34.552  11.155  12.895  0.00  0.00     0.013 A 
HETATM    2  C   UNK N   1      35.126  12.418  12.684  0.00  0.00    -0.021 A 
HETATM    3  C   UNK N   1      35.630  13.140  13.769  0.00  0.00     0.013 A 
HETATM    4  C   UNK N   1      35.538  12.616  15.060  0.00  0.00     0.013 A 
HETATM    5  C   UNK N   1      34.936  11.367  15.274  0.00  0.00    -0.021 A 
HETATM    6  C   UNK N   1      34.456  10.633  14.186  0.00  0.00     0.013 A 
ENDROOT
BRANCH   2   7
HETATM    7  C   UNK N   1      35.082  13.046  11.359  0.00  0.00     0.095 C 
HETATM    8  N   UNK N   1      34.571  14.214  11.208  0.00  0.00    -0.383 N 
ATOM      9  HN  UNK N   1      34.064  14.642  11.982  1.00  0.00     0.159 HD
BRANCH   8  10
HETATM   10  C   UNK N   1      34.698  14.933   9.965  0.00  0.00     0.202 C 
HETATM   11  C   UNK N   1      35.271  16.240  10.216  0.00  0.00     0.266 C 
HETATM   12  O   UNK N   1      36.359  16.436  10.733  0.00  0.00    -0.269 OA
HETATM   13  N   UNK N   1      34.477  17.223   9.823  0.00  0.00    -0.233 N 
HETATM   14  O   UNK N   1      33.325  16.816   9.268  0.00  0.00    -0.275 OA
HETATM   15  H   UNK N   1      34.713  18.174   9.928  0.00  0.00     0.197 HD
HETATM   16  C   UNK N   1      33.335  15.397   9.421  0.00  0.00     0.236 C 
ENDBRANCH   8  10
ENDBRANCH   2   7
BRANCH   5  17
HETATM   17  C   UNK N   1      34.683  10.883  16.636  0.00  0.00     0.095 C 
HETATM   18  N   UNK N   1      35.466  11.209  17.599  0.00  0.00    -0.383 N 
ATOM     19  HN  UNK N   1      36.345  11.682  17.390  1.00  0.00     0.159 HD
BRANCH  18  20
HETATM   20  C   UNK N   1      35.131  10.918  18.970  0.00  0.00     0.202 C 
HETATM   21  C   UNK N   1      35.471  12.051  19.807  0.00  0.00     0.266 C 
HETATM   22  O   UNK N   1      35.023  13.177  19.670  0.00  0.00    -0.269 OA
HETATM   23  N   UNK N   1      36.340  11.734  20.753  0.00  0.00    -0.233 N 
HETATM   24  O   UNK N   1      36.715  10.446  20.754  0.00  0.00    -0.275 OA
HETATM   25  H   UNK N   1      36.684  12.390  21.403  0.00  0.00     0.197 HD
HETATM   26  C   UNK N   1      36.089   9.890  19.598  0.00  0.00     0.236 C 
ENDBRANCH  18  20
ENDBRANCH   5  17
TORSDOF 4
ENDMDL
MODEL 9
REMARK VINA RESULT:      -6.4      5.027      6.261
REMARK  4 active torsions:
REMARK  status: ('A' for Active; 'I' for Inactive)
REMARK    1  A    between atoms: C_2  and  C_16 
REMARK    2  A    between atoms: C_5  and  C_7 
REMARK    3  A    between atoms: N_8  and  C_10 
REMARK    4  A    between atoms: N_17  and  C_19 
ROOT
HETATM    1  C   UNK N   1      21.761  14.385   7.884  0.00  0.00     0.013 A 
HETATM    2  C   UNK N   1      20.911  14.448   9.000  0.00  0.00    -0.021 A 
HETATM    3  C   UNK N   1      20.965  13.444   9.969  0.00  0.00     0.013 A 
HETATM    4  C   UNK N   1      21.841  12.369   9.814  0.00  0.00     0.013 A 
HETATM    5  C   UNK N   1      22.668  12.290   8.683  0.00  0.00    -0.021 A 
HETATM    6  C   UNK N   1      22.634  13.307   7.727  0.00  0.00     0.013 A 
ENDROOT
BRANCH   2   7
HETATM    7  C   UNK N   1      19.877  15.484   9.092  0.00  0.00     0.095 C 
HETATM    8  N   UNK N   1      20.132  16.693   8.745  0.00  0.00    -0.383 N 
ATOM      9  HN  UNK N   1      21.094  16.963   8.544  1.00  0.00     0.159 HD
BRANCH   8  10
HETATM   10  C   UNK N   1      19.086  17.678   8.634  0.00  0.00     0.202 C 
HETATM   11  C   UNK N   1      19.220  18.654   9.698  0.00  0.00     0.266 C 
HETATM   12  O   UNK N   1      20.204  19.351   9.883  0.00  0.00    -0.269 OA
HETATM   13  N   UNK N   1      18.146  18.711  10.468  0.00  0.00    -0.233 N 
HETATM   14  O   UNK N   1      17.160  17.876  10.107  0.00  0.00    -0.275 OA
HETATM   15  H   UNK N   1      18.077  19.316  11.242  0.00  0.00     0.197 HD
HETATM   16  C   UNK N   1      17.711  17.113   9.034  0.00  0.00     0.236 C 
ENDBRANCH   8  10
ENDBRANCH   2   7
BRANCH   5  17
HETATM   17  C   UNK N   1      23.468  11.086   8.425  0.00  0.00     0.095 C 
HETATM   18  N   UNK N   1      23.325  10.430   7.332  0.00  0.00    -0.383 N 
ATOM     19  HN  UNK N   1      22.552  10.661   6.708  1.00  0.00     0.159 HD
BRANCH  18  20
HETATM   20  C   UNK N   1      24.233   9.371   6.968  0.00  0.00     0.202 C 
HETATM   21  C   UNK N   1      24.223   9.194   5.530  0.00  0.00     0.266 C 
HETATM   22  O   UNK N   1      24.508  10.061   4.719  0.00  0.00    -0.269 OA
HETATM   23  N   UNK N   1      23.864   7.970   5.176  0.00  0.00    -0.233 N 
HETATM   24  O   UNK N   1      23.598   7.151   6.205  0.00  0.00    -0.275 OA
HETATM   25  H   UNK N   1      23.798   7.685   4.236  0.00  0.00     0.197 HD
HETATM   26  C   UNK N   1      23.695   7.984   7.360  0.00  0.00     0.236 C 
ENDBRANCH  18  20
ENDBRANCH   5  17
TORSDOF 4
ENDMDL
