MODEL 1
REMARK VINA RESULT:      -8.3      0.000      0.000
REMARK  8 active torsions:
REMARK  status: ('A' for Active; 'I' for Inactive)
REMARK    1  A    between atoms: C_16  and  C_9 
REMARK    2  A    between atoms: C_17  and  C_9 
REMARK    3  A    between atoms: N_30  and  C_16 
REMARK    4  A    between atoms: N_32  and  C_17 
REMARK    5  A    between atoms: C_26  and  C_22 
REMARK    6  A    between atoms: C_26  and  C_23 
REMARK    7  A    between atoms: N_31  and  C_26 
REMARK    8  A    between atoms: O_33  and  C_27 
ROOT
HETATM    1  C   UNK N   1      34.429  14.770   7.286  0.00  0.00     0.147 C 
HETATM    2  C   UNK N   1      33.623  15.832   9.395  0.00  0.00     0.147 C 
HETATM    3  C   UNK N   1      32.995  14.241   7.083  0.00  0.00     0.293 C 
HETATM    4  C   UNK N   1      32.293  15.119   9.155  0.00  0.00     0.293 C 
HETATM    5  N   UNK N   1      34.718  15.196   8.664  0.00  0.00    -0.409 N 
HETATM    6  N   UNK N   1      31.969  15.074   7.731  0.00  0.00     0.104 N 
ENDROOT
BRANCH   5   7
HETATM    7  C   UNK N   1      35.516  14.281   9.487  0.00  0.00     0.118 C 
BRANCH   7   8
HETATM    8  C   UNK N   1      35.673  14.706  10.945  0.00  0.00     0.040 C 
BRANCH   8   9
HETATM    9  C   UNK N   1      36.644  13.830  11.728  0.00  0.00     0.134 C 
BRANCH   9  10
HETATM   10  N   UNK N   1      36.132  13.457  13.045  0.00  0.00    -0.311 N 
HETATM   11  C   UNK N   1      35.321  12.436  13.367  0.00  0.00     0.064 A 
HETATM   12  C   UNK N   1      34.780  11.448  12.546  0.00  0.00     0.032 A 
HETATM   13  C   UNK N   1      35.054  12.491  14.706  0.00  0.00     0.062 A 
HETATM   14  C   UNK N   1      33.940  10.493  13.151  0.00  0.00     0.002 A 
HETATM   15  C   UNK N   1      33.661  10.555  14.538  0.00  0.00     0.002 A 
HETATM   16  C   UNK N   1      34.225  11.570  15.334  0.00  0.00     0.032 A 
HETATM   17  N   UNK N   1      35.688  13.542  15.259  0.00  0.00    -0.320 N 
HETATM   18  C   UNK N   1      36.337  14.112  14.213  0.00  0.00     0.224 A 
ATOM     19  HN  UNK N   1      35.682  13.840  16.234  1.00  0.00     0.169 HD
BRANCH  18  20
HETATM   20  O   UNK N   1      37.082  15.224  14.330  0.00  0.00    -0.332 OA
HETATM   21  H   UNK N   1      37.934  15.259  13.942  0.00  0.00     0.221 HD
ENDBRANCH  18  20
ENDBRANCH   9  10
ENDBRANCH   8   9
ENDBRANCH   7   8
ENDBRANCH   5   7
BRANCH   6  22
HETATM   22  C   UNK N   1      31.754  16.443   7.177  0.00  0.00     0.289 C 
BRANCH  22  23
HETATM   23  C   UNK N   1      30.572  17.147   7.861  0.00  0.00    -0.021 A 
HETATM   24  C   UNK N   1      30.829  18.139   8.823  0.00  0.00     0.010 A 
HETATM   25  C   UNK N   1      29.782  18.795   9.478  0.00  0.00     0.001 A 
HETATM   26  C   UNK N   1      28.459  18.472   9.176  0.00  0.00     0.000 A 
HETATM   27  C   UNK N   1      28.184  17.494   8.219  0.00  0.00     0.001 A 
HETATM   28  C   UNK N   1      29.233  16.837   7.569  0.00  0.00     0.010 A 
ENDBRANCH  22  23
BRANCH  22  29
HETATM   29  C   UNK N   1      31.870  16.543   5.652  0.00  0.00    -0.021 A 
HETATM   30  C   UNK N   1      31.009  15.857   4.779  0.00  0.00     0.010 A 
HETATM   31  C   UNK N   1      31.127  16.005   3.394  0.00  0.00     0.001 A 
HETATM   32  C   UNK N   1      32.110  16.840   2.861  0.00  0.00     0.000 A 
HETATM   33  C   UNK N   1      32.968  17.534   3.715  0.00  0.00     0.001 A 
HETATM   34  C   UNK N   1      32.839  17.393   5.098  0.00  0.00     0.010 A 
ENDBRANCH  22  29
ENDBRANCH   6  22
TORSDOF 8
ENDMDL
MODEL 2
REMARK VINA RESULT:      -7.9      2.371      9.887
REMARK  8 active torsions:
REMARK  status: ('A' for Active; 'I' for Inactive)
REMARK    1  A    between atoms: C_16  and  C_9 
REMARK    2  A    between atoms: C_17  and  C_9 
REMARK    3  A    between atoms: N_30  and  C_16 
REMARK    4  A    between atoms: N_32  and  C_17 
REMARK    5  A    between atoms: C_26  and  C_22 
REMARK    6  A    between atoms: C_26  and  C_23 
REMARK    7  A    between atoms: N_31  and  C_26 
REMARK    8  A    between atoms: O_33  and  C_27 
ROOT
HETATM    1  C   UNK N   1      36.627  14.192  12.260  0.00  0.00     0.147 C 
HETATM    2  C   UNK N   1      37.134  11.770  11.944  0.00  0.00     0.147 C 
HETATM    3  C   UNK N   1      35.345  13.758  12.998  0.00  0.00     0.293 C 
HETATM    4  C   UNK N   1      35.763  11.481  12.552  0.00  0.00     0.293 C 
HETATM    5  N   UNK N   1      37.223  13.135  11.428  0.00  0.00    -0.409 N 
HETATM    6  N   UNK N   1      35.452  12.429  13.620  0.00  0.00     0.104 N 
ENDROOT
BRANCH   5   7
HETATM    7  C   UNK N   1      37.003  13.227   9.980  0.00  0.00     0.118 C 
BRANCH   7   8
HETATM    8  C   UNK N   1      36.040  14.331   9.550  0.00  0.00     0.040 C 
BRANCH   8   9
HETATM    9  C   UNK N   1      34.706  13.801   9.037  0.00  0.00     0.134 C 
BRANCH   9  10
HETATM   10  N   UNK N   1      33.748  14.867   8.751  0.00  0.00    -0.311 N 
HETATM   11  C   UNK N   1      33.598  15.573   7.619  0.00  0.00     0.064 A 
HETATM   12  C   UNK N   1      34.287  15.461   6.413  0.00  0.00     0.032 A 
HETATM   13  C   UNK N   1      32.616  16.504   7.807  0.00  0.00     0.062 A 
HETATM   14  C   UNK N   1      33.932  16.348   5.379  0.00  0.00     0.002 A 
HETATM   15  C   UNK N   1      32.917  17.316   5.578  0.00  0.00     0.002 A 
HETATM   16  C   UNK N   1      32.244  17.400   6.812  0.00  0.00     0.032 A 
HETATM   17  N   UNK N   1      32.124  16.408   9.056  0.00  0.00    -0.320 N 
HETATM   18  C   UNK N   1      32.840  15.396   9.607  0.00  0.00     0.224 A 
ATOM     19  HN  UNK N   1      31.386  16.964   9.487  1.00  0.00     0.169 HD
BRANCH  18  20
HETATM   20  O   UNK N   1      32.676  14.988  10.876  0.00  0.00    -0.332 OA
HETATM   21  H   UNK N   1      33.065  14.185  11.163  0.00  0.00     0.221 HD
ENDBRANCH  18  20
ENDBRANCH   9  10
ENDBRANCH   8   9
ENDBRANCH   7   8
ENDBRANCH   5   7
BRANCH   6  22
HETATM   22  C   UNK N   1      36.396  12.288  14.766  0.00  0.00     0.289 C 
BRANCH  22  23
HETATM   23  C   UNK N   1      36.451  10.838  15.275  0.00  0.00    -0.021 A 
HETATM   24  C   UNK N   1      37.683  10.161  15.283  0.00  0.00     0.010 A 
HETATM   25  C   UNK N   1      37.774   8.838  15.724  0.00  0.00     0.001 A 
HETATM   26  C   UNK N   1      36.633   8.172  16.173  0.00  0.00     0.000 A 
HETATM   27  C   UNK N   1      35.403   8.831  16.180  0.00  0.00     0.001 A 
HETATM   28  C   UNK N   1      35.314  10.152  15.733  0.00  0.00     0.010 A 
ENDBRANCH  22  23
BRANCH  22  29
HETATM   29  C   UNK N   1      36.319  13.414  15.804  0.00  0.00    -0.021 A 
HETATM   30  C   UNK N   1      35.435  13.381  16.896  0.00  0.00     0.010 A 
HETATM   31  C   UNK N   1      35.422  14.413  17.838  0.00  0.00     0.001 A 
HETATM   32  C   UNK N   1      36.292  15.496  17.701  0.00  0.00     0.000 A 
HETATM   33  C   UNK N   1      37.180  15.540  16.626  0.00  0.00     0.001 A 
HETATM   34  C   UNK N   1      37.198  14.502  15.693  0.00  0.00     0.010 A 
ENDBRANCH  22  29
ENDBRANCH   6  22
TORSDOF 8
ENDMDL
MODEL 3
REMARK VINA RESULT:      -7.7     10.997     14.970
REMARK  8 active torsions:
REMARK  status: ('A' for Active; 'I' for Inactive)
REMARK    1  A    between atoms: C_16  and  C_9 
REMARK    2  A    between atoms: C_17  and  C_9 
REMARK    3  A    between atoms: N_30  and  C_16 
REMARK    4  A    between atoms: N_32  and  C_17 
REMARK    5  A    between atoms: C_26  and  C_22 
REMARK    6  A    between atoms: C_26  and  C_23 
REMARK    7  A    between atoms: N_31  and  C_26 
REMARK    8  A    between atoms: O_33  and  C_27 
ROOT
HETATM    1  C   UNK N   1      20.661  14.103   4.764  0.00  0.00     0.147 C 
HETATM    2  C   UNK N   1      22.844  12.921   5.013  0.00  0.00     0.147 C 
HETATM    3  C   UNK N   1      20.135  13.236   5.925  0.00  0.00     0.293 C 
HETATM    4  C   UNK N   1      22.154  12.024   6.040  0.00  0.00     0.293 C 
HETATM    5  N   UNK N   1      21.880  13.576   4.131  0.00  0.00    -0.409 N 
HETATM    6  N   UNK N   1      21.194  12.783   6.840  0.00  0.00     0.104 N 
ENDROOT
BRANCH   5   7
HETATM    7  C   UNK N   1      21.717  12.900   2.839  0.00  0.00     0.118 C 
BRANCH   7   8
HETATM    8  C   UNK N   1      20.790  13.612   1.858  0.00  0.00     0.040 C 
BRANCH   8   9
HETATM    9  C   UNK N   1      21.435  14.821   1.188  0.00  0.00     0.134 C 
BRANCH   9  10
HETATM   10  N   UNK N   1      20.744  16.072   1.494  0.00  0.00    -0.311 N 
HETATM   11  C   UNK N   1      21.058  16.994   2.418  0.00  0.00     0.064 A 
HETATM   12  C   UNK N   1      22.134  17.023   3.304  0.00  0.00     0.032 A 
HETATM   13  C   UNK N   1      20.111  17.979   2.397  0.00  0.00     0.062 A 
HETATM   14  C   UNK N   1      22.216  18.118   4.186  0.00  0.00     0.002 A 
HETATM   15  C   UNK N   1      21.232  19.135   4.165  0.00  0.00     0.002 A 
HETATM   16  C   UNK N   1      20.157  19.069   3.257  0.00  0.00     0.032 A 
HETATM   17  N   UNK N   1      19.182  17.704   1.463  0.00  0.00    -0.320 N 
HETATM   18  C   UNK N   1      19.600  16.528   0.931  0.00  0.00     0.224 A 
ATOM     19  HN  UNK N   1      18.358  18.250   1.214  1.00  0.00     0.169 HD
BRANCH  18  20
HETATM   20  O   UNK N   1      18.928  15.881  -0.036  0.00  0.00    -0.332 OA
HETATM   21  H   UNK N   1      19.392  15.348  -0.652  0.00  0.00     0.221 HD
ENDBRANCH  18  20
ENDBRANCH   9  10
ENDBRANCH   8   9
ENDBRANCH   7   8
ENDBRANCH   5   7
BRANCH   6  22
HETATM   22  C   UNK N   1      21.875  13.823   7.664  0.00  0.00     0.289 C 
BRANCH  22  23
HETATM   23  C   UNK N   1      22.653  13.197   8.832  0.00  0.00    -0.021 A 
HETATM   24  C   UNK N   1      24.049  13.351   8.886  0.00  0.00     0.010 A 
HETATM   25  C   UNK N   1      24.796  12.786   9.924  0.00  0.00     0.001 A 
HETATM   26  C   UNK N   1      24.156  12.062  10.930  0.00  0.00     0.000 A 
HETATM   27  C   UNK N   1      22.770  11.905  10.898  0.00  0.00     0.001 A 
HETATM   28  C   UNK N   1      22.026  12.467   9.856  0.00  0.00     0.010 A 
ENDBRANCH  22  23
BRANCH  22  29
HETATM   29  C   UNK N   1      21.029  15.071   7.947  0.00  0.00    -0.021 A 
HETATM   30  C   UNK N   1      19.989  15.085   8.891  0.00  0.00     0.010 A 
HETATM   31  C   UNK N   1      19.266  16.255   9.144  0.00  0.00     0.001 A 
HETATM   32  C   UNK N   1      19.572  17.428   8.453  0.00  0.00     0.000 A 
HETATM   33  C   UNK N   1      20.606  17.432   7.517  0.00  0.00     0.001 A 
HETATM   34  C   UNK N   1      21.334  16.265   7.276  0.00  0.00     0.010 A 
ENDBRANCH  22  29
ENDBRANCH   6  22
TORSDOF 8
ENDMDL
MODEL 4
REMARK VINA RESULT:      -7.6      2.355      9.441
REMARK  8 active torsions:
REMARK  status: ('A' for Active; 'I' for Inactive)
REMARK    1  A    between atoms: C_16  and  C_9 
REMARK    2  A    between atoms: C_17  and  C_9 
REMARK    3  A    between atoms: N_30  and  C_16 
REMARK    4  A    between atoms: N_32  and  C_17 
REMARK    5  A    between atoms: C_26  and  C_22 
REMARK    6  A    between atoms: C_26  and  C_23 
REMARK    7  A    between atoms: N_31  and  C_26 
REMARK    8  A    between atoms: O_33  and  C_27 
ROOT
HETATM    1  C   UNK N   1      36.544  10.944  11.760  0.00  0.00     0.147 C 
HETATM    2  C   UNK N   1      34.933  12.842  11.925  0.00  0.00     0.147 C 
HETATM    3  C   UNK N   1      37.561  11.830  12.506  0.00  0.00     0.293 C 
HETATM    4  C   UNK N   1      36.079  13.664  12.513  0.00  0.00     0.293 C 
HETATM    5  N   UNK N   1      35.423  11.691  11.168  0.00  0.00    -0.409 N 
HETATM    6  N   UNK N   1      36.930  12.841  13.370  0.00  0.00     0.104 N 
ENDROOT
BRANCH   5   7
HETATM    7  C   UNK N   1      35.471  11.922   9.720  0.00  0.00     0.118 C 
BRANCH   7   8
HETATM    8  C   UNK N   1      34.479  12.963   9.207  0.00  0.00     0.040 C 
BRANCH   8   9
HETATM    9  C   UNK N   1      35.147  14.126   8.482  0.00  0.00     0.134 C 
BRANCH   9  10
HETATM   10  N   UNK N   1      34.486  15.404   8.737  0.00  0.00    -0.311 N 
HETATM   11  C   UNK N   1      33.346  15.875   8.207  0.00  0.00     0.064 A 
HETATM   12  C   UNK N   1      32.476  15.265   7.306  0.00  0.00     0.032 A 
HETATM   13  C   UNK N   1      33.125  17.136   8.686  0.00  0.00     0.062 A 
HETATM   14  C   UNK N   1      31.344  15.999   6.900  0.00  0.00     0.002 A 
HETATM   15  C   UNK N   1      31.120  17.307   7.394  0.00  0.00     0.002 A 
HETATM   16  C   UNK N   1      32.024  17.891   8.303  0.00  0.00     0.032 A 
HETATM   17  N   UNK N   1      34.116  17.489   9.525  0.00  0.00    -0.320 N 
HETATM   18  C   UNK N   1      34.933  16.406   9.532  0.00  0.00     0.224 A 
ATOM     19  HN  UNK N   1      34.227  18.364  10.036  1.00  0.00     0.169 HD
BRANCH  18  20
HETATM   20  O   UNK N   1      36.075  16.353  10.238  0.00  0.00    -0.332 OA
HETATM   21  H   UNK N   1      36.548  15.547  10.303  0.00  0.00     0.221 HD
ENDBRANCH  18  20
ENDBRANCH   9  10
ENDBRANCH   8   9
ENDBRANCH   7   8
ENDBRANCH   5   7
BRANCH   6  22
HETATM   22  C   UNK N   1      36.186  12.347  14.565  0.00  0.00     0.289 C 
BRANCH  22  23
HETATM   23  C   UNK N   1      36.214  13.373  15.709  0.00  0.00    -0.021 A 
HETATM   24  C   UNK N   1      37.108  14.455  15.637  0.00  0.00     0.010 A 
HETATM   25  C   UNK N   1      37.174  15.403  16.663  0.00  0.00     0.001 A 
HETATM   26  C   UNK N   1      36.341  15.287  17.775  0.00  0.00     0.000 A 
HETATM   27  C   UNK N   1      35.442  14.223  17.861  0.00  0.00     0.001 A 
HETATM   28  C   UNK N   1      35.381  13.274  16.836  0.00  0.00     0.010 A 
ENDBRANCH  22  23
BRANCH  22  29
HETATM   29  C   UNK N   1      36.433  10.874  14.910  0.00  0.00    -0.021 A 
HETATM   30  C   UNK N   1      37.689  10.388  15.312  0.00  0.00     0.010 A 
HETATM   31  C   UNK N   1      37.862   9.044  15.652  0.00  0.00     0.001 A 
HETATM   32  C   UNK N   1      36.780   8.164  15.594  0.00  0.00     0.000 A 
HETATM   33  C   UNK N   1      35.525   8.631  15.204  0.00  0.00     0.001 A 
HETATM   34  C   UNK N   1      35.354   9.978  14.876  0.00  0.00     0.010 A 
ENDBRANCH  22  29
ENDBRANCH   6  22
TORSDOF 8
ENDMDL
MODEL 5
REMARK VINA RESULT:      -7.6      2.719     10.080
REMARK  8 active torsions:
REMARK  status: ('A' for Active; 'I' for Inactive)
REMARK    1  A    between atoms: C_16  and  C_9 
REMARK    2  A    between atoms: C_17  and  C_9 
REMARK    3  A    between atoms: N_30  and  C_16 
REMARK    4  A    between atoms: N_32  and  C_17 
REMARK    5  A    between atoms: C_26  and  C_22 
REMARK    6  A    between atoms: C_26  and  C_23 
REMARK    7  A    between atoms: N_31  and  C_26 
REMARK    8  A    between atoms: O_33  and  C_27 
ROOT
HETATM    1  C   UNK N   1      35.939  14.829  12.300  0.00  0.00     0.147 C 
HETATM    2  C   UNK N   1      37.149  12.830  11.423  0.00  0.00     0.147 C 
HETATM    3  C   UNK N   1      34.981  13.853  13.011  0.00  0.00     0.293 C 
HETATM    4  C   UNK N   1      36.042  11.982  12.046  0.00  0.00     0.293 C 
HETATM    5  N   UNK N   1      36.721  14.213  11.216  0.00  0.00    -0.409 N 
HETATM    6  N   UNK N   1      35.595  12.551  13.316  0.00  0.00     0.104 N 
ENDROOT
BRANCH   5   7
HETATM    7  C   UNK N   1      36.283  14.490   9.843  0.00  0.00     0.118 C 
BRANCH   7   8
HETATM    8  C   UNK N   1      34.893  15.111   9.729  0.00  0.00     0.040 C 
BRANCH   8   9
HETATM    9  C   UNK N   1      34.884  16.434   8.974  0.00  0.00     0.134 C 
BRANCH   9  10
HETATM   10  N   UNK N   1      34.087  16.380   7.749  0.00  0.00    -0.311 N 
HETATM   11  C   UNK N   1      32.802  16.726   7.573  0.00  0.00     0.064 A 
HETATM   12  C   UNK N   1      31.898  17.254   8.494  0.00  0.00     0.032 A 
HETATM   13  C   UNK N   1      32.448  16.465   6.280  0.00  0.00     0.062 A 
HETATM   14  C   UNK N   1      30.591  17.516   8.040  0.00  0.00     0.002 A 
HETATM   15  C   UNK N   1      30.225  17.240   6.700  0.00  0.00     0.002 A 
HETATM   16  C   UNK N   1      31.166  16.704   5.800  0.00  0.00     0.032 A 
HETATM   17  N   UNK N   1      33.497  15.951   5.611  0.00  0.00    -0.320 N 
HETATM   18  C   UNK N   1      34.483  15.912   6.541  0.00  0.00     0.224 A 
ATOM     19  HN  UNK N   1      33.541  15.660   4.635  1.00  0.00     0.169 HD
BRANCH  18  20
HETATM   20  O   UNK N   1      35.713  15.434   6.287  0.00  0.00    -0.332 OA
HETATM   21  H   UNK N   1      36.459  15.995   6.365  0.00  0.00     0.221 HD
ENDBRANCH  18  20
ENDBRANCH   9  10
ENDBRANCH   8   9
ENDBRANCH   7   8
ENDBRANCH   5   7
BRANCH   6  22
HETATM   22  C   UNK N   1      36.685  12.534  14.334  0.00  0.00     0.289 C 
BRANCH  22  23
HETATM   23  C   UNK N   1      37.167  11.102  14.619  0.00  0.00    -0.021 A 
HETATM   24  C   UNK N   1      38.527  10.792  14.452  0.00  0.00     0.010 A 
HETATM   25  C   UNK N   1      39.005   9.499  14.687  0.00  0.00     0.001 A 
HETATM   26  C   UNK N   1      38.128   8.496  15.100  0.00  0.00     0.000 A 
HETATM   27  C   UNK N   1      36.775   8.787  15.279  0.00  0.00     0.001 A 
HETATM   28  C   UNK N   1      36.300  10.080  15.038  0.00  0.00     0.010 A 
ENDBRANCH  22  23
BRANCH  22  29
HETATM   29  C   UNK N   1      36.463  13.471  15.527  0.00  0.00    -0.021 A 
HETATM   30  C   UNK N   1      35.547  13.189  16.555  0.00  0.00     0.010 A 
HETATM   31  C   UNK N   1      35.401  14.054  17.643  0.00  0.00     0.001 A 
HETATM   32  C   UNK N   1      36.170  15.216  17.718  0.00  0.00     0.000 A 
HETATM   33  C   UNK N   1      37.089  15.508  16.710  0.00  0.00     0.001 A 
HETATM   34  C   UNK N   1      37.240  14.635  15.631  0.00  0.00     0.010 A 
ENDBRANCH  22  29
ENDBRANCH   6  22
TORSDOF 8
ENDMDL
MODEL 6
REMARK VINA RESULT:      -7.6      7.210     12.524
REMARK  8 active torsions:
REMARK  status: ('A' for Active; 'I' for Inactive)
REMARK    1  A    between atoms: C_16  and  C_9 
REMARK    2  A    between atoms: C_17  and  C_9 
REMARK    3  A    between atoms: N_30  and  C_16 
REMARK    4  A    between atoms: N_32  and  C_17 
REMARK    5  A    between atoms: C_26  and  C_22 
REMARK    6  A    between atoms: C_26  and  C_23 
REMARK    7  A    between atoms: N_31  and  C_26 
REMARK    8  A    between atoms: O_33  and  C_27 
ROOT
HETATM    1  C   UNK N   1      25.542  16.678   5.314  0.00  0.00     0.147 C 
HETATM    2  C   UNK N   1      26.922  15.371   3.698  0.00  0.00     0.147 C 
HETATM    3  C   UNK N   1      26.631  16.398   6.369  0.00  0.00     0.293 C 
HETATM    4  C   UNK N   1      27.842  15.037   4.871  0.00  0.00     0.293 C 
HETATM    5  N   UNK N   1      25.593  15.780   4.150  0.00  0.00    -0.409 N 
HETATM    6  N   UNK N   1      27.963  16.172   5.785  0.00  0.00     0.104 N 
ENDROOT
BRANCH   5   7
HETATM    7  C   UNK N   1      24.602  14.699   4.102  0.00  0.00     0.118 C 
BRANCH   7   8
HETATM    8  C   UNK N   1      23.295  15.062   3.403  0.00  0.00     0.040 C 
BRANCH   8   9
HETATM    9  C   UNK N   1      22.238  15.617   4.352  0.00  0.00     0.134 C 
BRANCH   9  10
HETATM   10  N   UNK N   1      21.376  16.613   3.718  0.00  0.00    -0.311 N 
HETATM   11  C   UNK N   1      21.653  17.895   3.432  0.00  0.00     0.064 A 
HETATM   12  C   UNK N   1      22.834  18.607   3.631  0.00  0.00     0.032 A 
HETATM   13  C   UNK N   1      20.542  18.475   2.888  0.00  0.00     0.062 A 
HETATM   14  C   UNK N   1      22.847  19.962   3.246  0.00  0.00     0.002 A 
HETATM   15  C   UNK N   1      21.692  20.562   2.688  0.00  0.00     0.002 A 
HETATM   16  C   UNK N   1      20.516  19.810   2.504  0.00  0.00     0.032 A 
HETATM   17  N   UNK N   1      19.542  17.577   2.818  0.00  0.00    -0.320 N 
HETATM   18  C   UNK N   1      20.087  16.448   3.335  0.00  0.00     0.224 A 
ATOM     19  HN  UNK N   1      18.597  17.712   2.459  1.00  0.00     0.169 HD
BRANCH  18  20
HETATM   20  O   UNK N   1      19.404  15.299   3.472  0.00  0.00    -0.332 OA
HETATM   21  H   UNK N   1      18.709  15.094   2.878  0.00  0.00     0.221 HD
ENDBRANCH  18  20
ENDBRANCH   9  10
ENDBRANCH   8   9
ENDBRANCH   7   8
ENDBRANCH   5   7
BRANCH   6  22
HETATM   22  C   UNK N   1      28.623  17.335   5.124  0.00  0.00     0.289 C 
BRANCH  22  23
HETATM   23  C   UNK N   1      30.150  17.288   5.295  0.00  0.00    -0.021 A 
HETATM   24  C   UNK N   1      30.972  17.562   4.189  0.00  0.00     0.010 A 
HETATM   25  C   UNK N   1      32.365  17.517   4.298  0.00  0.00     0.001 A 
HETATM   26  C   UNK N   1      32.959  17.202   5.521  0.00  0.00     0.000 A 
HETATM   27  C   UNK N   1      32.159  16.934   6.633  0.00  0.00     0.001 A 
HETATM   28  C   UNK N   1      30.766  16.976   6.519  0.00  0.00     0.010 A 
ENDBRANCH  22  23
BRANCH  22  29
HETATM   29  C   UNK N   1      27.915  18.678   5.334  0.00  0.00    -0.021 A 
HETATM   30  C   UNK N   1      27.853  19.318   6.583  0.00  0.00     0.010 A 
HETATM   31  C   UNK N   1      27.227  20.560   6.723  0.00  0.00     0.001 A 
HETATM   32  C   UNK N   1      26.652  21.180   5.613  0.00  0.00     0.000 A 
HETATM   33  C   UNK N   1      26.710  20.562   4.364  0.00  0.00     0.001 A 
HETATM   34  C   UNK N   1      27.347  19.327   4.226  0.00  0.00     0.010 A 
ENDBRANCH  22  29
ENDBRANCH   6  22
TORSDOF 8
ENDMDL
MODEL 7
REMARK VINA RESULT:      -7.5      6.765      9.805
REMARK  8 active torsions:
REMARK  status: ('A' for Active; 'I' for Inactive)
REMARK    1  A    between atoms: C_16  and  C_9 
REMARK    2  A    between atoms: C_17  and  C_9 
REMARK    3  A    between atoms: N_30  and  C_16 
REMARK    4  A    between atoms: N_32  and  C_17 
REMARK    5  A    between atoms: C_26  and  C_22 
REMARK    6  A    between atoms: C_26  and  C_23 
REMARK    7  A    between atoms: N_31  and  C_26 
REMARK    8  A    between atoms: O_33  and  C_27 
ROOT
HETATM    1  C   UNK N   1      26.161  15.867   4.937  0.00  0.00     0.147 C 
HETATM    2  C   UNK N   1      28.164  14.635   4.104  0.00  0.00     0.147 C 
HETATM    3  C   UNK N   1      26.957  16.156   6.225  0.00  0.00     0.293 C 
HETATM    4  C   UNK N   1      28.780  14.857   5.484  0.00  0.00     0.293 C 
HETATM    5  N   UNK N   1      26.708  14.763   4.133  0.00  0.00    -0.409 N 
HETATM    6  N   UNK N   1      28.414  16.167   6.018  0.00  0.00     0.104 N 
ENDROOT
BRANCH   5   7
HETATM    7  C   UNK N   1      26.009  13.475   4.212  0.00  0.00     0.118 C 
BRANCH   7   8
HETATM    8  C   UNK N   1      25.598  13.058   5.621  0.00  0.00     0.040 C 
BRANCH   8   9
HETATM    9  C   UNK N   1      24.163  12.550   5.706  0.00  0.00     0.134 C 
BRANCH   9  10
HETATM   10  N   UNK N   1      23.374  13.251   6.716  0.00  0.00    -0.311 N 
HETATM   11  C   UNK N   1      23.092  12.865   7.972  0.00  0.00     0.064 A 
HETATM   12  C   UNK N   1      23.499  11.719   8.652  0.00  0.00     0.032 A 
HETATM   13  C   UNK N   1      22.280  13.800   8.549  0.00  0.00     0.062 A 
HETATM   14  C   UNK N   1      23.041  11.555   9.974  0.00  0.00     0.002 A 
HETATM   15  C   UNK N   1      22.196  12.523  10.568  0.00  0.00     0.002 A 
HETATM   16  C   UNK N   1      21.804  13.667   9.847  0.00  0.00     0.032 A 
HETATM   17  N   UNK N   1      22.031  14.794   7.676  0.00  0.00    -0.320 N 
HETATM   18  C   UNK N   1      22.715  14.425   6.564  0.00  0.00     0.224 A 
ATOM     19  HN  UNK N   1      21.463  15.628   7.817  1.00  0.00     0.169 HD
BRANCH  18  20
HETATM   20  O   UNK N   1      22.712  15.144   5.429  0.00  0.00    -0.332 OA
HETATM   21  H   UNK N   1      22.084  14.958   4.760  0.00  0.00     0.221 HD
ENDBRANCH  18  20
ENDBRANCH   9  10
ENDBRANCH   8   9
ENDBRANCH   7   8
ENDBRANCH   5   7
BRANCH   6  22
HETATM   22  C   UNK N   1      28.977  17.270   5.187  0.00  0.00     0.289 C 
BRANCH  22  23
HETATM   23  C   UNK N   1      30.511  17.314   5.273  0.00  0.00    -0.021 A 
HETATM   24  C   UNK N   1      31.259  17.466   4.093  0.00  0.00     0.010 A 
HETATM   25  C   UNK N   1      32.656  17.497   4.125  0.00  0.00     0.001 A 
HETATM   26  C   UNK N   1      33.328  17.384   5.342  0.00  0.00     0.000 A 
HETATM   27  C   UNK N   1      32.602  17.240   6.526  0.00  0.00     0.001 A 
HETATM   28  C   UNK N   1      31.205  17.204   6.489  0.00  0.00     0.010 A 
ENDBRANCH  22  23
BRANCH  22  29
HETATM   29  C   UNK N   1      28.211  18.595   5.277  0.00  0.00    -0.021 A 
HETATM   30  C   UNK N   1      27.592  19.192   4.165  0.00  0.00     0.010 A 
HETATM   31  C   UNK N   1      26.874  20.383   4.299  0.00  0.00     0.001 A 
HETATM   32  C   UNK N   1      26.765  20.997   5.547  0.00  0.00     0.000 A 
HETATM   33  C   UNK N   1      27.367  20.414   6.662  0.00  0.00     0.001 A 
HETATM   34  C   UNK N   1      28.074  19.218   6.527  0.00  0.00     0.010 A 
ENDBRANCH  22  29
ENDBRANCH   6  22
TORSDOF 8
ENDMDL
MODEL 8
REMARK VINA RESULT:      -7.5      6.827      9.405
REMARK  8 active torsions:
REMARK  status: ('A' for Active; 'I' for Inactive)
REMARK    1  A    between atoms: C_16  and  C_9 
REMARK    2  A    between atoms: C_17  and  C_9 
REMARK    3  A    between atoms: N_30  and  C_16 
REMARK    4  A    between atoms: N_32  and  C_17 
REMARK    5  A    between atoms: C_26  and  C_22 
REMARK    6  A    between atoms: C_26  and  C_23 
REMARK    7  A    between atoms: N_31  and  C_26 
REMARK    8  A    between atoms: O_33  and  C_27 
ROOT
HETATM    1  C   UNK N   1      28.621  14.209   4.927  0.00  0.00     0.147 C 
HETATM    2  C   UNK N   1      26.611  15.586   5.466  0.00  0.00     0.147 C 
HETATM    3  C   UNK N   1      28.945  15.236   3.823  0.00  0.00     0.293 C 
HETATM    4  C   UNK N   1      26.959  16.435   4.245  0.00  0.00     0.293 C 
HETATM    5  N   UNK N   1      27.229  14.263   5.401  0.00  0.00    -0.409 N 
HETATM    6  N   UNK N   1      28.407  16.577   4.099  0.00  0.00     0.104 N 
ENDROOT
BRANCH   5   7
HETATM    7  C   UNK N   1      26.322  13.218   4.913  0.00  0.00     0.118 C 
BRANCH   7   8
HETATM    8  C   UNK N   1      25.637  12.404   6.008  0.00  0.00     0.040 C 
BRANCH   8   9
HETATM    9  C   UNK N   1      24.129  12.288   5.819  0.00  0.00     0.134 C 
BRANCH   9  10
HETATM   10  N   UNK N   1      23.375  13.071   6.796  0.00  0.00    -0.311 N 
HETATM   11  C   UNK N   1      23.043  12.740   8.054  0.00  0.00     0.064 A 
HETATM   12  C   UNK N   1      23.352  11.586   8.772  0.00  0.00     0.032 A 
HETATM   13  C   UNK N   1      22.291  13.747   8.591  0.00  0.00     0.062 A 
HETATM   14  C   UNK N   1      22.860  11.491  10.088  0.00  0.00     0.002 A 
HETATM   15  C   UNK N   1      22.077  12.534  10.641  0.00  0.00     0.002 A 
HETATM   16  C   UNK N   1      21.784  13.684   9.883  0.00  0.00     0.032 A 
HETATM   17  N   UNK N   1      22.132  14.733   7.689  0.00  0.00    -0.320 N 
HETATM   18  C   UNK N   1      22.807  14.286   6.601  0.00  0.00     0.224 A 
ATOM     19  HN  UNK N   1      21.624  15.610   7.797  1.00  0.00     0.169 HD
BRANCH  18  20
HETATM   20  O   UNK N   1      22.878  14.972   5.448  0.00  0.00    -0.332 OA
HETATM   21  H   UNK N   1      23.046  14.521   4.645  0.00  0.00     0.221 HD
ENDBRANCH  18  20
ENDBRANCH   9  10
ENDBRANCH   8   9
ENDBRANCH   7   8
ENDBRANCH   5   7
BRANCH   6  22
HETATM   22  C   UNK N   1      28.999  17.327   5.244  0.00  0.00     0.289 C 
BRANCH  22  23
HETATM   23  C   UNK N   1      28.281  18.667   5.472  0.00  0.00    -0.021 A 
HETATM   24  C   UNK N   1      27.971  19.064   6.784  0.00  0.00     0.010 A 
HETATM   25  C   UNK N   1      27.306  20.268   7.034  0.00  0.00     0.001 A 
HETATM   26  C   UNK N   1      26.947  21.100   5.973  0.00  0.00     0.000 A 
HETATM   27  C   UNK N   1      27.253  20.726   4.663  0.00  0.00     0.001 A 
HETATM   28  C   UNK N   1      27.913  19.519   4.417  0.00  0.00     0.010 A 
ENDBRANCH  22  23
BRANCH  22  29
HETATM   29  C   UNK N   1      30.531  17.311   5.297  0.00  0.00    -0.021 A 
HETATM   30  C   UNK N   1      31.333  17.665   4.200  0.00  0.00     0.010 A 
HETATM   31  C   UNK N   1      32.727  17.671   4.302  0.00  0.00     0.001 A 
HETATM   32  C   UNK N   1      33.340  17.321   5.506  0.00  0.00     0.000 A 
HETATM   33  C   UNK N   1      32.558  16.973   6.608  0.00  0.00     0.001 A 
HETATM   34  C   UNK N   1      31.166  16.980   6.504  0.00  0.00     0.010 A 
ENDBRANCH  22  29
ENDBRANCH   6  22
TORSDOF 8
ENDMDL
MODEL 9
REMARK VINA RESULT:      -7.4      7.131     12.268
REMARK  8 active torsions:
REMARK  status: ('A' for Active; 'I' for Inactive)
REMARK    1  A    between atoms: C_16  and  C_9 
REMARK    2  A    between atoms: C_17  and  C_9 
REMARK    3  A    between atoms: N_30  and  C_16 
REMARK    4  A    between atoms: N_32  and  C_17 
REMARK    5  A    between atoms: C_26  and  C_22 
REMARK    6  A    between atoms: C_26  and  C_23 
REMARK    7  A    between atoms: N_31  and  C_26 
REMARK    8  A    between atoms: O_33  and  C_27 
ROOT
HETATM    1  C   UNK N   1      26.364  16.294   3.744  0.00  0.00     0.147 C 
HETATM    2  C   UNK N   1      28.495  15.351   2.852  0.00  0.00     0.147 C 
HETATM    3  C   UNK N   1      26.954  16.113   5.157  0.00  0.00     0.293 C 
HETATM    4  C   UNK N   1      28.893  15.081   4.302  0.00  0.00     0.293 C 
HETATM    5  N   UNK N   1      27.048  15.506   2.707  0.00  0.00    -0.409 N 
HETATM    6  N   UNK N   1      28.425  16.148   5.183  0.00  0.00     0.104 N 
ENDROOT
BRANCH   5   7
HETATM    7  C   UNK N   1      26.373  14.288   2.247  0.00  0.00     0.118 C 
BRANCH   7   8
HETATM    8  C   UNK N   1      25.024  14.521   1.572  0.00  0.00     0.040 C 
BRANCH   8   9
HETATM    9  C   UNK N   1      23.839  14.082   2.424  0.00  0.00     0.134 C 
BRANCH   9  10
HETATM   10  N   UNK N   1      22.598  14.763   2.061  0.00  0.00    -0.311 N 
HETATM   11  C   UNK N   1      22.046  15.850   2.626  0.00  0.00     0.064 A 
HETATM   12  C   UNK N   1      22.518  16.631   3.679  0.00  0.00     0.032 A 
HETATM   13  C   UNK N   1      20.859  16.115   2.004  0.00  0.00     0.062 A 
HETATM   14  C   UNK N   1      21.722  17.719   4.085  0.00  0.00     0.002 A 
HETATM   15  C   UNK N   1      20.490  17.989   3.441  0.00  0.00     0.002 A 
HETATM   16  C   UNK N   1      20.045  17.175   2.382  0.00  0.00     0.032 A 
HETATM   17  N   UNK N   1      20.634  15.207   1.035  0.00  0.00    -0.320 N 
HETATM   18  C   UNK N   1      21.719  14.394   1.099  0.00  0.00     0.224 A 
ATOM     19  HN  UNK N   1      19.838  15.145   0.402  1.00  0.00     0.169 HD
BRANCH  18  20
HETATM   20  O   UNK N   1      21.881  13.324   0.303  0.00  0.00    -0.332 OA
HETATM   21  H   UNK N   1      22.740  13.067   0.034  0.00  0.00     0.221 HD
ENDBRANCH  18  20
ENDBRANCH   9  10
ENDBRANCH   8   9
ENDBRANCH   7   8
ENDBRANCH   5   7
BRANCH   6  22
HETATM   22  C   UNK N   1      29.082  17.448   4.861  0.00  0.00     0.289 C 
BRANCH  22  23
HETATM   23  C   UNK N   1      30.589  17.406   5.157  0.00  0.00    -0.021 A 
HETATM   24  C   UNK N   1      31.499  17.657   4.116  0.00  0.00     0.010 A 
HETATM   25  C   UNK N   1      32.879  17.615   4.340  0.00  0.00     0.001 A 
HETATM   26  C   UNK N   1      33.371  17.328   5.613  0.00  0.00     0.000 A 
HETATM   27  C   UNK N   1      32.482  17.083   6.661  0.00  0.00     0.001 A 
HETATM   28  C   UNK N   1      31.104  17.120   6.433  0.00  0.00     0.010 A 
ENDBRANCH  22  23
BRANCH  22  29
HETATM   29  C   UNK N   1      28.295  18.689   5.298  0.00  0.00    -0.021 A 
HETATM   30  C   UNK N   1      28.114  19.038   6.647  0.00  0.00     0.010 A 
HETATM   31  C   UNK N   1      27.420  20.199   7.000  0.00  0.00     0.001 A 
HETATM   32  C   UNK N   1      26.894  21.027   6.008  0.00  0.00     0.000 A 
HETATM   33  C   UNK N   1      27.070  20.699   4.664  0.00  0.00     0.001 A 
HETATM   34  C   UNK N   1      27.775  19.545   4.315  0.00  0.00     0.010 A 
ENDBRANCH  22  29
ENDBRANCH   6  22
TORSDOF 8
ENDMDL
