REMARK  4 active torsions:
REMARK  status: ('A' for Active; 'I' for Inactive)
REMARK    1  A    between atoms: C_4  and  O_31 
REMARK    2  A    between atoms: C_7  and  N_8 
REMARK    3  A    between atoms: C_17  and  N_18 
REMARK    4  A    between atoms: C_21  and  N_24 
ROOT
HETATM    1  N   UNK N   1      -0.139   0.524   0.458  0.00  0.00    -0.332 N 
HETATM    2  C   UNK N   1      -0.941  -0.666   0.640  0.00  0.00     0.136 A 
HETATM    3  C   UNK N   1       0.026  -1.846   0.500  0.00  0.00     0.065 A 
HETATM    4  C   UNK N   1       1.342  -1.183   0.264  0.00  0.00     0.017 A 
HETATM    5  C   UNK N   1       1.207   0.158   0.264  0.00  0.00     0.117 A 
HETATM    6  N   UNK N   1       2.277   0.979   0.081  0.00  0.00    -0.346 N 
ATOM      7  HN  UNK N   1       2.153   1.992   0.071  1.00  0.00     0.167 HD
HETATM    8  C   UNK N   1       3.527   0.433  -0.090  0.00  0.00     0.009 A 
HETATM    9  C   UNK N   1       3.704  -0.975  -0.098  0.00  0.00     0.057 A 
HETATM   10  C   UNK N   1       2.581  -1.802   0.067  0.00  0.00     0.067 A 
HETATM   11  C   UNK N   1       4.701   1.323  -0.291  0.00  0.00     0.068 C 
ENDROOT
BRANCH  10  12
HETATM   12  N   UNK N   1       2.637  -3.239   0.001  0.00  0.00    -0.265 N 
HETATM   13  C   UNK N   1       3.691  -4.083   0.067  0.00  0.00     0.120 A 
HETATM   14  C   UNK N   1       3.197  -5.393  -0.044  0.00  0.00     0.069 A 
HETATM   15  C   UNK N   1       1.828  -5.223  -0.202  0.00  0.00     0.127 A 
HETATM   16  N   UNK N   1       1.534  -3.933  -0.169  0.00  0.00    -0.279 N 
ATOM     17  HN  UNK N   1       0.598  -3.539  -0.261  1.00  0.00     0.189 HD
BRANCH  15  18
HETATM   18  N   UNK N   1       0.819  -6.210  -0.375  0.00  0.00    -0.283 N 
HETATM   19  C   UNK N   1       1.016  -7.631  -0.255  0.00  0.00     0.155 A 
HETATM   20  C   UNK N   1      -0.416  -8.198  -0.508  0.00  0.00     0.144 A 
HETATM   21  N   UNK N   1      -1.221  -7.023  -0.759  0.00  0.00    -0.341 N 
HETATM   22  C   UNK N   1      -0.461  -5.941  -0.665  0.00  0.00     0.324 A 
HETATM   23  H   UNK N   1      -2.183  -7.026  -0.968  0.00  0.00     0.164 HD
HETATM   24  O   UNK N   1      -0.900  -4.811  -0.842  0.00  0.00    -0.247 OA
ENDBRANCH  15  18
ENDBRANCH  10  12
BRANCH   1  25
HETATM   25  C   UNK N   1      -0.711   1.840   0.399  0.00  0.00     0.042 A 
HETATM   26  C   UNK N   1       0.108   2.947   0.120  0.00  0.00     0.033 A 
HETATM   27  C   UNK N   1      -0.433   4.233   0.021  0.00  0.00     0.039 A 
HETATM   28  C   UNK N   1      -1.803   4.440   0.196  0.00  0.00     0.068 A 
HETATM   29  C   UNK N   1      -2.628   3.352   0.483  0.00  0.00     0.045 A 
HETATM   30  C   UNK N   1      -2.112   2.066   0.588  0.00  0.00    -0.032 A 
HETATM   31  C   UNK N   1      -3.102   0.991   0.893  0.00  0.00     0.050 C 
BRANCH  28  32
HETATM   32  O   UNK N   1      -2.310   5.690   0.081  0.00  0.00    -0.356 OA
HETATM   33  C   UNK N   1      -3.653   5.969   0.218  0.00  0.00     0.210 C 
ENDBRANCH  28  32
ENDBRANCH   1  25
TORSDOF 4
