REMARK  3 active torsions:
REMARK  status: ('A' for Active; 'I' for Inactive)
REMARK    1  A    between atoms: C_2  and  C_10 
REMARK    2  A    between atoms: N_3  and  N_5 
REMARK       I    between atoms: N_5  and  C_6 
REMARK       I    between atoms: C_6  and  N_9 
REMARK    3  A    between atoms: N_11  and  N_13 
REMARK       I    between atoms: N_13  and  C_14 
REMARK       I    between atoms: C_14  and  N_17 
ROOT
HETATM    1  C   UNK N   1       0.575   2.169  -0.000  0.00  0.00     0.071 C 
HETATM    2  C   UNK N   1       1.366   0.890  -0.000  0.00  0.00     0.039 C 
HETATM    3  N   UNK N   1       2.653   0.914   0.000  0.00  0.00    -0.290 N 
ATOM      4  HN  UNK N   1       3.173   0.037   0.000  1.00  0.00     0.187 HD
ENDROOT
BRANCH   2   5
HETATM    5  C   UNK N   1       0.656  -0.397   0.000  0.00  0.00     0.133 C 
HETATM    6  N   UNK N   1      -0.625  -0.399  -0.000  0.00  0.00    -0.296 N 
ATOM      7  HN  UNK N   1      -1.124   0.491  -0.000  1.00  0.00     0.186 HD
BRANCH   6   8
HETATM    8  N   UNK N   1      -1.340  -1.566  -0.000  0.00  0.00    -0.133 N 
HETATM    9  C   UNK N   1      -2.754  -1.511  -0.000  0.00  0.00     0.684 C 
HETATM   10  N   UNK N   1      -3.437  -2.593   0.000  0.00  0.00    -0.234 N 
HETATM   11  N   UNK N   1      -3.416  -0.261   0.000  0.00  0.00    -0.234 N 
HETATM   12  H   UNK N   1      -4.421  -2.553   0.000  0.00  0.00     0.174 HD
ATOM     13  HN  UNK N   1      -2.963  -3.496   0.000  1.00  0.00     0.174 HD
HETATM   14  H   UNK N   1      -2.893   0.573   0.000  0.00  0.00     0.174 HD
HETATM   15  H   UNK N   1      -4.400  -0.225   0.000  0.00  0.00     0.174 HD
HETATM   16  H   UNK N   1      -0.875  -2.434  -0.000  0.00  0.00     0.205 HD
ENDBRANCH   6   8
ENDBRANCH   2   5
BRANCH   3  17
HETATM   17  N   UNK N   1       3.333   2.107   0.000  0.00  0.00    -0.133 N 
HETATM   18  C   UNK N   1       4.746   2.147   0.000  0.00  0.00     0.684 C 
HETATM   19  N   UNK N   1       5.349   3.275  -0.000  0.00  0.00    -0.234 N 
HETATM   20  N   UNK N   1       5.494   0.948  -0.000  0.00  0.00    -0.234 N 
HETATM   21  H   UNK N   1       6.333   3.306  -0.000  0.00  0.00     0.174 HD
ATOM     22  HN  UNK N   1       4.811   4.141  -0.000  1.00  0.00     0.174 HD
HETATM   23  H   UNK N   1       5.032   0.079  -0.000  0.00  0.00     0.174 HD
HETATM   24  H   UNK N   1       6.478   0.982  -0.000  0.00  0.00     0.174 HD
HETATM   25  H   UNK N   1       2.826   2.952   0.000  0.00  0.00     0.205 HD
ENDBRANCH   3  17
TORSDOF 3
