REMARK  2 active torsions:
REMARK  status: ('A' for Active; 'I' for Inactive)
REMARK    1  A    between atoms: C_4  and  C_7 
REMARK    2  A    between atoms: C_7  and  N_8 
REMARK       I    between atoms: C_17  and  N_18 
ROOT
HETATM    1  N   UNK N   1       1.295  -0.280  -0.600  0.00  0.00    -0.177 N 
HETATM    2  C   UNK N   1       2.533  -0.750  -0.346  0.00  0.00     0.079 A 
HETATM    3  C   UNK N   1       3.772  -0.151  -0.570  0.00  0.00     0.032 A 
HETATM    4  C   UNK N   1       4.926  -0.880  -0.227  0.00  0.00     0.002 A 
HETATM    5  C   UNK N   1       4.816  -2.181   0.315  0.00  0.00     0.002 A 
HETATM    6  C   UNK N   1       3.551  -2.764   0.515  0.00  0.00     0.032 A 
HETATM    7  C   UNK N   1       2.435  -2.009   0.170  0.00  0.00     0.076 A 
HETATM    8  N   UNK N   1       1.146  -2.376   0.245  0.00  0.00    -0.189 N 
ATOM      9  HN  UNK N   1       0.765  -3.259   0.584  1.00  0.00     0.184 HD
HETATM   10  C   UNK N   1       0.464  -1.303  -0.234  0.00  0.00     0.683 A 
HETATM   11  N   UNK N   1      -0.956  -1.314  -0.382  0.00  0.00    -0.214 N 
HETATM   12  C   UNK N   1      -1.691  -2.533  -0.123  0.00  0.00     0.160 C 
HETATM   13  C   UNK N   1      -2.793  -2.240   0.891  0.00  0.00     0.134 C 
HETATM   14  N   UNK N   1      -3.630  -1.140   0.407  0.00  0.00    -0.418 N 
HETATM   15  C   UNK N   1      -2.811   0.070   0.294  0.00  0.00     0.134 C 
HETATM   16  C   UNK N   1      -1.710  -0.139  -0.747  0.00  0.00     0.160 C 
HETATM   17  H   UNK N   1      -4.623  -1.206   0.185  0.00  0.00     0.153 HD
ENDROOT
BRANCH   1  18
HETATM   18  C   UNK N   1       0.931   0.996  -1.231  0.00  0.00     0.186 C 
BRANCH  18  19
HETATM   19  C   UNK N   1       1.350   2.227  -0.476  0.00  0.00    -0.039 A 
HETATM   20  C   UNK N   1       2.703   2.570  -0.350  0.00  0.00     0.009 A 
HETATM   21  C   UNK N   1       3.079   3.761   0.277  0.00  0.00     0.001 A 
HETATM   22  C   UNK N   1       2.101   4.630   0.766  0.00  0.00     0.000 A 
HETATM   23  C   UNK N   1       0.748   4.303   0.630  0.00  0.00     0.001 A 
HETATM   24  C   UNK N   1       0.373   3.107   0.006  0.00  0.00     0.009 A 
ENDBRANCH  18  19
ENDBRANCH   1  18
TORSDOF 2
