REMARK  10 active torsions:
REMARK  status: ('A' for Active; 'I' for Inactive)
REMARK    1  A    between atoms: C_2  and  C_3 
REMARK    2  A    between atoms: C_3  and  C_4 
REMARK    3  A    between atoms: C_4  and  C_5 
REMARK    4  A    between atoms: C_4  and  C_8 
REMARK    5  A    between atoms: C_5  and  C_6 
REMARK       I    between atoms: C_8  and  N_10 
REMARK    6  A    between atoms: N_10  and  C_11 
REMARK    7  A    between atoms: C_19  and  N_14 
REMARK    8  A    between atoms: C_21  and  O_26 
REMARK    9  A    between atoms: C_22  and  C_24 
REMARK   10  A    between atoms: C_24  and  O_25 
ROOT
HETATM    1  C   UNK N   1       3.651  -3.780  -0.083  0.00  0.00     0.112 A 
HETATM    2  C   UNK N   1       4.261  -2.536  -0.206  0.00  0.00     0.066 A 
HETATM    3  C   UNK N   1       5.646  -2.447  -0.085  0.00  0.00     0.102 A 
HETATM    4  N   UNK N   1       6.397  -3.562   0.143  0.00  0.00    -0.276 N 
HETATM    5  C   UNK N   1       5.774  -4.792   0.253  0.00  0.00     0.330 A 
HETATM    6  O   UNK N   1       6.423  -5.803   0.455  0.00  0.00    -0.246 OA
HETATM    7  N   UNK N   1       4.412  -4.881   0.142  0.00  0.00    -0.294 N 
ATOM      8  HN  UNK N   1       3.962  -5.792   0.230  1.00  0.00     0.172 HD
ENDROOT
BRANCH   4   9
HETATM    9  C   UNK N   1       7.859  -3.478   0.304  0.00  0.00     0.307 C 
HETATM   10  C   UNK N   1       8.482  -2.105   0.175  0.00  0.00     0.314 C 
HETATM   11  C   UNK N   1       9.912  -2.545   0.190  0.00  0.00     0.226 C 
HETATM   12  F   UNK N   1       8.179  -1.263   1.230  0.00  0.00    -0.198 F 
HETATM   13  F   UNK N   1       8.153  -1.522  -1.041  0.00  0.00    -0.198 F 
HETATM   14  C   UNK N   1       9.865  -3.851  -0.595  0.00  0.00     0.182 C 
HETATM   15  O   UNK N   1       8.522  -4.285  -0.636  0.00  0.00    -0.350 OA
BRANCH  11  16
HETATM   16  O   UNK N   1      10.757  -1.605  -0.405  0.00  0.00    -0.387 OA
HETATM   17  H   UNK N   1      11.615  -1.787  -0.819  0.00  0.00     0.210 HD
ENDBRANCH  11  16
BRANCH  14  18
HETATM   18  C   UNK N   1      10.703  -4.916   0.100  0.00  0.00     0.199 C 
BRANCH  18  19
HETATM   19  O   UNK N   1      12.059  -4.609   0.015  0.00  0.00    -0.398 OA
HETATM   20  H   UNK N   1      12.717  -5.320  -0.045  0.00  0.00     0.209 HD
ENDBRANCH  18  19
ENDBRANCH  14  18
ENDBRANCH   4   9
BRANCH   1  21
HETATM   21  N   UNK N   1       2.235  -3.865  -0.152  0.00  0.00    -0.313 N 
HETATM   22  C   UNK N   1       1.499  -4.964   0.174  0.00  0.00     0.227 C 
HETATM   23  O   UNK N   1       2.041  -5.985   0.573  0.00  0.00    -0.273 OA
HETATM   24  H   UNK N   1       1.747  -3.068  -0.460  0.00  0.00     0.170 HD
BRANCH  22  25
HETATM   25  C   UNK N   1      -0.006  -4.897   0.151  0.00  0.00     0.078 C 
BRANCH  25  26
HETATM   26  C   UNK N   1      -0.617  -6.099  -0.553  0.00  0.00     0.013 C 
BRANCH  26  27
HETATM   27  C   UNK N   1      -2.037  -6.307  -0.059  0.00  0.00    -0.004 C 
HETATM   28  C   UNK N   1      -2.409  -7.770  -0.179  0.00  0.00     0.005 C 
ENDBRANCH  26  27
ENDBRANCH  25  26
BRANCH  25  29
HETATM   29  C   UNK N   1      -0.510  -3.590  -0.454  0.00  0.00     0.013 C 
BRANCH  29  30
HETATM   30  C   UNK N   1      -1.495  -2.924   0.481  0.00  0.00    -0.004 C 
HETATM   31  C   UNK N   1      -1.675  -1.481   0.061  0.00  0.00     0.005 C 
ENDBRANCH  29  30
ENDBRANCH  25  29
ENDBRANCH  22  25
ENDBRANCH   1  21
TORSDOF 10
