REMARK  4 active torsions:
REMARK  status: ('A' for Active; 'I' for Inactive)
REMARK    1  A    between atoms: C_5  and  O_14 
REMARK    2  A    between atoms: C_6  and  O_15 
REMARK    3  A    between atoms: O_16  and  C_7 
REMARK    4  A    between atoms: C_8  and  N_13 
ROOT
HETATM    1  C   UNK N   1      -3.569   0.336   0.324  0.00  0.00     0.145 A 
HETATM    2  C   UNK N   1      -4.382  -0.768   0.090  0.00  0.00     0.182 A 
HETATM    3  C   UNK N   1      -3.789  -1.991  -0.200  0.00  0.00     0.185 A 
HETATM    4  C   UNK N   1      -1.637  -0.992  -0.044  0.00  0.00     0.330 A 
HETATM    5  F   UNK N   1      -5.731  -0.646   0.150  0.00  0.00    -0.200 F 
HETATM    6  N   UNK N   1      -2.438  -2.085  -0.261  0.00  0.00    -0.286 N 
ATOM      7  HN  UNK N   1      -2.009  -2.986  -0.473  1.00  0.00     0.172 HD
HETATM    8  N   UNK N   1      -2.209   0.241   0.250  0.00  0.00    -0.277 N 
HETATM    9  O   UNK N   1      -0.429  -1.131  -0.091  0.00  0.00    -0.246 OA
ENDROOT
BRANCH   8  10
HETATM   10  C   UNK N   1      -1.421   1.460   0.549  0.00  0.00     0.263 C 
HETATM   11  C   UNK N   1      -1.893   2.683  -0.214  0.00  0.00     0.198 C 
HETATM   12  C   UNK N   1      -0.711   3.550   0.003  0.00  0.00     0.179 C 
HETATM   13  C   UNK N   1       0.377   2.546  -0.269  0.00  0.00     0.151 C 
HETATM   14  C   UNK N   1       1.680   3.008   0.354  0.00  0.00     0.042 C 
HETATM   15  O   UNK N   1      -0.035   1.319   0.294  0.00  0.00    -0.356 OA
BRANCH  11  16
HETATM   16  O   UNK N   1      -3.025   3.243   0.380  0.00  0.00    -0.388 OA
HETATM   17  H   UNK N   1      -3.082   4.119   0.793  0.00  0.00     0.210 HD
ENDBRANCH  11  16
BRANCH  12  18
HETATM   18  O   UNK N   1      -0.678   4.613  -0.900  0.00  0.00    -0.390 OA
HETATM   19  H   UNK N   1      -0.026   4.963  -1.527  0.00  0.00     0.210 HD
ENDBRANCH  12  18
ENDBRANCH   8  10
BRANCH   3  20
HETATM   20  O   UNK N   1      -4.548  -3.079  -0.414  0.00  0.00    -0.344 OA
HETATM   21  H   UNK N   1      -5.469  -3.000  -0.564  0.00  0.00     0.219 HD
ENDBRANCH   3  20
TORSDOF 4
