MODEL 1
REMARK VINA RESULT:      -4.6      0.000      0.000
REMARK  10 active torsions:
REMARK  status: ('A' for Active; 'I' for Inactive)
REMARK    1  A    between atoms: C_1  and  C_2 
REMARK    2  A    between atoms: C_1  and  O_12 
REMARK    3  A    between atoms: C_2  and  C_3 
REMARK    4  A    between atoms: C_2  and  O_11 
REMARK    5  A    between atoms: C_3  and  C_4 
REMARK    6  A    between atoms: C_3  and  O_10 
REMARK    7  A    between atoms: C_4  and  C_5 
REMARK    8  A    between atoms: C_4  and  O_9 
REMARK    9  A    between atoms: C_5  and  C_6 
REMARK   10  A    between atoms: C_5  and  O_8 
ROOT
HETATM    1  C   UNK N   1      20.564  17.591   2.286  0.00  0.00     0.180 C 
ENDROOT
BRANCH   1   2
HETATM    2  C   UNK N   1      19.852  17.047   1.030  0.00  0.00     0.173 C 
BRANCH   2   3
HETATM    3  C   UNK N   1      20.088  15.550   0.850  0.00  0.00     0.198 C 
BRANCH   3   4
HETATM    4  O   UNK N   1      19.093  14.803   1.482  0.00  0.00    -0.398 OA
HETATM    5  H   UNK N   1      18.233  14.614   1.077  0.00  0.00     0.209 HD
ENDBRANCH   3   4
ENDBRANCH   2   3
BRANCH   2   6
HETATM    6  O   UNK N   1      20.320  17.688  -0.117  0.00  0.00    -0.391 OA
HETATM    7  H   UNK N   1      21.225  18.033  -0.171  0.00  0.00     0.210 HD
ENDBRANCH   2   6
ENDBRANCH   1   2
BRANCH   1   8
HETATM    8  C   UNK N   1      19.854  18.822   2.891  0.00  0.00     0.184 C 
BRANCH   8   9
HETATM    9  C   UNK N   1      20.699  20.106   2.770  0.00  0.00     0.210 C 
BRANCH   9  10
HETATM   10  C   UNK N   1      20.534  20.761   1.431  0.00  0.00     0.265 C 
HETATM   11  O   UNK N   1      21.315  20.534   0.522  0.00  0.00    -0.304 OA
ENDBRANCH   9  10
BRANCH   9  12
HETATM   12  O   UNK N   1      20.331  21.031   3.747  0.00  0.00    -0.386 OA
HETATM   13  H   UNK N   1      19.502  20.953   4.246  0.00  0.00     0.210 HD
ENDBRANCH   9  12
ENDBRANCH   8   9
BRANCH   8  14
HETATM   14  O   UNK N   1      18.632  19.022   2.241  0.00  0.00    -0.390 OA
HETATM   15  H   UNK N   1      18.397  19.876   1.846  0.00  0.00     0.210 HD
ENDBRANCH   8  14
ENDBRANCH   1   8
BRANCH   1  16
HETATM   16  O   UNK N   1      20.633  16.576   3.244  0.00  0.00    -0.390 OA
HETATM   17  H   UNK N   1      19.929  15.915   3.336  0.00  0.00     0.210 HD
ENDBRANCH   1  16
TORSDOF 10
ENDMDL
MODEL 2
REMARK VINA RESULT:      -4.6     18.297     19.395
REMARK  10 active torsions:
REMARK  status: ('A' for Active; 'I' for Inactive)
REMARK    1  A    between atoms: C_1  and  C_2 
REMARK    2  A    between atoms: C_1  and  O_12 
REMARK    3  A    between atoms: C_2  and  C_3 
REMARK    4  A    between atoms: C_2  and  O_11 
REMARK    5  A    between atoms: C_3  and  C_4 
REMARK    6  A    between atoms: C_3  and  O_10 
REMARK    7  A    between atoms: C_4  and  C_5 
REMARK    8  A    between atoms: C_4  and  O_9 
REMARK    9  A    between atoms: C_5  and  C_6 
REMARK   10  A    between atoms: C_5  and  O_8 
ROOT
HETATM    1  C   UNK N   1      35.879  13.692  12.518  0.00  0.00     0.180 C 
ENDROOT
BRANCH   1   2
HETATM    2  C   UNK N   1      35.573  13.628  14.029  0.00  0.00     0.173 C 
BRANCH   2   3
HETATM    3  C   UNK N   1      36.728  13.014  14.814  0.00  0.00     0.198 C 
BRANCH   3   4
HETATM    4  O   UNK N   1      37.607  13.997  15.271  0.00  0.00    -0.398 OA
HETATM    5  H   UNK N   1      38.508  14.102  14.930  0.00  0.00     0.209 HD
ENDBRANCH   3   4
ENDBRANCH   2   3
BRANCH   2   6
HETATM    6  O   UNK N   1      34.439  12.852  14.269  0.00  0.00    -0.391 OA
HETATM    7  H   UNK N   1      33.902  12.501  13.541  0.00  0.00     0.210 HD
ENDBRANCH   2   6
ENDBRANCH   1   2
BRANCH   1   8
HETATM    8  C   UNK N   1      35.229  14.911  11.826  0.00  0.00     0.184 C 
BRANCH   8   9
HETATM    9  C   UNK N   1      35.968  15.317  10.535  0.00  0.00     0.210 C 
BRANCH   9  10
HETATM   10  C   UNK N   1      35.100  16.139   9.629  0.00  0.00     0.265 C 
HETATM   11  O   UNK N   1      34.695  17.235   9.975  0.00  0.00    -0.304 OA
ENDBRANCH   9  10
BRANCH   9  12
HETATM   12  O   UNK N   1      37.106  16.068  10.835  0.00  0.00    -0.386 OA
HETATM   13  H   UNK N   1      37.882  16.084  10.253  0.00  0.00     0.210 HD
ENDBRANCH   9  12
ENDBRANCH   8   9
BRANCH   8  14
HETATM   14  O   UNK N   1      33.899  14.616  11.512  0.00  0.00    -0.390 OA
HETATM   15  H   UNK N   1      33.642  14.281  10.639  0.00  0.00     0.210 HD
ENDBRANCH   8  14
ENDBRANCH   1   8
BRANCH   1  16
HETATM   16  O   UNK N   1      37.263  13.736  12.337  0.00  0.00    -0.390 OA
HETATM   17  H   UNK N   1      37.827  14.321  12.866  0.00  0.00     0.210 HD
ENDBRANCH   1  16
TORSDOF 10
ENDMDL
MODEL 3
REMARK VINA RESULT:      -4.5     16.250     17.241
REMARK  10 active torsions:
REMARK  status: ('A' for Active; 'I' for Inactive)
REMARK    1  A    between atoms: C_1  and  C_2 
REMARK    2  A    between atoms: C_1  and  O_12 
REMARK    3  A    between atoms: C_2  and  C_3 
REMARK    4  A    between atoms: C_2  and  O_11 
REMARK    5  A    between atoms: C_3  and  C_4 
REMARK    6  A    between atoms: C_3  and  O_10 
REMARK    7  A    between atoms: C_4  and  C_5 
REMARK    8  A    between atoms: C_4  and  O_9 
REMARK    9  A    between atoms: C_5  and  C_6 
REMARK   10  A    between atoms: C_5  and  O_8 
ROOT
HETATM    1  C   UNK N   1      34.654  15.642  11.083  0.00  0.00     0.180 C 
ENDROOT
BRANCH   1   2
HETATM    2  C   UNK N   1      35.694  14.538  11.366  0.00  0.00     0.173 C 
BRANCH   2   3
HETATM    3  C   UNK N   1      35.582  14.008  12.793  0.00  0.00     0.198 C 
BRANCH   3   4
HETATM    4  O   UNK N   1      34.449  13.208  12.946  0.00  0.00    -0.398 OA
HETATM    5  H   UNK N   1      33.841  13.287  13.697  0.00  0.00     0.209 HD
ENDBRANCH   3   4
ENDBRANCH   2   3
BRANCH   2   6
HETATM    6  O   UNK N   1      36.990  15.027  11.199  0.00  0.00    -0.391 OA
HETATM    7  H   UNK N   1      37.560  15.223  11.960  0.00  0.00     0.210 HD
ENDBRANCH   2   6
ENDBRANCH   1   2
BRANCH   1   8
HETATM    8  C   UNK N   1      34.966  16.444   9.799  0.00  0.00     0.184 C 
BRANCH   8   9
HETATM    9  C   UNK N   1      33.698  16.759   8.981  0.00  0.00     0.210 C 
BRANCH   9  10
HETATM   10  C   UNK N   1      33.833  18.037   8.209  0.00  0.00     0.265 C 
HETATM   11  O   UNK N   1      34.644  18.140   7.305  0.00  0.00    -0.304 OA
ENDBRANCH   9  10
BRANCH   9  12
HETATM   12  O   UNK N   1      33.433  15.734   8.070  0.00  0.00    -0.386 OA
HETATM   13  H   UNK N   1      33.151  15.914   7.160  0.00  0.00     0.210 HD
ENDBRANCH   9  12
ENDBRANCH   8   9
BRANCH   8  14
HETATM   14  O   UNK N   1      35.594  17.645  10.140  0.00  0.00    -0.390 OA
HETATM   15  H   UNK N   1      35.656  17.946  11.060  0.00  0.00     0.210 HD
ENDBRANCH   8  14
ENDBRANCH   1   8
BRANCH   1  16
HETATM   16  O   UNK N   1      33.391  15.057  10.972  0.00  0.00    -0.390 OA
HETATM   17  H   UNK N   1      33.252  14.235  10.478  0.00  0.00     0.210 HD
ENDBRANCH   1  16
TORSDOF 10
ENDMDL
MODEL 4
REMARK VINA RESULT:      -4.5     16.458     17.686
REMARK  10 active torsions:
REMARK  status: ('A' for Active; 'I' for Inactive)
REMARK    1  A    between atoms: C_1  and  C_2 
REMARK    2  A    between atoms: C_1  and  O_12 
REMARK    3  A    between atoms: C_2  and  C_3 
REMARK    4  A    between atoms: C_2  and  O_11 
REMARK    5  A    between atoms: C_3  and  C_4 
REMARK    6  A    between atoms: C_3  and  O_10 
REMARK    7  A    between atoms: C_4  and  C_5 
REMARK    8  A    between atoms: C_4  and  O_9 
REMARK    9  A    between atoms: C_5  and  C_6 
REMARK   10  A    between atoms: C_5  and  O_8 
ROOT
HETATM    1  C   UNK N   1      34.754  16.746  10.136  0.00  0.00     0.180 C 
ENDROOT
BRANCH   1   2
HETATM    2  C   UNK N   1      34.585  16.837   8.606  0.00  0.00     0.173 C 
BRANCH   2   3
HETATM    3  C   UNK N   1      34.252  18.256   8.156  0.00  0.00     0.198 C 
BRANCH   3   4
HETATM    4  O   UNK N   1      35.270  19.146   8.499  0.00  0.00    -0.398 OA
HETATM    5  H   UNK N   1      35.104  20.055   8.793  0.00  0.00     0.209 HD
ENDBRANCH   3   4
ENDBRANCH   2   3
BRANCH   2   6
HETATM    6  O   UNK N   1      33.553  16.004   8.174  0.00  0.00    -0.391 OA
HETATM    7  H   UNK N   1      33.731  15.197   7.666  0.00  0.00     0.210 HD
ENDBRANCH   2   6
ENDBRANCH   1   2
BRANCH   1   8
HETATM    8  C   UNK N   1      34.700  15.294  10.660  0.00  0.00     0.184 C 
BRANCH   8   9
HETATM    9  C   UNK N   1      35.719  15.037  11.788  0.00  0.00     0.210 C 
BRANCH   9  10
HETATM   10  C   UNK N   1      35.297  13.906  12.677  0.00  0.00     0.265 C 
HETATM   11  O   UNK N   1      35.048  12.805  12.214  0.00  0.00    -0.304 OA
ENDBRANCH   9  10
BRANCH   9  12
HETATM   12  O   UNK N   1      36.971  14.722  11.258  0.00  0.00    -0.386 OA
HETATM   13  H   UNK N   1      37.154  13.865  10.842  0.00  0.00     0.210 HD
ENDBRANCH   9  12
ENDBRANCH   8   9
BRANCH   8  14
HETATM   14  O   UNK N   1      33.415  15.019  11.140  0.00  0.00    -0.390 OA
HETATM   15  H   UNK N   1      32.941  14.210  10.895  0.00  0.00     0.210 HD
ENDBRANCH   8  14
ENDBRANCH   1   8
BRANCH   1  16
HETATM   16  O   UNK N   1      35.975  17.325  10.493  0.00  0.00    -0.390 OA
HETATM   17  H   UNK N   1      36.716  17.374   9.869  0.00  0.00     0.210 HD
ENDBRANCH   1  16
TORSDOF 10
ENDMDL
MODEL 5
REMARK VINA RESULT:      -4.4     15.729     16.923
REMARK  10 active torsions:
REMARK  status: ('A' for Active; 'I' for Inactive)
REMARK    1  A    between atoms: C_1  and  C_2 
REMARK    2  A    between atoms: C_1  and  O_12 
REMARK    3  A    between atoms: C_2  and  C_3 
REMARK    4  A    between atoms: C_2  and  O_11 
REMARK    5  A    between atoms: C_3  and  C_4 
REMARK    6  A    between atoms: C_3  and  O_10 
REMARK    7  A    between atoms: C_4  and  C_5 
REMARK    8  A    between atoms: C_4  and  O_9 
REMARK    9  A    between atoms: C_5  and  C_6 
REMARK   10  A    between atoms: C_5  and  O_8 
ROOT
HETATM    1  C   UNK N   1      34.932  16.525   8.922  0.00  0.00     0.180 C 
ENDROOT
BRANCH   1   2
HETATM    2  C   UNK N   1      34.137  17.813   8.626  0.00  0.00     0.173 C 
BRANCH   2   3
HETATM    3  C   UNK N   1      32.711  17.507   8.176  0.00  0.00     0.198 C 
BRANCH   3   4
HETATM    4  O   UNK N   1      31.968  16.935   9.209  0.00  0.00    -0.398 OA
HETATM    5  H   UNK N   1      32.256  16.148   9.697  0.00  0.00     0.209 HD
ENDBRANCH   3   4
ENDBRANCH   2   3
BRANCH   2   6
HETATM    6  O   UNK N   1      34.751  18.548   7.612  0.00  0.00    -0.391 OA
HETATM    7  H   UNK N   1      35.546  19.079   7.781  0.00  0.00     0.210 HD
ENDBRANCH   2   6
ENDBRANCH   1   2
BRANCH   1   8
HETATM    8  C   UNK N   1      35.163  16.298  10.433  0.00  0.00     0.184 C 
BRANCH   8   9
HETATM    9  C   UNK N   1      34.615  14.939  10.914  0.00  0.00     0.210 C 
BRANCH   9  10
HETATM   10  C   UNK N   1      35.270  14.490  12.185  0.00  0.00     0.265 C 
HETATM   11  O   UNK N   1      34.743  13.655  12.900  0.00  0.00    -0.304 OA
ENDBRANCH   9  10
BRANCH   9  12
HETATM   12  O   UNK N   1      33.241  15.018  11.144  0.00  0.00    -0.386 OA
HETATM   13  H   UNK N   1      32.724  15.809  10.923  0.00  0.00     0.210 HD
ENDBRANCH   9  12
ENDBRANCH   8   9
BRANCH   8  14
HETATM   14  O   UNK N   1      36.533  16.356  10.709  0.00  0.00    -0.390 OA
HETATM   15  H   UNK N   1      36.960  15.727  11.311  0.00  0.00     0.210 HD
ENDBRANCH   8  14
ENDBRANCH   1   8
BRANCH   1  16
HETATM   16  O   UNK N   1      34.243  15.434   8.387  0.00  0.00    -0.390 OA
HETATM   17  H   UNK N   1      34.536  14.522   8.542  0.00  0.00     0.210 HD
ENDBRANCH   1  16
TORSDOF 10
ENDMDL
MODEL 6
REMARK VINA RESULT:      -4.3     17.897     19.157
REMARK  10 active torsions:
REMARK  status: ('A' for Active; 'I' for Inactive)
REMARK    1  A    between atoms: C_1  and  C_2 
REMARK    2  A    between atoms: C_1  and  O_12 
REMARK    3  A    between atoms: C_2  and  C_3 
REMARK    4  A    between atoms: C_2  and  O_11 
REMARK    5  A    between atoms: C_3  and  C_4 
REMARK    6  A    between atoms: C_3  and  O_10 
REMARK    7  A    between atoms: C_4  and  C_5 
REMARK    8  A    between atoms: C_4  and  O_9 
REMARK    9  A    between atoms: C_5  and  C_6 
REMARK   10  A    between atoms: C_5  and  O_8 
ROOT
HETATM    1  C   UNK N   1      35.837  15.418  11.594  0.00  0.00     0.180 C 
ENDROOT
BRANCH   1   2
HETATM    2  C   UNK N   1      34.725  15.036  10.596  0.00  0.00     0.173 C 
BRANCH   2   3
HETATM    3  C   UNK N   1      34.559  16.090   9.504  0.00  0.00     0.198 C 
BRANCH   3   4
HETATM    4  O   UNK N   1      34.528  17.376  10.044  0.00  0.00    -0.398 OA
HETATM    5  H   UNK N   1      34.152  17.577  10.915  0.00  0.00     0.209 HD
ENDBRANCH   3   4
ENDBRANCH   2   3
BRANCH   2   6
HETATM    6  O   UNK N   1      33.499  14.910  11.250  0.00  0.00    -0.391 OA
HETATM    7  H   UNK N   1      33.277  14.115  11.760  0.00  0.00     0.210 HD
ENDBRANCH   2   6
ENDBRANCH   1   2
BRANCH   1   8
HETATM    8  C   UNK N   1      36.381  14.202  12.378  0.00  0.00     0.184 C 
BRANCH   8   9
HETATM    9  C   UNK N   1      36.076  14.292  13.887  0.00  0.00     0.210 C 
BRANCH   9  10
HETATM   10  C   UNK N   1      35.570  12.991  14.434  0.00  0.00     0.265 C 
HETATM   11  O   UNK N   1      34.381  12.720  14.404  0.00  0.00    -0.304 OA
ENDBRANCH   9  10
BRANCH   9  12
HETATM   12  O   UNK N   1      37.225  14.639  14.601  0.00  0.00    -0.386 OA
HETATM   13  H   UNK N   1      38.017  14.990  14.165  0.00  0.00     0.210 HD
ENDBRANCH   9  12
ENDBRANCH   8   9
BRANCH   8  14
HETATM   14  O   UNK N   1      35.815  13.029  11.871  0.00  0.00    -0.390 OA
HETATM   15  H   UNK N   1      34.855  12.897  11.840  0.00  0.00     0.210 HD
ENDBRANCH   8  14
ENDBRANCH   1   8
BRANCH   1  16
HETATM   16  O   UNK N   1      36.883  16.028  10.897  0.00  0.00    -0.390 OA
HETATM   17  H   UNK N   1      36.721  16.739  10.257  0.00  0.00     0.210 HD
ENDBRANCH   1  16
TORSDOF 10
ENDMDL
MODEL 7
REMARK VINA RESULT:      -4.3     18.022     19.251
REMARK  10 active torsions:
REMARK  status: ('A' for Active; 'I' for Inactive)
REMARK    1  A    between atoms: C_1  and  C_2 
REMARK    2  A    between atoms: C_1  and  O_12 
REMARK    3  A    between atoms: C_2  and  C_3 
REMARK    4  A    between atoms: C_2  and  O_11 
REMARK    5  A    between atoms: C_3  and  C_4 
REMARK    6  A    between atoms: C_3  and  O_10 
REMARK    7  A    between atoms: C_4  and  C_5 
REMARK    8  A    between atoms: C_4  and  O_9 
REMARK    9  A    between atoms: C_5  and  C_6 
REMARK   10  A    between atoms: C_5  and  O_8 
ROOT
HETATM    1  C   UNK N   1      35.097  14.703  11.401  0.00  0.00     0.180 C 
ENDROOT
BRANCH   1   2
HETATM    2  C   UNK N   1      35.675  16.060  10.949  0.00  0.00     0.173 C 
BRANCH   2   3
HETATM    3  C   UNK N   1      35.068  16.521   9.626  0.00  0.00     0.198 C 
BRANCH   3   4
HETATM    4  O   UNK N   1      33.884  17.230   9.834  0.00  0.00    -0.398 OA
HETATM    5  H   UNK N   1      33.477  17.792   9.158  0.00  0.00     0.209 HD
ENDBRANCH   3   4
ENDBRANCH   2   3
BRANCH   2   6
HETATM    6  O   UNK N   1      37.056  15.973  10.772  0.00  0.00    -0.391 OA
HETATM    7  H   UNK N   1      37.444  15.787   9.902  0.00  0.00     0.210 HD
ENDBRANCH   2   6
ENDBRANCH   1   2
BRANCH   1   8
HETATM    8  C   UNK N   1      35.599  14.274  12.798  0.00  0.00     0.184 C 
BRANCH   8   9
HETATM    9  C   UNK N   1      36.272  12.887  12.780  0.00  0.00     0.210 C 
BRANCH   9  10
HETATM   10  C   UNK N   1      36.958  12.615  11.474  0.00  0.00     0.265 C 
HETATM   11  O   UNK N   1      38.008  13.167  11.192  0.00  0.00    -0.304 OA
ENDBRANCH   9  10
BRANCH   9  12
HETATM   12  O   UNK N   1      37.226  12.790  13.794  0.00  0.00    -0.386 OA
HETATM   13  H   UNK N   1      36.981  12.634  14.719  0.00  0.00     0.210 HD
ENDBRANCH   9  12
ENDBRANCH   8   9
BRANCH   8  14
HETATM   14  O   UNK N   1      36.517  15.216  13.274  0.00  0.00    -0.390 OA
HETATM   15  H   UNK N   1      37.464  15.019  13.337  0.00  0.00     0.210 HD
ENDBRANCH   8  14
ENDBRANCH   1   8
BRANCH   1  16
HETATM   16  O   UNK N   1      33.703  14.785  11.411  0.00  0.00    -0.390 OA
HETATM   17  H   UNK N   1      33.167  14.435  10.683  0.00  0.00     0.210 HD
ENDBRANCH   1  16
TORSDOF 10
ENDMDL
MODEL 8
REMARK VINA RESULT:      -4.2      1.765      4.480
REMARK  10 active torsions:
REMARK  status: ('A' for Active; 'I' for Inactive)
REMARK    1  A    between atoms: C_1  and  C_2 
REMARK    2  A    between atoms: C_1  and  O_12 
REMARK    3  A    between atoms: C_2  and  C_3 
REMARK    4  A    between atoms: C_2  and  O_11 
REMARK    5  A    between atoms: C_3  and  C_4 
REMARK    6  A    between atoms: C_3  and  O_10 
REMARK    7  A    between atoms: C_4  and  C_5 
REMARK    8  A    between atoms: C_4  and  O_9 
REMARK    9  A    between atoms: C_5  and  C_6 
REMARK   10  A    between atoms: C_5  and  O_8 
ROOT
HETATM    1  C   UNK N   1      20.197  18.515   2.306  0.00  0.00     0.180 C 
ENDROOT
BRANCH   1   2
HETATM    2  C   UNK N   1      20.324  20.045   2.462  0.00  0.00     0.173 C 
BRANCH   2   3
HETATM    3  C   UNK N   1      20.802  20.707   1.173  0.00  0.00     0.198 C 
BRANCH   3   4
HETATM    4  O   UNK N   1      20.606  19.871   0.073  0.00  0.00    -0.398 OA
HETATM    5  H   UNK N   1      19.837  19.939  -0.514  0.00  0.00     0.209 HD
ENDBRANCH   3   4
ENDBRANCH   2   3
BRANCH   2   6
HETATM    6  O   UNK N   1      21.239  20.364   3.465  0.00  0.00    -0.391 OA
HETATM    7  H   UNK N   1      21.460  19.732   4.168  0.00  0.00     0.210 HD
ENDBRANCH   2   6
ENDBRANCH   1   2
BRANCH   1   8
HETATM    8  C   UNK N   1      20.642  17.745   3.569  0.00  0.00     0.184 C 
BRANCH   8   9
HETATM    9  C   UNK N   1      19.934  16.383   3.707  0.00  0.00     0.210 C 
BRANCH   9  10
HETATM   10  C   UNK N   1      20.773  15.389   4.454  0.00  0.00     0.265 C 
HETATM   11  O   UNK N   1      21.233  15.657   5.550  0.00  0.00    -0.304 OA
ENDBRANCH   9  10
BRANCH   9  12
HETATM   12  O   UNK N   1      18.726  16.524   4.392  0.00  0.00    -0.386 OA
HETATM   13  H   UNK N   1      18.060  15.818   4.415  0.00  0.00     0.210 HD
ENDBRANCH   9  12
ENDBRANCH   8   9
BRANCH   8  14
HETATM   14  O   UNK N   1      22.024  17.535   3.525  0.00  0.00    -0.390 OA
HETATM   15  H   UNK N   1      22.463  17.191   2.732  0.00  0.00     0.210 HD
ENDBRANCH   8  14
ENDBRANCH   1   8
BRANCH   1  16
HETATM   16  O   UNK N   1      18.869  18.198   2.010  0.00  0.00    -0.390 OA
HETATM   17  H   UNK N   1      18.570  17.278   1.936  0.00  0.00     0.210 HD
ENDBRANCH   1  16
TORSDOF 10
ENDMDL
MODEL 9
REMARK VINA RESULT:      -4.1      1.412      4.236
REMARK  10 active torsions:
REMARK  status: ('A' for Active; 'I' for Inactive)
REMARK    1  A    between atoms: C_1  and  C_2 
REMARK    2  A    between atoms: C_1  and  O_12 
REMARK    3  A    between atoms: C_2  and  C_3 
REMARK    4  A    between atoms: C_2  and  O_11 
REMARK    5  A    between atoms: C_3  and  C_4 
REMARK    6  A    between atoms: C_3  and  O_10 
REMARK    7  A    between atoms: C_4  and  C_5 
REMARK    8  A    between atoms: C_4  and  O_9 
REMARK    9  A    between atoms: C_5  and  C_6 
REMARK   10  A    between atoms: C_5  and  O_8 
ROOT
HETATM    1  C   UNK N   1      19.816  19.605   2.787  0.00  0.00     0.180 C 
ENDROOT
BRANCH   1   2
HETATM    2  C   UNK N   1      20.841  20.010   1.708  0.00  0.00     0.173 C 
BRANCH   2   3
HETATM    3  C   UNK N   1      22.125  20.559   2.324  0.00  0.00     0.198 C 
BRANCH   3   4
HETATM    4  O   UNK N   1      21.936  21.850   2.819  0.00  0.00    -0.398 OA
HETATM    5  H   UNK N   1      22.490  22.602   2.564  0.00  0.00     0.209 HD
ENDBRANCH   3   4
ENDBRANCH   2   3
BRANCH   2   6
HETATM    6  O   UNK N   1      20.315  21.000   0.877  0.00  0.00    -0.391 OA
HETATM    7  H   UNK N   1      20.164  20.841  -0.068  0.00  0.00     0.210 HD
ENDBRANCH   2   6
ENDBRANCH   1   2
BRANCH   1   8
HETATM    8  C   UNK N   1      19.165  18.232   2.510  0.00  0.00     0.184 C 
BRANCH   8   9
HETATM    9  C   UNK N   1      19.922  17.429   1.432  0.00  0.00     0.210 C 
BRANCH   9  10
HETATM   10  C   UNK N   1      20.582  16.210   2.003  0.00  0.00     0.265 C 
HETATM   11  O   UNK N   1      21.613  16.299   2.648  0.00  0.00    -0.304 OA
ENDBRANCH   9  10
BRANCH   9  12
HETATM   12  O   UNK N   1      19.050  17.013   0.426  0.00  0.00    -0.386 OA
HETATM   13  H   UNK N   1      18.102  16.880   0.586  0.00  0.00     0.210 HD
ENDBRANCH   9  12
ENDBRANCH   8   9
BRANCH   8  14
HETATM   14  O   UNK N   1      19.132  17.484   3.691  0.00  0.00    -0.390 OA
HETATM   15  H   UNK N   1      18.868  17.877   4.537  0.00  0.00     0.210 HD
ENDBRANCH   8  14
ENDBRANCH   1   8
BRANCH   1  16
HETATM   16  O   UNK N   1      20.454  19.576   4.030  0.00  0.00    -0.390 OA
HETATM   17  H   UNK N   1      21.338  19.955   4.157  0.00  0.00     0.210 HD
ENDBRANCH   1  16
TORSDOF 10
ENDMDL
