MODEL 1
REMARK VINA RESULT:      -7.7      0.000      0.000
REMARK  5 active torsions:
REMARK  status: ('A' for Active; 'I' for Inactive)
REMARK    1  A    between atoms: C_4  and  C_11 
REMARK    2  A    between atoms: C_8  and  N_9 
REMARK    3  A    between atoms: N_18  and  C_26 
REMARK    4  A    between atoms: C_20  and  C_23 
REMARK    5  A    between atoms: C_23  and  O_25 
ROOT
HETATM    1  C   UNK N   1      27.526  18.416   4.816  0.00  0.00    -0.016 A 
HETATM    2  C   UNK N   1      27.621  19.615   4.102  0.00  0.00     0.014 A 
HETATM    3  C   UNK N   1      26.504  20.217   3.549  0.00  0.00     0.019 A 
HETATM    4  C   UNK N   1      25.236  19.646   3.684  0.00  0.00     0.043 A 
HETATM    5  C   UNK N   1      25.067  18.422   4.392  0.00  0.00     0.055 A 
HETATM    6  C   UNK N   1      26.238  17.801   4.961  0.00  0.00    -0.023 A 
HETATM    7  C   UNK N   1      26.136  16.506   5.700  0.00  0.00     0.051 C 
HETATM    8  N   UNK N   1      23.784  17.882   4.490  0.00  0.00    -0.350 N 
HETATM    9  C   UNK N   1      22.725  18.518   3.910  0.00  0.00     0.114 A 
HETATM   10  C   UNK N   1      22.853  19.720   3.227  0.00  0.00     0.104 A 
HETATM   11  C   UNK N   1      24.128  20.292   3.106  0.00  0.00     0.202 A 
HETATM   12  O   UNK N   1      24.277  21.342   2.503  0.00  0.00    -0.286 OA
ENDROOT
BRANCH   1  13
HETATM   13  C   UNK N   1      28.799  17.850   5.398  0.00  0.00    -0.009 A 
HETATM   14  C   UNK N   1      29.095  17.947   6.759  0.00  0.00     0.024 A 
HETATM   15  C   UNK N   1      30.271  17.440   7.295  0.00  0.00    -0.017 A 
HETATM   16  C   UNK N   1      30.478  17.606   8.762  0.00  0.00     0.052 C 
HETATM   17  C   UNK N   1      31.195  16.803   6.432  0.00  0.00     0.106 A 
HETATM   18  N   UNK N   1      30.898  16.716   5.104  0.00  0.00    -0.351 N 
HETATM   19  C   UNK N   1      29.746  17.218   4.577  0.00  0.00     0.102 A 
ATOM     20  HN  UNK N   1      31.563  16.257   4.481  1.00  0.00     0.166 HD
BRANCH  17  21
HETATM   21  N   UNK N   1      32.429  16.247   6.880  0.00  0.00    -0.380 N 
HETATM   22  C   UNK N   1      33.701  16.925   6.863  0.00  0.00     0.147 C 
HETATM   23  H   UNK N   1      32.411  15.327   7.228  0.00  0.00     0.160 HD
ENDBRANCH  17  21
ENDBRANCH   1  13
BRANCH   8  24
HETATM   24  C   UNK N   1      23.485  16.596   5.151  0.00  0.00     0.090 A 
HETATM   25  C   UNK N   1      22.015  16.245   4.953  0.00  0.00     0.028 A 
HETATM   26  C   UNK N   1      23.069  15.487   4.187  0.00  0.00     0.028 A 
ENDBRANCH   8  24
BRANCH  10  27
HETATM   27  C   UNK N   1      21.631  20.347   2.657  0.00  0.00     0.181 C 
HETATM   28  O   UNK N   1      20.783  19.651   2.118  0.00  0.00    -0.646 OA
BRANCH  27  29
HETATM   29  O   UNK N   1      21.435  21.678   2.732  0.00  0.00    -0.772 OA
HETATM   30  H   UNK N   1      20.569  22.023   2.828  0.00  0.00     0.167 HD
ENDBRANCH  27  29
ENDBRANCH  10  27
TORSDOF 5
ENDMDL
MODEL 2
REMARK VINA RESULT:      -7.4      5.269      8.692
REMARK  5 active torsions:
REMARK  status: ('A' for Active; 'I' for Inactive)
REMARK    1  A    between atoms: C_4  and  C_11 
REMARK    2  A    between atoms: C_8  and  N_9 
REMARK    3  A    between atoms: N_18  and  C_26 
REMARK    4  A    between atoms: C_20  and  C_23 
REMARK    5  A    between atoms: C_23  and  O_25 
ROOT
HETATM    1  C   UNK N   1      29.555  16.310   4.353  0.00  0.00    -0.016 A 
HETATM    2  C   UNK N   1      30.773  16.420   3.676  0.00  0.00     0.014 A 
HETATM    3  C   UNK N   1      31.932  16.800   4.332  0.00  0.00     0.019 A 
HETATM    4  C   UNK N   1      31.926  17.088   5.698  0.00  0.00     0.043 A 
HETATM    5  C   UNK N   1      30.718  17.004   6.449  0.00  0.00     0.055 A 
HETATM    6  C   UNK N   1      29.515  16.611   5.755  0.00  0.00    -0.023 A 
HETATM    7  C   UNK N   1      28.210  16.521   6.476  0.00  0.00     0.051 C 
HETATM    8  N   UNK N   1      30.756  17.314   7.809  0.00  0.00    -0.350 N 
HETATM    9  C   UNK N   1      31.929  17.695   8.393  0.00  0.00     0.114 A 
HETATM   10  C   UNK N   1      33.126  17.771   7.695  0.00  0.00     0.104 A 
HETATM   11  C   UNK N   1      33.126  17.470   6.325  0.00  0.00     0.202 A 
HETATM   12  O   UNK N   1      34.159  17.537   5.680  0.00  0.00    -0.286 OA
ENDROOT
BRANCH   1  13
HETATM   13  C   UNK N   1      28.352  15.870   3.553  0.00  0.00    -0.009 A 
HETATM   14  C   UNK N   1      28.204  14.555   3.107  0.00  0.00     0.024 A 
HETATM   15  C   UNK N   1      27.106  14.150   2.360  0.00  0.00    -0.017 A 
HETATM   16  C   UNK N   1      27.060  12.721   1.938  0.00  0.00     0.052 C 
HETATM   17  C   UNK N   1      26.108  15.102   2.044  0.00  0.00     0.106 A 
HETATM   18  N   UNK N   1      26.263  16.383   2.481  0.00  0.00    -0.351 N 
HETATM   19  C   UNK N   1      27.343  16.783   3.211  0.00  0.00     0.102 A 
ATOM     20  HN  UNK N   1      25.543  17.071   2.255  1.00  0.00     0.166 HD
BRANCH  17  21
HETATM   21  N   UNK N   1      24.942  14.790   1.285  0.00  0.00    -0.380 N 
HETATM   22  C   UNK N   1      23.653  14.461   1.840  0.00  0.00     0.147 C 
HETATM   23  H   UNK N   1      25.023  14.800   0.304  0.00  0.00     0.160 HD
ENDBRANCH  17  21
ENDBRANCH   1  13
BRANCH   8  24
HETATM   24  C   UNK N   1      29.566  17.315   8.683  0.00  0.00     0.090 A 
HETATM   25  C   UNK N   1      29.783  18.275   9.846  0.00  0.00     0.028 A 
HETATM   26  C   UNK N   1      28.838  18.656   8.734  0.00  0.00     0.028 A 
ENDBRANCH   8  24
BRANCH  10  27
HETATM   27  C   UNK N   1      34.355  18.169   8.432  0.00  0.00     0.181 C 
HETATM   28  O   UNK N   1      34.644  17.610   9.480  0.00  0.00    -0.646 OA
BRANCH  27  29
HETATM   29  O   UNK N   1      35.167  19.133   7.959  0.00  0.00    -0.772 OA
HETATM   30  H   UNK N   1      35.942  18.907   7.481  0.00  0.00     0.167 HD
ENDBRANCH  27  29
ENDBRANCH  10  27
TORSDOF 5
ENDMDL
MODEL 3
REMARK VINA RESULT:      -6.9      4.226      8.728
REMARK  5 active torsions:
REMARK  status: ('A' for Active; 'I' for Inactive)
REMARK    1  A    between atoms: C_4  and  C_11 
REMARK    2  A    between atoms: C_8  and  N_9 
REMARK    3  A    between atoms: N_18  and  C_26 
REMARK    4  A    between atoms: C_20  and  C_23 
REMARK    5  A    between atoms: C_23  and  O_25 
ROOT
HETATM    1  C   UNK N   1      27.870  17.595   5.720  0.00  0.00    -0.016 A 
HETATM    2  C   UNK N   1      28.055  17.882   7.076  0.00  0.00     0.014 A 
HETATM    3  C   UNK N   1      29.314  17.876   7.651  0.00  0.00     0.019 A 
HETATM    4  C   UNK N   1      30.451  17.584   6.893  0.00  0.00     0.043 A 
HETATM    5  C   UNK N   1      30.335  17.275   5.507  0.00  0.00     0.055 A 
HETATM    6  C   UNK N   1      29.018  17.279   4.920  0.00  0.00    -0.023 A 
HETATM    7  C   UNK N   1      28.822  16.946   3.477  0.00  0.00     0.051 C 
HETATM    8  N   UNK N   1      31.496  16.975   4.793  0.00  0.00    -0.350 N 
HETATM    9  C   UNK N   1      32.708  16.974   5.422  0.00  0.00     0.114 A 
HETATM   10  C   UNK N   1      32.857  17.286   6.766  0.00  0.00     0.104 A 
HETATM   11  C   UNK N   1      31.712  17.590   7.517  0.00  0.00     0.202 A 
HETATM   12  O   UNK N   1      31.807  17.859   8.703  0.00  0.00    -0.286 OA
ENDROOT
BRANCH   1  13
HETATM   13  C   UNK N   1      26.459  17.646   5.185  0.00  0.00    -0.009 A 
HETATM   14  C   UNK N   1      25.960  18.771   4.526  0.00  0.00     0.024 A 
HETATM   15  C   UNK N   1      24.659  18.826   4.044  0.00  0.00    -0.017 A 
HETATM   16  C   UNK N   1      24.239  20.083   3.361  0.00  0.00     0.052 C 
HETATM   17  C   UNK N   1      23.816  17.705   4.227  0.00  0.00     0.106 A 
HETATM   18  N   UNK N   1      24.312  16.612   4.874  0.00  0.00    -0.351 N 
HETATM   19  C   UNK N   1      25.587  16.559   5.352  0.00  0.00     0.102 A 
ATOM     20  HN  UNK N   1      23.705  15.802   5.006  1.00  0.00     0.166 HD
BRANCH  17  21
HETATM   21  N   UNK N   1      22.467  17.657   3.770  0.00  0.00    -0.380 N 
HETATM   22  C   UNK N   1      21.312  18.030   4.547  0.00  0.00     0.147 C 
HETATM   23  H   UNK N   1      22.311  17.344   2.849  0.00  0.00     0.160 HD
ENDBRANCH  17  21
ENDBRANCH   1  13
BRANCH   8  24
HETATM   24  C   UNK N   1      31.505  16.590   3.368  0.00  0.00     0.090 A 
HETATM   25  C   UNK N   1      32.933  16.300   2.922  0.00  0.00     0.028 A 
HETATM   26  C   UNK N   1      31.970  15.157   3.118  0.00  0.00     0.028 A 
ENDBRANCH   8  24
BRANCH  10  27
HETATM   27  C   UNK N   1      34.225  17.286   7.348  0.00  0.00     0.181 C 
HETATM   28  O   UNK N   1      34.839  16.235   7.462  0.00  0.00    -0.646 OA
BRANCH  27  29
HETATM   29  O   UNK N   1      34.810  18.431   7.748  0.00  0.00    -0.772 OA
HETATM   30  H   UNK N   1      34.287  19.161   8.017  0.00  0.00     0.167 HD
ENDBRANCH  27  29
ENDBRANCH  10  27
TORSDOF 5
ENDMDL
MODEL 4
REMARK VINA RESULT:      -6.9     10.901     13.619
REMARK  5 active torsions:
REMARK  status: ('A' for Active; 'I' for Inactive)
REMARK    1  A    between atoms: C_4  and  C_11 
REMARK    2  A    between atoms: C_8  and  N_9 
REMARK    3  A    between atoms: N_18  and  C_26 
REMARK    4  A    between atoms: C_20  and  C_23 
REMARK    5  A    between atoms: C_23  and  O_25 
ROOT
HETATM    1  C   UNK N   1      29.462  23.723  -4.057  0.00  0.00    -0.016 A 
HETATM    2  C   UNK N   1      30.124  23.677  -2.827  0.00  0.00     0.014 A 
HETATM    3  C   UNK N   1      31.150  22.777  -2.592  0.00  0.00     0.019 A 
HETATM    4  C   UNK N   1      31.563  21.880  -3.580  0.00  0.00     0.043 A 
HETATM    5  C   UNK N   1      30.927  21.867  -4.854  0.00  0.00     0.055 A 
HETATM    6  C   UNK N   1      29.856  22.805  -5.087  0.00  0.00    -0.023 A 
HETATM    7  C   UNK N   1      29.133  22.833  -6.395  0.00  0.00     0.051 C 
HETATM    8  N   UNK N   1      31.363  20.943  -5.806  0.00  0.00    -0.350 N 
HETATM    9  C   UNK N   1      32.371  20.074  -5.507  0.00  0.00     0.114 A 
HETATM   10  C   UNK N   1      33.022  20.072  -4.282  0.00  0.00     0.104 A 
HETATM   11  C   UNK N   1      32.610  20.983  -3.299  0.00  0.00     0.202 A 
HETATM   12  O   UNK N   1      33.154  21.000  -2.208  0.00  0.00    -0.286 OA
ENDROOT
BRANCH   1  13
HETATM   13  C   UNK N   1      28.370  24.753  -4.221  0.00  0.00    -0.009 A 
HETATM   14  C   UNK N   1      28.638  26.049  -4.666  0.00  0.00     0.024 A 
HETATM   15  C   UNK N   1      27.639  27.002  -4.805  0.00  0.00    -0.017 A 
HETATM   16  C   UNK N   1      28.048  28.353  -5.284  0.00  0.00     0.052 C 
HETATM   17  C   UNK N   1      26.307  26.645  -4.486  0.00  0.00     0.106 A 
HETATM   18  N   UNK N   1      26.055  25.378  -4.051  0.00  0.00    -0.351 N 
HETATM   19  C   UNK N   1      27.037  24.443  -3.909  0.00  0.00     0.102 A 
ATOM     20  HN  UNK N   1      25.096  25.119  -3.821  1.00  0.00     0.166 HD
BRANCH  17  21
HETATM   21  N   UNK N   1      25.208  27.546  -4.596  0.00  0.00    -0.380 N 
HETATM   22  C   UNK N   1      24.208  27.514  -5.633  0.00  0.00     0.147 C 
HETATM   23  H   UNK N   1      25.126  28.246  -3.908  0.00  0.00     0.160 HD
ENDBRANCH  17  21
ENDBRANCH   1  13
BRANCH   8  24
HETATM   24  C   UNK N   1      30.753  20.795  -7.142  0.00  0.00     0.090 A 
HETATM   25  C   UNK N   1      31.304  19.548  -7.823  0.00  0.00     0.028 A 
HETATM   26  C   UNK N   1      29.892  19.542  -7.293  0.00  0.00     0.028 A 
ENDBRANCH   8  24
BRANCH  10  27
HETATM   27  C   UNK N   1      34.130  19.102  -4.067  0.00  0.00     0.181 C 
HETATM   28  O   UNK N   1      35.287  19.448  -4.255  0.00  0.00    -0.646 OA
BRANCH  27  29
HETATM   29  O   UNK N   1      33.881  17.844  -3.658  0.00  0.00    -0.772 OA
HETATM   30  H   UNK N   1      34.279  17.116  -4.095  0.00  0.00     0.167 HD
ENDBRANCH  27  29
ENDBRANCH  10  27
TORSDOF 5
ENDMDL
MODEL 5
REMARK VINA RESULT:      -6.9     15.049     18.131
REMARK  5 active torsions:
REMARK  status: ('A' for Active; 'I' for Inactive)
REMARK    1  A    between atoms: C_4  and  C_11 
REMARK    2  A    between atoms: C_8  and  N_9 
REMARK    3  A    between atoms: N_18  and  C_26 
REMARK    4  A    between atoms: C_20  and  C_23 
REMARK    5  A    between atoms: C_23  and  O_25 
ROOT
HETATM    1  C   UNK N   1      35.666  11.085  17.781  0.00  0.00    -0.016 A 
HETATM    2  C   UNK N   1      35.196  12.355  17.435  0.00  0.00     0.014 A 
HETATM    3  C   UNK N   1      35.451  12.905  16.190  0.00  0.00     0.019 A 
HETATM    4  C   UNK N   1      36.191  12.208  15.232  0.00  0.00     0.043 A 
HETATM    5  C   UNK N   1      36.706  10.912  15.520  0.00  0.00     0.055 A 
HETATM    6  C   UNK N   1      36.438  10.350  16.821  0.00  0.00    -0.023 A 
HETATM    7  C   UNK N   1      36.965   9.003  17.197  0.00  0.00     0.051 C 
HETATM    8  N   UNK N   1      37.451  10.258  14.537  0.00  0.00    -0.350 N 
HETATM    9  C   UNK N   1      37.679  10.861  13.334  0.00  0.00     0.114 A 
HETATM   10  C   UNK N   1      37.177  12.115  13.015  0.00  0.00     0.104 A 
HETATM   11  C   UNK N   1      36.426  12.804  13.979  0.00  0.00     0.202 A 
HETATM   12  O   UNK N   1      35.979  13.912  13.735  0.00  0.00    -0.286 OA
ENDROOT
BRANCH   1  13
HETATM   13  C   UNK N   1      35.318  10.566  19.156  0.00  0.00    -0.009 A 
HETATM   14  C   UNK N   1      34.211   9.744  19.375  0.00  0.00     0.024 A 
HETATM   15  C   UNK N   1      33.880   9.276  20.640  0.00  0.00    -0.017 A 
HETATM   16  C   UNK N   1      32.673   8.408  20.750  0.00  0.00     0.052 C 
HETATM   17  C   UNK N   1      34.694   9.644  21.738  0.00  0.00     0.106 A 
HETATM   18  N   UNK N   1      35.770  10.449  21.513  0.00  0.00    -0.351 N 
HETATM   19  C   UNK N   1      36.093  10.913  20.273  0.00  0.00     0.102 A 
ATOM     20  HN  UNK N   1      36.358  10.714  22.304  1.00  0.00     0.166 HD
BRANCH  17  21
HETATM   21  N   UNK N   1      34.444   9.216  23.074  0.00  0.00    -0.380 N 
HETATM   22  C   UNK N   1      33.645   9.930  24.039  0.00  0.00     0.147 C 
HETATM   23  H   UNK N   1      34.849   8.366  23.362  0.00  0.00     0.160 HD
ENDBRANCH  17  21
ENDBRANCH   1  13
BRANCH   8  24
HETATM   24  C   UNK N   1      38.082   8.938  14.730  0.00  0.00     0.090 A 
HETATM   25  C   UNK N   1      38.932   8.591  13.514  0.00  0.00     0.028 A 
HETATM   26  C   UNK N   1      39.606   8.985  14.803  0.00  0.00     0.028 A 
ENDBRANCH   8  24
BRANCH  10  27
HETATM   27  C   UNK N   1      37.457  12.671  11.664  0.00  0.00     0.181 C 
HETATM   28  O   UNK N   1      37.585  11.918  10.710  0.00  0.00    -0.646 OA
BRANCH  27  29
HETATM   29  O   UNK N   1      37.564  13.999  11.469  0.00  0.00    -0.772 OA
HETATM   30  H   UNK N   1      38.354  14.364  11.119  0.00  0.00     0.167 HD
ENDBRANCH  27  29
ENDBRANCH  10  27
TORSDOF 5
ENDMDL
MODEL 6
REMARK VINA RESULT:      -6.7     12.403     14.031
REMARK  5 active torsions:
REMARK  status: ('A' for Active; 'I' for Inactive)
REMARK    1  A    between atoms: C_4  and  C_11 
REMARK    2  A    between atoms: C_8  and  N_9 
REMARK    3  A    between atoms: N_18  and  C_26 
REMARK    4  A    between atoms: C_20  and  C_23 
REMARK    5  A    between atoms: C_23  and  O_25 
ROOT
HETATM    1  C   UNK N   1      27.947  25.022  -5.219  0.00  0.00    -0.016 A 
HETATM    2  C   UNK N   1      29.130  24.554  -4.640  0.00  0.00     0.014 A 
HETATM    3  C   UNK N   1      29.684  23.340  -5.010  0.00  0.00     0.019 A 
HETATM    4  C   UNK N   1      29.080  22.537  -5.980  0.00  0.00     0.043 A 
HETATM    5  C   UNK N   1      27.869  22.949  -6.606  0.00  0.00     0.055 A 
HETATM    6  C   UNK N   1      27.297  24.213  -6.210  0.00  0.00    -0.023 A 
HETATM    7  C   UNK N   1      26.019  24.698  -6.813  0.00  0.00     0.051 C 
HETATM    8  N   UNK N   1      27.293  22.108  -7.560  0.00  0.00    -0.350 N 
HETATM    9  C   UNK N   1      27.883  20.918  -7.870  0.00  0.00     0.114 A 
HETATM   10  C   UNK N   1      29.071  20.494  -7.291  0.00  0.00     0.104 A 
HETATM   11  C   UNK N   1      29.677  21.312  -6.326  0.00  0.00     0.202 A 
HETATM   12  O   UNK N   1      30.717  20.964  -5.790  0.00  0.00    -0.286 OA
ENDROOT
BRANCH   1  13
HETATM   13  C   UNK N   1      27.434  26.367  -4.762  0.00  0.00    -0.009 A 
HETATM   14  C   UNK N   1      27.822  27.555  -5.384  0.00  0.00     0.024 A 
HETATM   15  C   UNK N   1      27.362  28.794  -4.958  0.00  0.00    -0.017 A 
HETATM   16  C   UNK N   1      27.850  29.992  -5.699  0.00  0.00     0.052 C 
HETATM   17  C   UNK N   1      26.472  28.850  -3.860  0.00  0.00     0.106 A 
HETATM   18  N   UNK N   1      26.101  27.684  -3.258  0.00  0.00    -0.351 N 
HETATM   19  C   UNK N   1      26.555  26.468  -3.672  0.00  0.00     0.102 A 
ATOM     20  HN  UNK N   1      25.458  27.723  -2.466  1.00  0.00     0.166 HD
BRANCH  17  21
HETATM   21  N   UNK N   1      25.940  30.068  -3.345  0.00  0.00    -0.380 N 
HETATM   22  C   UNK N   1      26.691  31.062  -2.621  0.00  0.00     0.147 C 
HETATM   23  H   UNK N   1      24.983  30.244  -3.495  0.00  0.00     0.160 HD
ENDBRANCH  17  21
ENDBRANCH   1  13
BRANCH   8  24
HETATM   24  C   UNK N   1      26.015  22.397  -8.241  0.00  0.00     0.090 A 
HETATM   25  C   UNK N   1      25.568  21.174  -9.033  0.00  0.00     0.028 A 
HETATM   26  C   UNK N   1      24.850  21.537  -7.758  0.00  0.00     0.028 A 
ENDBRANCH   8  24
BRANCH  10  27
HETATM   27  C   UNK N   1      29.647  19.193  -7.722  0.00  0.00     0.181 C 
HETATM   28  O   UNK N   1      28.941  18.196  -7.758  0.00  0.00    -0.646 OA
BRANCH  27  29
HETATM   29  O   UNK N   1      30.941  19.092  -8.084  0.00  0.00    -0.772 OA
HETATM   30  H   UNK N   1      31.323  18.251  -8.244  0.00  0.00     0.167 HD
ENDBRANCH  27  29
ENDBRANCH  10  27
TORSDOF 5
ENDMDL
MODEL 7
REMARK VINA RESULT:      -6.7      8.263     12.702
REMARK  5 active torsions:
REMARK  status: ('A' for Active; 'I' for Inactive)
REMARK    1  A    between atoms: C_4  and  C_11 
REMARK    2  A    between atoms: C_8  and  N_9 
REMARK    3  A    between atoms: N_18  and  C_26 
REMARK    4  A    between atoms: C_20  and  C_23 
REMARK    5  A    between atoms: C_23  and  O_25 
ROOT
HETATM    1  C   UNK N   1      34.264  15.598   9.183  0.00  0.00    -0.016 A 
HETATM    2  C   UNK N   1      34.745  16.512  10.125  0.00  0.00     0.014 A 
HETATM    3  C   UNK N   1      35.328  16.091  11.308  0.00  0.00     0.019 A 
HETATM    4  C   UNK N   1      35.458  14.733  11.604  0.00  0.00     0.043 A 
HETATM    5  C   UNK N   1      34.983  13.746  10.693  0.00  0.00     0.055 A 
HETATM    6  C   UNK N   1      34.373  14.195   9.466  0.00  0.00    -0.023 A 
HETATM    7  C   UNK N   1      33.836  13.215   8.474  0.00  0.00     0.051 C 
HETATM    8  N   UNK N   1      35.122  12.400  11.037  0.00  0.00    -0.350 N 
HETATM    9  C   UNK N   1      35.694  12.052  12.226  0.00  0.00     0.114 A 
HETATM   10  C   UNK N   1      36.182  12.987  13.128  0.00  0.00     0.104 A 
HETATM   11  C   UNK N   1      36.058  14.349  12.818  0.00  0.00     0.202 A 
HETATM   12  O   UNK N   1      36.467  15.197  13.593  0.00  0.00    -0.286 OA
ENDROOT
BRANCH   1  13
HETATM   13  C   UNK N   1      33.662  16.156   7.915  0.00  0.00    -0.009 A 
HETATM   14  C   UNK N   1      32.297  16.424   7.802  0.00  0.00     0.024 A 
HETATM   15  C   UNK N   1      31.739  16.925   6.634  0.00  0.00    -0.017 A 
HETATM   16  C   UNK N   1      30.268  17.169   6.633  0.00  0.00     0.052 C 
HETATM   17  C   UNK N   1      32.584  17.171   5.526  0.00  0.00     0.106 A 
HETATM   18  N   UNK N   1      33.915  16.903   5.645  0.00  0.00    -0.351 N 
HETATM   19  C   UNK N   1      34.463  16.407   6.790  0.00  0.00     0.102 A 
ATOM     20  HN  UNK N   1      34.525  17.081   4.847  1.00  0.00     0.166 HD
BRANCH  17  21
HETATM   21  N   UNK N   1      32.113  17.686   4.283  0.00  0.00    -0.380 N 
HETATM   22  C   UNK N   1      32.082  16.957   3.040  0.00  0.00     0.147 C 
HETATM   23  H   UNK N   1      31.783  18.613   4.272  0.00  0.00     0.160 HD
ENDBRANCH  17  21
ENDBRANCH   1  13
BRANCH   8  24
HETATM   24  C   UNK N   1      34.625  11.287  10.206  0.00  0.00     0.090 A 
HETATM   25  C   UNK N   1      35.080   9.959  10.798  0.00  0.00     0.028 A 
HETATM   26  C   UNK N   1      33.636  10.372  10.924  0.00  0.00     0.028 A 
ENDBRANCH   8  24
BRANCH  10  27
HETATM   27  C   UNK N   1      36.816  12.501  14.383  0.00  0.00     0.181 C 
HETATM   28  O   UNK N   1      36.588  11.369  14.782  0.00  0.00    -0.646 OA
BRANCH  27  29
HETATM   29  O   UNK N   1      37.651  13.288  15.088  0.00  0.00    -0.772 OA
HETATM   30  H   UNK N   1      38.007  14.065  14.704  0.00  0.00     0.167 HD
ENDBRANCH  27  29
ENDBRANCH  10  27
TORSDOF 5
ENDMDL
MODEL 8
REMARK VINA RESULT:      -6.5     13.107     17.711
REMARK  5 active torsions:
REMARK  status: ('A' for Active; 'I' for Inactive)
REMARK    1  A    between atoms: C_4  and  C_11 
REMARK    2  A    between atoms: C_8  and  N_9 
REMARK    3  A    between atoms: N_18  and  C_26 
REMARK    4  A    between atoms: C_20  and  C_23 
REMARK    5  A    between atoms: C_23  and  O_25 
ROOT
HETATM    1  C   UNK N   1      35.710  12.691  15.445  0.00  0.00    -0.016 A 
HETATM    2  C   UNK N   1      35.057  13.395  16.461  0.00  0.00     0.014 A 
HETATM    3  C   UNK N   1      34.968  12.891  17.747  0.00  0.00     0.019 A 
HETATM    4  C   UNK N   1      35.529  11.656  18.078  0.00  0.00     0.043 A 
HETATM    5  C   UNK N   1      36.203  10.881  17.090  0.00  0.00     0.055 A 
HETATM    6  C   UNK N   1      36.286  11.414  15.752  0.00  0.00    -0.023 A 
HETATM    7  C   UNK N   1      36.961  10.646  14.662  0.00  0.00     0.051 C 
HETATM    8  N   UNK N   1      36.737   9.646  17.462  0.00  0.00    -0.350 N 
HETATM    9  C   UNK N   1      36.603   9.200  18.745  0.00  0.00     0.114 A 
HETATM   10  C   UNK N   1      35.968   9.936  19.734  0.00  0.00     0.104 A 
HETATM   11  C   UNK N   1      35.416  11.181  19.397  0.00  0.00     0.202 A 
HETATM   12  O   UNK N   1      34.842  11.849  20.241  0.00  0.00    -0.286 OA
ENDROOT
BRANCH   1  13
HETATM   13  C   UNK N   1      35.770  13.335  14.080  0.00  0.00    -0.009 A 
HETATM   14  C   UNK N   1      35.199  12.736  12.956  0.00  0.00     0.024 A 
HETATM   15  C   UNK N   1      35.264  13.319  11.698  0.00  0.00    -0.017 A 
HETATM   16  C   UNK N   1      34.620  12.583  10.572  0.00  0.00     0.052 C 
HETATM   17  C   UNK N   1      35.929  14.560  11.554  0.00  0.00     0.106 A 
HETATM   18  N   UNK N   1      36.486  15.135  12.658  0.00  0.00    -0.351 N 
HETATM   19  C   UNK N   1      36.427  14.561  13.893  0.00  0.00     0.102 A 
ATOM     20  HN  UNK N   1      36.966  16.030  12.556  1.00  0.00     0.166 HD
BRANCH  17  21
HETATM   21  N   UNK N   1      36.051  15.243  10.309  0.00  0.00    -0.380 N 
HETATM   22  C   UNK N   1      35.158  16.269   9.834  0.00  0.00     0.147 C 
HETATM   23  H   UNK N   1      36.805  14.994   9.727  0.00  0.00     0.160 HD
ENDBRANCH  17  21
ENDBRANCH   1  13
BRANCH   8  24
HETATM   24  C   UNK N   1      37.411   8.729  16.523  0.00  0.00     0.090 A 
HETATM   25  C   UNK N   1      37.709   7.406  17.219  0.00  0.00     0.028 A 
HETATM   26  C   UNK N   1      36.603   7.475  16.197  0.00  0.00     0.028 A 
ENDBRANCH   8  24
BRANCH  10  27
HETATM   27  C   UNK N   1      35.903   9.372  21.109  0.00  0.00     0.181 C 
HETATM   28  O   UNK N   1      35.430   8.260  21.289  0.00  0.00    -0.646 OA
BRANCH  27  29
HETATM   29  O   UNK N   1      36.366  10.066  22.167  0.00  0.00    -0.772 OA
HETATM   30  H   UNK N   1      35.849  10.749  22.548  0.00  0.00     0.167 HD
ENDBRANCH  27  29
ENDBRANCH  10  27
TORSDOF 5
ENDMDL
MODEL 9
REMARK VINA RESULT:      -6.3     14.698     18.123
REMARK  5 active torsions:
REMARK  status: ('A' for Active; 'I' for Inactive)
REMARK    1  A    between atoms: C_4  and  C_11 
REMARK    2  A    between atoms: C_8  and  N_9 
REMARK    3  A    between atoms: N_18  and  C_26 
REMARK    4  A    between atoms: C_20  and  C_23 
REMARK    5  A    between atoms: C_23  and  O_25 
ROOT
HETATM    1  C   UNK N   1      34.720   9.865  18.008  0.00  0.00    -0.016 A 
HETATM    2  C   UNK N   1      34.630   9.252  16.755  0.00  0.00     0.014 A 
HETATM    3  C   UNK N   1      34.959   9.930  15.594  0.00  0.00     0.019 A 
HETATM    4  C   UNK N   1      35.394  11.257  15.632  0.00  0.00     0.043 A 
HETATM    5  C   UNK N   1      35.503  11.945  16.874  0.00  0.00     0.055 A 
HETATM    6  C   UNK N   1      35.154  11.231  18.077  0.00  0.00    -0.023 A 
HETATM    7  C   UNK N   1      35.226  11.899  19.412  0.00  0.00     0.051 C 
HETATM    8  N   UNK N   1      35.930  13.274  16.863  0.00  0.00    -0.350 N 
HETATM    9  C   UNK N   1      36.226  13.890  15.681  0.00  0.00     0.114 A 
HETATM   10  C   UNK N   1      36.146  13.243  14.456  0.00  0.00     0.104 A 
HETATM   11  C   UNK N   1      35.719  11.907  14.428  0.00  0.00     0.202 A 
HETATM   12  O   UNK N   1      35.628  11.313  13.367  0.00  0.00    -0.286 OA
ENDROOT
BRANCH   1  13
HETATM   13  C   UNK N   1      34.358   9.035  19.217  0.00  0.00    -0.009 A 
HETATM   14  C   UNK N   1      33.031   8.788  19.571  0.00  0.00     0.024 A 
HETATM   15  C   UNK N   1      32.695   8.036  20.688  0.00  0.00    -0.017 A 
HETATM   16  C   UNK N   1      31.243   7.842  20.967  0.00  0.00     0.052 C 
HETATM   17  C   UNK N   1      33.732   7.505  21.491  0.00  0.00     0.106 A 
HETATM   18  N   UNK N   1      35.025   7.755  21.138  0.00  0.00    -0.351 N 
HETATM   19  C   UNK N   1      35.356   8.496  20.044  0.00  0.00     0.102 A 
ATOM     20  HN  UNK N   1      35.775   7.372  21.715  1.00  0.00     0.166 HD
BRANCH  17  21
HETATM   21  N   UNK N   1      33.496   6.720  22.656  0.00  0.00    -0.380 N 
HETATM   22  C   UNK N   1      33.718   5.299  22.761  0.00  0.00     0.147 C 
HETATM   23  H   UNK N   1      33.154   7.184  23.454  0.00  0.00     0.160 HD
ENDBRANCH  17  21
ENDBRANCH   1  13
BRANCH   8  24
HETATM   24  C   UNK N   1      36.034  14.111  18.074  0.00  0.00     0.090 A 
HETATM   25  C   UNK N   1      36.466  15.521  17.690  0.00  0.00     0.028 A 
HETATM   26  C   UNK N   1      35.041  15.271  18.112  0.00  0.00     0.028 A 
ENDBRANCH   8  24
BRANCH  10  27
HETATM   27  C   UNK N   1      36.521  13.996  13.229  0.00  0.00     0.181 C 
HETATM   28  O   UNK N   1      36.065  15.113  13.037  0.00  0.00    -0.646 OA
BRANCH  27  29
HETATM   29  O   UNK N   1      37.366  13.469  12.323  0.00  0.00    -0.772 OA
HETATM   30  H   UNK N   1      37.348  12.550  12.137  0.00  0.00     0.167 HD
ENDBRANCH  27  29
ENDBRANCH  10  27
TORSDOF 5
ENDMDL
