MODEL 1
REMARK VINA RESULT:      -6.0      0.000      0.000
REMARK  17 active torsions:
REMARK  status: ('A' for Active; 'I' for Inactive)
REMARK    1  A    between atoms: C_4  and  C_1 
REMARK    2  A    between atoms: O_13  and  C_1 
REMARK    3  A    between atoms: C_5  and  C_2 
REMARK    4  A    between atoms: O_14  and  C_2 
REMARK    5  A    between atoms: C_6  and  C_3 
REMARK    6  A    between atoms: O_15  and  C_3 
REMARK    7  A    between atoms: C_7  and  C_4 
REMARK    8  A    between atoms: C_4  and  O_16 
REMARK    9  A    between atoms: C_11  and  C_5 
REMARK   10  A    between atoms: C_5  and  O_17 
REMARK   11  A    between atoms: C_11  and  C_7 
REMARK   12  A    between atoms: C_7  and  O_18 
REMARK   13  A    between atoms: C_8  and  O_19 
REMARK   14  A    between atoms: C_9  and  O_20 
REMARK   15  A    between atoms: C_10  and  O_21 
REMARK   16  A    between atoms: C_11  and  O_23 
REMARK   17  A    between atoms: C_12  and  O_23 
ROOT
HETATM    1  C   UNK N   1      33.227  16.219   7.842  0.00  0.00     0.186 C 
ENDROOT
BRANCH   1   2
HETATM    2  C   UNK N   1      34.142  17.348   7.316  0.00  0.00     0.173 C 
BRANCH   2   3
HETATM    3  C   UNK N   1      34.010  18.627   8.139  0.00  0.00     0.198 C 
BRANCH   3   4
HETATM    4  O   UNK N   1      35.269  19.115   8.492  0.00  0.00    -0.398 OA
HETATM    5  H   UNK N   1      35.727  18.907   9.322  0.00  0.00     0.209 HD
ENDBRANCH   3   4
ENDBRANCH   2   3
BRANCH   2   6
HETATM    6  O   UNK N   1      33.792  17.649   5.998  0.00  0.00    -0.391 OA
HETATM    7  H   UNK N   1      32.974  18.123   5.784  0.00  0.00     0.210 HD
ENDBRANCH   2   6
ENDBRANCH   1   2
BRANCH   1   8
HETATM    8  C   UNK N   1      33.967  14.978   8.453  0.00  0.00     0.180 C 
BRANCH   8   9
HETATM    9  C   UNK N   1      34.277  14.947   9.964  0.00  0.00     0.173 C 
BRANCH   9  10
HETATM   10  C   UNK N   1      35.366  15.943  10.358  0.00  0.00     0.198 C 
BRANCH  10  11
HETATM   11  O   UNK N   1      34.801  17.118  10.856  0.00  0.00    -0.398 OA
HETATM   12  H   UNK N   1      33.876  17.404  10.817  0.00  0.00     0.209 HD
ENDBRANCH  10  11
ENDBRANCH   9  10
BRANCH   9  13
HETATM   13  O   UNK N   1      33.119  15.150  10.718  0.00  0.00    -0.391 OA
HETATM   14  H   UNK N   1      32.441  14.948  11.382  0.00  0.00     0.210 HD
ENDBRANCH   9  13
ENDBRANCH   8   9
BRANCH   8  15
HETATM   15  O   UNK N   1      35.157  14.761   7.751  0.00  0.00    -0.390 OA
HETATM   16  H   UNK N   1      35.830  14.875   7.061  0.00  0.00     0.210 HD
ENDBRANCH   8  15
ENDBRANCH   1   8
BRANCH   1  17
HETATM   17  O   UNK N   1      32.273  16.769   8.752  0.00  0.00    -0.348 OA
BRANCH  17  18
HETATM   18  C   UNK N   1      30.932  16.803   8.253  0.00  0.00     0.292 C 
HETATM   19  C   UNK N   1      29.948  17.482   9.245  0.00  0.00     0.204 C 
HETATM   20  C   UNK N   1      28.529  17.418   8.651  0.00  0.00     0.183 C 
HETATM   21  C   UNK N   1      28.530  18.022   7.238  0.00  0.00     0.180 C 
HETATM   22  C   UNK N   1      29.581  17.277   6.391  0.00  0.00     0.179 C 
HETATM   23  O   UNK N   1      30.866  17.412   6.969  0.00  0.00    -0.348 OA
BRANCH  19  24
HETATM   24  O   UNK N   1      30.299  18.818   9.463  0.00  0.00    -0.388 OA
HETATM   25  H   UNK N   1      30.731  19.671   9.621  0.00  0.00     0.210 HD
ENDBRANCH  19  24
BRANCH  20  26
HETATM   26  O   UNK N   1      27.625  18.099   9.470  0.00  0.00    -0.390 OA
HETATM   27  H   UNK N   1      27.853  18.731  10.171  0.00  0.00     0.210 HD
ENDBRANCH  20  26
BRANCH  21  28
HETATM   28  O   UNK N   1      27.262  17.889   6.664  0.00  0.00    -0.390 OA
HETATM   29  H   UNK N   1      26.504  17.577   7.184  0.00  0.00     0.210 HD
ENDBRANCH  21  28
BRANCH  22  30
HETATM   30  C   UNK N   1      29.635  17.826   4.967  0.00  0.00     0.198 C 
BRANCH  30  31
HETATM   31  O   UNK N   1      30.947  17.828   4.484  0.00  0.00    -0.398 OA
HETATM   32  H   UNK N   1      31.808  18.025   4.087  0.00  0.00     0.209 HD
ENDBRANCH  30  31
ENDBRANCH  22  30
ENDBRANCH  17  18
ENDBRANCH   1  17
TORSDOF 17
ENDMDL
MODEL 2
REMARK VINA RESULT:      -5.7      3.528      7.807
REMARK  17 active torsions:
REMARK  status: ('A' for Active; 'I' for Inactive)
REMARK    1  A    between atoms: C_4  and  C_1 
REMARK    2  A    between atoms: O_13  and  C_1 
REMARK    3  A    between atoms: C_5  and  C_2 
REMARK    4  A    between atoms: O_14  and  C_2 
REMARK    5  A    between atoms: C_6  and  C_3 
REMARK    6  A    between atoms: O_15  and  C_3 
REMARK    7  A    between atoms: C_7  and  C_4 
REMARK    8  A    between atoms: C_4  and  O_16 
REMARK    9  A    between atoms: C_11  and  C_5 
REMARK   10  A    between atoms: C_5  and  O_17 
REMARK   11  A    between atoms: C_11  and  C_7 
REMARK   12  A    between atoms: C_7  and  O_18 
REMARK   13  A    between atoms: C_8  and  O_19 
REMARK   14  A    between atoms: C_9  and  O_20 
REMARK   15  A    between atoms: C_10  and  O_21 
REMARK   16  A    between atoms: C_11  and  O_23 
REMARK   17  A    between atoms: C_12  and  O_23 
ROOT
HETATM    1  C   UNK N   1      34.073  14.536   9.353  0.00  0.00     0.186 C 
ENDROOT
BRANCH   1   2
HETATM    2  C   UNK N   1      33.215  13.399   8.753  0.00  0.00     0.173 C 
BRANCH   2   3
HETATM    3  C   UNK N   1      33.016  13.559   7.248  0.00  0.00     0.198 C 
BRANCH   3   4
HETATM    4  O   UNK N   1      31.762  14.107   6.974  0.00  0.00    -0.398 OA
HETATM    5  H   UNK N   1      30.939  13.596   6.919  0.00  0.00     0.209 HD
ENDBRANCH   3   4
ENDBRANCH   2   3
BRANCH   2   6
HETATM    6  O   UNK N   1      31.954  13.407   9.354  0.00  0.00    -0.391 OA
HETATM    7  H   UNK N   1      31.752  12.846  10.119  0.00  0.00     0.210 HD
ENDBRANCH   2   6
ENDBRANCH   1   2
BRANCH   1   8
HETATM    8  C   UNK N   1      33.808  15.965   8.762  0.00  0.00     0.180 C 
BRANCH   8   9
HETATM    9  C   UNK N   1      34.814  17.101   9.039  0.00  0.00     0.173 C 
BRANCH   9  10
HETATM   10  C   UNK N   1      34.494  18.369   8.250  0.00  0.00     0.198 C 
BRANCH  10  11
HETATM   11  O   UNK N   1      35.388  19.390   8.576  0.00  0.00    -0.398 OA
HETATM   12  H   UNK N   1      36.151  19.354   9.174  0.00  0.00     0.209 HD
ENDBRANCH  10  11
ENDBRANCH   9  10
BRANCH   9  13
HETATM   13  O   UNK N   1      34.899  17.372  10.406  0.00  0.00    -0.391 OA
HETATM   14  H   UNK N   1      34.931  17.170  11.355  0.00  0.00     0.210 HD
ENDBRANCH   9  13
ENDBRANCH   8   9
BRANCH   8  15
HETATM   15  O   UNK N   1      32.534  16.394   9.148  0.00  0.00    -0.390 OA
HETATM   16  H   UNK N   1      31.830  16.714   9.735  0.00  0.00     0.210 HD
ENDBRANCH   8  15
ENDBRANCH   1   8
BRANCH   1  17
HETATM   17  O   UNK N   1      33.950  14.519  10.775  0.00  0.00    -0.348 OA
BRANCH  17  18
HETATM   18  C   UNK N   1      34.891  13.669  11.439  0.00  0.00     0.292 C 
HETATM   19  C   UNK N   1      36.346  13.891  10.941  0.00  0.00     0.204 C 
HETATM   20  C   UNK N   1      37.271  12.897  11.666  0.00  0.00     0.183 C 
HETATM   21  C   UNK N   1      37.088  13.031  13.185  0.00  0.00     0.180 C 
HETATM   22  C   UNK N   1      35.596  12.829  13.516  0.00  0.00     0.179 C 
HETATM   23  O   UNK N   1      34.808  13.801  12.854  0.00  0.00    -0.348 OA
BRANCH  19  24
HETATM   24  O   UNK N   1      36.771  15.196  11.206  0.00  0.00    -0.388 OA
HETATM   25  H   UNK N   1      36.947  16.084  11.552  0.00  0.00     0.210 HD
ENDBRANCH  19  24
BRANCH  20  26
HETATM   26  O   UNK N   1      38.604  13.124  11.314  0.00  0.00    -0.390 OA
HETATM   27  H   UNK N   1      38.970  13.096  10.416  0.00  0.00     0.210 HD
ENDBRANCH  20  26
BRANCH  21  28
HETATM   28  O   UNK N   1      37.864  12.072  13.844  0.00  0.00    -0.390 OA
HETATM   29  H   UNK N   1      37.717  11.861  14.779  0.00  0.00     0.210 HD
ENDBRANCH  21  28
BRANCH  22  30
HETATM   30  C   UNK N   1      35.340  12.948  15.017  0.00  0.00     0.198 C 
BRANCH  30  31
HETATM   31  O   UNK N   1      34.010  12.646  15.321  0.00  0.00    -0.398 OA
HETATM   32  H   UNK N   1      33.072  12.644  15.564  0.00  0.00     0.209 HD
ENDBRANCH  30  31
ENDBRANCH  22  30
ENDBRANCH  17  18
ENDBRANCH   1  17
TORSDOF 17
ENDMDL
MODEL 3
REMARK VINA RESULT:      -5.7     10.003     13.048
REMARK  17 active torsions:
REMARK  status: ('A' for Active; 'I' for Inactive)
REMARK    1  A    between atoms: C_4  and  C_1 
REMARK    2  A    between atoms: O_13  and  C_1 
REMARK    3  A    between atoms: C_5  and  C_2 
REMARK    4  A    between atoms: O_14  and  C_2 
REMARK    5  A    between atoms: C_6  and  C_3 
REMARK    6  A    between atoms: O_15  and  C_3 
REMARK    7  A    between atoms: C_7  and  C_4 
REMARK    8  A    between atoms: C_4  and  O_16 
REMARK    9  A    between atoms: C_11  and  C_5 
REMARK   10  A    between atoms: C_5  and  O_17 
REMARK   11  A    between atoms: C_11  and  C_7 
REMARK   12  A    between atoms: C_7  and  O_18 
REMARK   13  A    between atoms: C_8  and  O_19 
REMARK   14  A    between atoms: C_9  and  O_20 
REMARK   15  A    between atoms: C_10  and  O_21 
REMARK   16  A    between atoms: C_11  and  O_23 
REMARK   17  A    between atoms: C_12  and  O_23 
ROOT
HETATM    1  C   UNK N   1      21.210  18.083   3.244  0.00  0.00     0.186 C 
ENDROOT
BRANCH   1   2
HETATM    2  C   UNK N   1      20.128  16.999   3.034  0.00  0.00     0.173 C 
BRANCH   2   3
HETATM    3  C   UNK N   1      20.105  16.477   1.600  0.00  0.00     0.198 C 
BRANCH   3   4
HETATM    4  O   UNK N   1      19.228  17.231   0.818  0.00  0.00    -0.398 OA
HETATM    5  H   UNK N   1      19.327  17.374  -0.137  0.00  0.00     0.209 HD
ENDBRANCH   3   4
ENDBRANCH   2   3
BRANCH   2   6
HETATM    6  O   UNK N   1      18.871  17.543   3.312  0.00  0.00    -0.391 OA
HETATM    7  H   UNK N   1      18.148  17.509   2.667  0.00  0.00     0.210 HD
ENDBRANCH   2   6
ENDBRANCH   1   2
BRANCH   1   8
HETATM    8  C   UNK N   1      20.730  19.563   3.046  0.00  0.00     0.180 C 
BRANCH   8   9
HETATM    9  C   UNK N   1      21.525  20.502   2.116  0.00  0.00     0.173 C 
BRANCH   9  10
HETATM   10  C   UNK N   1      20.742  20.881   0.860  0.00  0.00     0.198 C 
BRANCH  10  11
HETATM   11  O   UNK N   1      20.611  19.781   0.011  0.00  0.00    -0.398 OA
HETATM   12  H   UNK N   1      20.319  19.766  -0.913  0.00  0.00     0.209 HD
ENDBRANCH  10  11
ENDBRANCH   9  10
BRANCH   9  13
HETATM   13  O   UNK N   1      21.952  21.642   2.800  0.00  0.00    -0.391 OA
HETATM   14  H   UNK N   1      22.423  22.481   2.927  0.00  0.00     0.210 HD
ENDBRANCH   9  13
ENDBRANCH   8   9
BRANCH   8  15
HETATM   15  O   UNK N   1      20.603  20.177   4.296  0.00  0.00    -0.390 OA
HETATM   16  H   UNK N   1      20.204  20.710   5.002  0.00  0.00     0.210 HD
ENDBRANCH   8  15
ENDBRANCH   1   8
BRANCH   1  17
HETATM   17  O   UNK N   1      21.828  17.891   4.517  0.00  0.00    -0.348 OA
BRANCH  17  18
HETATM   18  C   UNK N   1      21.258  16.836   5.298  0.00  0.00     0.292 C 
HETATM   19  C   UNK N   1      22.275  15.698   5.589  0.00  0.00     0.204 C 
HETATM   20  C   UNK N   1      21.557  14.588   6.379  0.00  0.00     0.183 C 
HETATM   21  C   UNK N   1      20.892  15.185   7.627  0.00  0.00     0.180 C 
HETATM   22  C   UNK N   1      19.952  16.322   7.181  0.00  0.00     0.179 C 
HETATM   23  O   UNK N   1      20.681  17.328   6.501  0.00  0.00    -0.348 OA
BRANCH  19  24
HETATM   24  O   UNK N   1      23.356  16.173   6.337  0.00  0.00    -0.388 OA
HETATM   25  H   UNK N   1      24.149  16.305   6.879  0.00  0.00     0.210 HD
ENDBRANCH  19  24
BRANCH  20  26
HETATM   26  O   UNK N   1      22.460  13.584   6.741  0.00  0.00    -0.390 OA
HETATM   27  H   UNK N   1      22.350  12.954   7.471  0.00  0.00     0.210 HD
ENDBRANCH  20  26
BRANCH  21  28
HETATM   28  O   UNK N   1      20.170  14.196   8.301  0.00  0.00    -0.390 OA
HETATM   29  H   UNK N   1      19.222  14.065   8.137  0.00  0.00     0.210 HD
ENDBRANCH  21  28
BRANCH  22  30
HETATM   30  C   UNK N   1      19.251  16.964   8.377  0.00  0.00     0.198 C 
BRANCH  30  31
HETATM   31  O   UNK N   1      18.132  16.220   8.758  0.00  0.00    -0.398 OA
HETATM   32  H   UNK N   1      17.317  15.868   9.147  0.00  0.00     0.209 HD
ENDBRANCH  30  31
ENDBRANCH  22  30
ENDBRANCH  17  18
ENDBRANCH   1  17
TORSDOF 17
ENDMDL
MODEL 4
REMARK VINA RESULT:      -5.6      1.631      3.081
REMARK  17 active torsions:
REMARK  status: ('A' for Active; 'I' for Inactive)
REMARK    1  A    between atoms: C_4  and  C_1 
REMARK    2  A    between atoms: O_13  and  C_1 
REMARK    3  A    between atoms: C_5  and  C_2 
REMARK    4  A    between atoms: O_14  and  C_2 
REMARK    5  A    between atoms: C_6  and  C_3 
REMARK    6  A    between atoms: O_15  and  C_3 
REMARK    7  A    between atoms: C_7  and  C_4 
REMARK    8  A    between atoms: C_4  and  O_16 
REMARK    9  A    between atoms: C_11  and  C_5 
REMARK   10  A    between atoms: C_5  and  O_17 
REMARK   11  A    between atoms: C_11  and  C_7 
REMARK   12  A    between atoms: C_7  and  O_18 
REMARK   13  A    between atoms: C_8  and  O_19 
REMARK   14  A    between atoms: C_9  and  O_20 
REMARK   15  A    between atoms: C_10  and  O_21 
REMARK   16  A    between atoms: C_11  and  O_23 
REMARK   17  A    between atoms: C_12  and  O_23 
ROOT
HETATM    1  C   UNK N   1      33.106  15.977   7.158  0.00  0.00     0.186 C 
ENDROOT
BRANCH   1   2
HETATM    2  C   UNK N   1      33.379  17.206   6.260  0.00  0.00     0.173 C 
BRANCH   2   3
HETATM    3  C   UNK N   1      33.716  16.808   4.826  0.00  0.00     0.198 C 
BRANCH   3   4
HETATM    4  O   UNK N   1      33.147  15.573   4.512  0.00  0.00    -0.398 OA
HETATM    5  H   UNK N   1      33.637  14.819   4.147  0.00  0.00     0.209 HD
ENDBRANCH   3   4
ENDBRANCH   2   3
BRANCH   2   6
HETATM    6  O   UNK N   1      34.465  17.919   6.774  0.00  0.00    -0.391 OA
HETATM    7  H   UNK N   1      34.443  18.884   6.863  0.00  0.00     0.210 HD
ENDBRANCH   2   6
ENDBRANCH   1   2
BRANCH   1   8
HETATM    8  C   UNK N   1      33.506  16.141   8.666  0.00  0.00     0.180 C 
BRANCH   8   9
HETATM    9  C   UNK N   1      33.133  15.036   9.675  0.00  0.00     0.173 C 
BRANCH   9  10
HETATM   10  C   UNK N   1      34.111  14.961  10.847  0.00  0.00     0.198 C 
BRANCH  10  11
HETATM   11  O   UNK N   1      34.700  16.205  11.076  0.00  0.00    -0.398 OA
HETATM   12  H   UNK N   1      34.373  17.082  10.821  0.00  0.00     0.209 HD
ENDBRANCH  10  11
ENDBRANCH   9  10
BRANCH   9  13
HETATM   13  O   UNK N   1      31.822  15.193  10.129  0.00  0.00    -0.391 OA
HETATM   14  H   UNK N   1      31.117  15.427  10.753  0.00  0.00     0.210 HD
ENDBRANCH   9  13
ENDBRANCH   8   9
BRANCH   8  15
HETATM   15  O   UNK N   1      33.018  17.362   9.141  0.00  0.00    -0.390 OA
HETATM   16  H   UNK N   1      32.436  18.135   9.208  0.00  0.00     0.210 HD
ENDBRANCH   8  15
ENDBRANCH   1   8
BRANCH   1  17
HETATM   17  O   UNK N   1      31.742  15.580   7.011  0.00  0.00    -0.348 OA
BRANCH  17  18
HETATM   18  C   UNK N   1      30.820  16.668   6.887  0.00  0.00     0.292 C 
HETATM   19  C   UNK N   1      29.830  16.475   5.705  0.00  0.00     0.204 C 
HETATM   20  C   UNK N   1      28.923  17.716   5.616  0.00  0.00     0.183 C 
HETATM   21  C   UNK N   1      28.253  17.967   6.975  0.00  0.00     0.180 C 
HETATM   22  C   UNK N   1      29.355  18.093   8.045  0.00  0.00     0.179 C 
HETATM   23  O   UNK N   1      30.123  16.905   8.105  0.00  0.00    -0.348 OA
BRANCH  19  24
HETATM   24  O   UNK N   1      29.041  15.337   5.894  0.00  0.00    -0.388 OA
HETATM   25  H   UNK N   1      28.339  14.674   5.988  0.00  0.00     0.210 HD
ENDBRANCH  19  24
BRANCH  20  26
HETATM   26  O   UNK N   1      27.956  17.543   4.621  0.00  0.00    -0.390 OA
HETATM   27  H   UNK N   1      27.655  18.221   3.995  0.00  0.00     0.210 HD
ENDBRANCH  20  26
BRANCH  21  28
HETATM   28  O   UNK N   1      27.495  19.141   6.921  0.00  0.00    -0.390 OA
HETATM   29  H   UNK N   1      26.760  19.237   6.293  0.00  0.00     0.210 HD
ENDBRANCH  21  28
BRANCH  22  30
HETATM   30  C   UNK N   1      28.759  18.348   9.428  0.00  0.00     0.198 C 
BRANCH  30  31
HETATM   31  O   UNK N   1      27.406  17.999   9.460  0.00  0.00    -0.398 OA
HETATM   32  H   UNK N   1      26.459  17.867   9.303  0.00  0.00     0.209 HD
ENDBRANCH  30  31
ENDBRANCH  22  30
ENDBRANCH  17  18
ENDBRANCH   1  17
TORSDOF 17
ENDMDL
MODEL 5
REMARK VINA RESULT:      -5.6      2.177      4.634
REMARK  17 active torsions:
REMARK  status: ('A' for Active; 'I' for Inactive)
REMARK    1  A    between atoms: C_4  and  C_1 
REMARK    2  A    between atoms: O_13  and  C_1 
REMARK    3  A    between atoms: C_5  and  C_2 
REMARK    4  A    between atoms: O_14  and  C_2 
REMARK    5  A    between atoms: C_6  and  C_3 
REMARK    6  A    between atoms: O_15  and  C_3 
REMARK    7  A    between atoms: C_7  and  C_4 
REMARK    8  A    between atoms: C_4  and  O_16 
REMARK    9  A    between atoms: C_11  and  C_5 
REMARK   10  A    between atoms: C_5  and  O_17 
REMARK   11  A    between atoms: C_11  and  C_7 
REMARK   12  A    between atoms: C_7  and  O_18 
REMARK   13  A    between atoms: C_8  and  O_19 
REMARK   14  A    between atoms: C_9  and  O_20 
REMARK   15  A    between atoms: C_10  and  O_21 
REMARK   16  A    between atoms: C_11  and  O_23 
REMARK   17  A    between atoms: C_12  and  O_23 
ROOT
HETATM    1  C   UNK N   1      30.159  17.869   8.109  0.00  0.00     0.186 C 
ENDROOT
BRANCH   1   2
HETATM    2  C   UNK N   1      29.709  17.588   9.561  0.00  0.00     0.173 C 
BRANCH   2   3
HETATM    3  C   UNK N   1      28.257  17.123   9.634  0.00  0.00     0.198 C 
BRANCH   3   4
HETATM    4  O   UNK N   1      27.390  18.170   9.315  0.00  0.00    -0.398 OA
HETATM    5  H   UNK N   1      26.700  18.512   9.906  0.00  0.00     0.209 HD
ENDBRANCH   3   4
ENDBRANCH   2   3
BRANCH   2   6
HETATM    6  O   UNK N   1      29.823  18.760  10.313  0.00  0.00    -0.391 OA
HETATM    7  H   UNK N   1      30.622  19.307  10.284  0.00  0.00     0.210 HD
ENDBRANCH   2   6
ENDBRANCH   1   2
BRANCH   1   8
HETATM    8  C   UNK N   1      31.697  17.719   7.838  0.00  0.00     0.180 C 
BRANCH   8   9
HETATM    9  C   UNK N   1      32.190  16.683   6.806  0.00  0.00     0.173 C 
BRANCH   9  10
HETATM   10  C   UNK N   1      33.700  16.750   6.588  0.00  0.00     0.198 C 
BRANCH  10  11
HETATM   11  O   UNK N   1      34.157  18.063   6.710  0.00  0.00    -0.398 OA
HETATM   12  H   UNK N   1      34.349  18.702   6.006  0.00  0.00     0.209 HD
ENDBRANCH  10  11
ENDBRANCH   9  10
BRANCH   9  13
HETATM   13  O   UNK N   1      31.794  15.393   7.162  0.00  0.00    -0.391 OA
HETATM   14  H   UNK N   1      31.908  14.476   7.458  0.00  0.00     0.210 HD
ENDBRANCH   9  13
ENDBRANCH   8   9
BRANCH   8  15
HETATM   15  O   UNK N   1      32.357  17.489   9.049  0.00  0.00    -0.390 OA
HETATM   16  H   UNK N   1      33.019  17.129   9.661  0.00  0.00     0.210 HD
ENDBRANCH   8  15
ENDBRANCH   1   8
BRANCH   1  17
HETATM   17  O   UNK N   1      29.383  17.074   7.212  0.00  0.00    -0.348 OA
BRANCH  17  18
HETATM   18  C   UNK N   1      28.662  17.825   6.229  0.00  0.00     0.292 C 
HETATM   19  C   UNK N   1      27.425  17.058   5.686  0.00  0.00     0.204 C 
HETATM   20  C   UNK N   1      26.754  17.916   4.598  0.00  0.00     0.183 C 
HETATM   21  C   UNK N   1      26.445  19.313   5.156  0.00  0.00     0.180 C 
HETATM   22  C   UNK N   1      27.755  19.924   5.693  0.00  0.00     0.179 C 
HETATM   23  O   UNK N   1      28.295  19.110   6.717  0.00  0.00    -0.348 OA
BRANCH  19  24
HETATM   24  O   UNK N   1      26.506  16.804   6.708  0.00  0.00    -0.388 OA
HETATM   25  H   UNK N   1      25.937  16.803   7.493  0.00  0.00     0.210 HD
ENDBRANCH  19  24
BRANCH  20  26
HETATM   26  O   UNK N   1      25.583  17.303   4.145  0.00  0.00    -0.390 OA
HETATM   27  H   UNK N   1      24.724  17.309   4.597  0.00  0.00     0.210 HD
ENDBRANCH  20  26
BRANCH  21  28
HETATM   28  O   UNK N   1      25.913  20.121   4.146  0.00  0.00    -0.390 OA
HETATM   29  H   UNK N   1      26.487  20.564   3.501  0.00  0.00     0.210 HD
ENDBRANCH  21  28
BRANCH  22  30
HETATM   30  C   UNK N   1      27.522  21.321   6.264  0.00  0.00     0.198 C 
BRANCH  30  31
HETATM   31  O   UNK N   1      26.254  21.419   6.842  0.00  0.00    -0.398 OA
HETATM   32  H   UNK N   1      25.475  21.435   7.419  0.00  0.00     0.209 HD
ENDBRANCH  30  31
ENDBRANCH  22  30
ENDBRANCH  17  18
ENDBRANCH   1  17
TORSDOF 17
ENDMDL
MODEL 6
REMARK VINA RESULT:      -5.6      7.818     12.405
REMARK  17 active torsions:
REMARK  status: ('A' for Active; 'I' for Inactive)
REMARK    1  A    between atoms: C_4  and  C_1 
REMARK    2  A    between atoms: O_13  and  C_1 
REMARK    3  A    between atoms: C_5  and  C_2 
REMARK    4  A    between atoms: O_14  and  C_2 
REMARK    5  A    between atoms: C_6  and  C_3 
REMARK    6  A    between atoms: O_15  and  C_3 
REMARK    7  A    between atoms: C_7  and  C_4 
REMARK    8  A    between atoms: C_4  and  O_16 
REMARK    9  A    between atoms: C_11  and  C_5 
REMARK   10  A    between atoms: C_5  and  O_17 
REMARK   11  A    between atoms: C_11  and  C_7 
REMARK   12  A    between atoms: C_7  and  O_18 
REMARK   13  A    between atoms: C_8  and  O_19 
REMARK   14  A    between atoms: C_9  and  O_20 
REMARK   15  A    between atoms: C_10  and  O_21 
REMARK   16  A    between atoms: C_11  and  O_23 
REMARK   17  A    between atoms: C_12  and  O_23 
ROOT
HETATM    1  C   UNK N   1      20.696  18.192   3.064  0.00  0.00     0.186 C 
ENDROOT
BRANCH   1   2
HETATM    2  C   UNK N   1      19.735  17.343   2.201  0.00  0.00     0.173 C 
BRANCH   2   3
HETATM    3  C   UNK N   1      20.420  16.781   0.958  0.00  0.00     0.198 C 
BRANCH   3   4
HETATM    4  O   UNK N   1      20.286  17.662  -0.116  0.00  0.00    -0.398 OA
HETATM    5  H   UNK N   1      20.112  18.612  -0.029  0.00  0.00     0.209 HD
ENDBRANCH   3   4
ENDBRANCH   2   3
BRANCH   2   6
HETATM    6  O   UNK N   1      18.668  18.140   1.779  0.00  0.00    -0.391 OA
HETATM    7  H   UNK N   1      17.849  18.207   2.293  0.00  0.00     0.210 HD
ENDBRANCH   2   6
ENDBRANCH   1   2
BRANCH   1   8
HETATM    8  C   UNK N   1      20.472  19.743   2.995  0.00  0.00     0.180 C 
BRANCH   8   9
HETATM    9  C   UNK N   1      21.373  20.602   2.083  0.00  0.00     0.173 C 
BRANCH   9  10
HETATM   10  C   UNK N   1      20.596  21.248   0.937  0.00  0.00     0.198 C 
BRANCH  10  11
HETATM   11  O   UNK N   1      20.588  20.416  -0.183  0.00  0.00    -0.398 OA
HETATM   12  H   UNK N   1      21.341  20.117  -0.716  0.00  0.00     0.209 HD
ENDBRANCH  10  11
ENDBRANCH   9  10
BRANCH   9  13
HETATM   13  O   UNK N   1      22.064  21.564   2.822  0.00  0.00    -0.391 OA
HETATM   14  H   UNK N   1      22.240  22.440   3.200  0.00  0.00     0.210 HD
ENDBRANCH   9  13
ENDBRANCH   8   9
BRANCH   8  15
HETATM   15  O   UNK N   1      20.516  20.272   4.289  0.00  0.00    -0.390 OA
HETATM   16  H   UNK N   1      20.497  20.283   5.259  0.00  0.00     0.210 HD
ENDBRANCH   8  15
ENDBRANCH   1   8
BRANCH   1  17
HETATM   17  O   UNK N   1      20.673  17.712   4.408  0.00  0.00    -0.348 OA
BRANCH  17  18
HETATM   18  C   UNK N   1      21.965  17.572   5.008  0.00  0.00     0.292 C 
HETATM   19  C   UNK N   1      22.345  16.087   5.262  0.00  0.00     0.204 C 
HETATM   20  C   UNK N   1      23.716  16.043   5.960  0.00  0.00     0.183 C 
HETATM   21  C   UNK N   1      24.744  16.832   5.136  0.00  0.00     0.180 C 
HETATM   22  C   UNK N   1      24.209  18.264   4.933  0.00  0.00     0.179 C 
HETATM   23  O   UNK N   1      22.970  18.235   4.249  0.00  0.00    -0.348 OA
BRANCH  19  24
HETATM   24  O   UNK N   1      22.413  15.376   4.060  0.00  0.00    -0.388 OA
HETATM   25  H   UNK N   1      22.452  14.720   3.348  0.00  0.00     0.210 HD
ENDBRANCH  19  24
BRANCH  20  26
HETATM   26  O   UNK N   1      24.137  14.720   6.125  0.00  0.00    -0.390 OA
HETATM   27  H   UNK N   1      24.000  13.995   5.496  0.00  0.00     0.210 HD
ENDBRANCH  20  26
BRANCH  21  28
HETATM   28  O   UNK N   1      25.969  16.865   5.809  0.00  0.00    -0.390 OA
HETATM   29  H   UNK N   1      26.677  17.470   5.537  0.00  0.00     0.210 HD
ENDBRANCH  21  28
BRANCH  22  30
HETATM   30  C   UNK N   1      25.185  19.111   4.119  0.00  0.00     0.198 C 
BRANCH  30  31
HETATM   31  O   UNK N   1      24.573  20.284   3.669  0.00  0.00    -0.398 OA
HETATM   32  H   UNK N   1      24.324  21.188   3.427  0.00  0.00     0.209 HD
ENDBRANCH  30  31
ENDBRANCH  22  30
ENDBRANCH  17  18
ENDBRANCH   1  17
TORSDOF 17
ENDMDL
MODEL 7
REMARK VINA RESULT:      -5.4      6.674     11.034
REMARK  17 active torsions:
REMARK  status: ('A' for Active; 'I' for Inactive)
REMARK    1  A    between atoms: C_4  and  C_1 
REMARK    2  A    between atoms: O_13  and  C_1 
REMARK    3  A    between atoms: C_5  and  C_2 
REMARK    4  A    between atoms: O_14  and  C_2 
REMARK    5  A    between atoms: C_6  and  C_3 
REMARK    6  A    between atoms: O_15  and  C_3 
REMARK    7  A    between atoms: C_7  and  C_4 
REMARK    8  A    between atoms: C_4  and  O_16 
REMARK    9  A    between atoms: C_11  and  C_5 
REMARK   10  A    between atoms: C_5  and  O_17 
REMARK   11  A    between atoms: C_11  and  C_7 
REMARK   12  A    between atoms: C_7  and  O_18 
REMARK   13  A    between atoms: C_8  and  O_19 
REMARK   14  A    between atoms: C_9  and  O_20 
REMARK   15  A    between atoms: C_10  and  O_21 
REMARK   16  A    between atoms: C_11  and  O_23 
REMARK   17  A    between atoms: C_12  and  O_23 
ROOT
HETATM    1  C   UNK N   1      22.284  18.323   3.798  0.00  0.00     0.186 C 
ENDROOT
BRANCH   1   2
HETATM    2  C   UNK N   1      21.722  17.200   4.699  0.00  0.00     0.173 C 
BRANCH   2   3
HETATM    3  C   UNK N   1      22.069  17.413   6.170  0.00  0.00     0.198 C 
BRANCH   3   4
HETATM    4  O   UNK N   1      21.423  18.545   6.669  0.00  0.00    -0.398 OA
HETATM    5  H   UNK N   1      21.524  18.882   7.573  0.00  0.00     0.209 HD
ENDBRANCH   3   4
ENDBRANCH   2   3
BRANCH   2   6
HETATM    6  O   UNK N   1      22.267  15.976   4.303  0.00  0.00    -0.391 OA
HETATM    7  H   UNK N   1      22.184  15.181   4.852  0.00  0.00     0.210 HD
ENDBRANCH   2   6
ENDBRANCH   1   2
BRANCH   1   8
HETATM    8  C   UNK N   1      21.226  19.347   3.256  0.00  0.00     0.180 C 
BRANCH   8   9
HETATM    9  C   UNK N   1      21.630  20.343   2.150  0.00  0.00     0.173 C 
BRANCH   9  10
HETATM   10  C   UNK N   1      20.697  20.283   0.942  0.00  0.00     0.198 C 
BRANCH  10  11
HETATM   11  O   UNK N   1      21.142  21.139  -0.066  0.00  0.00    -0.398 OA
HETATM   12  H   UNK N   1      21.315  22.092  -0.014  0.00  0.00     0.209 HD
ENDBRANCH  10  11
ENDBRANCH   9  10
BRANCH   9  13
HETATM   13  O   UNK N   1      21.712  21.643   2.652  0.00  0.00    -0.391 OA
HETATM   14  H   UNK N   1      21.540  22.598   2.687  0.00  0.00     0.210 HD
ENDBRANCH   9  13
ENDBRANCH   8   9
BRANCH   8  15
HETATM   15  O   UNK N   1      20.690  20.066   4.329  0.00  0.00    -0.390 OA
HETATM   16  H   UNK N   1      20.624  20.432   5.226  0.00  0.00     0.210 HD
ENDBRANCH   8  15
ENDBRANCH   1   8
BRANCH   1  17
HETATM   17  O   UNK N   1      23.358  18.978   4.475  0.00  0.00    -0.348 OA
BRANCH  17  18
HETATM   18  C   UNK N   1      24.654  18.698   3.936  0.00  0.00     0.292 C 
HETATM   19  C   UNK N   1      25.747  19.648   4.499  0.00  0.00     0.204 C 
HETATM   20  C   UNK N   1      27.088  19.311   3.819  0.00  0.00     0.183 C 
HETATM   21  C   UNK N   1      27.393  17.815   3.988  0.00  0.00     0.180 C 
HETATM   22  C   UNK N   1      26.205  17.009   3.426  0.00  0.00     0.179 C 
HETATM   23  O   UNK N   1      25.015  17.334   4.122  0.00  0.00    -0.348 OA
BRANCH  19  24
HETATM   24  O   UNK N   1      25.878  19.497   5.882  0.00  0.00    -0.388 OA
HETATM   25  H   UNK N   1      25.877  19.572   6.848  0.00  0.00     0.210 HD
ENDBRANCH  19  24
BRANCH  20  26
HETATM   26  O   UNK N   1      28.118  20.082   4.363  0.00  0.00    -0.390 OA
HETATM   27  H   UNK N   1      28.074  20.596   5.185  0.00  0.00     0.210 HD
ENDBRANCH  20  26
BRANCH  21  28
HETATM   28  O   UNK N   1      28.566  17.489   3.301  0.00  0.00    -0.390 OA
HETATM   29  H   UNK N   1      28.703  17.764   2.380  0.00  0.00     0.210 HD
ENDBRANCH  21  28
BRANCH  22  30
HETATM   30  C   UNK N   1      26.441  15.506   3.559  0.00  0.00     0.198 C 
BRANCH  30  31
HETATM   31  O   UNK N   1      27.269  15.226   4.649  0.00  0.00    -0.398 OA
HETATM   32  H   UNK N   1      27.873  14.848   5.306  0.00  0.00     0.209 HD
ENDBRANCH  30  31
ENDBRANCH  22  30
ENDBRANCH  17  18
ENDBRANCH   1  17
TORSDOF 17
ENDMDL
MODEL 8
REMARK VINA RESULT:      -5.4      8.690     11.808
REMARK  17 active torsions:
REMARK  status: ('A' for Active; 'I' for Inactive)
REMARK    1  A    between atoms: C_4  and  C_1 
REMARK    2  A    between atoms: O_13  and  C_1 
REMARK    3  A    between atoms: C_5  and  C_2 
REMARK    4  A    between atoms: O_14  and  C_2 
REMARK    5  A    between atoms: C_6  and  C_3 
REMARK    6  A    between atoms: O_15  and  C_3 
REMARK    7  A    between atoms: C_7  and  C_4 
REMARK    8  A    between atoms: C_4  and  O_16 
REMARK    9  A    between atoms: C_11  and  C_5 
REMARK   10  A    between atoms: C_5  and  O_17 
REMARK   11  A    between atoms: C_11  and  C_7 
REMARK   12  A    between atoms: C_7  and  O_18 
REMARK   13  A    between atoms: C_8  and  O_19 
REMARK   14  A    between atoms: C_9  and  O_20 
REMARK   15  A    between atoms: C_10  and  O_21 
REMARK   16  A    between atoms: C_11  and  O_23 
REMARK   17  A    between atoms: C_12  and  O_23 
ROOT
HETATM    1  C   UNK N   1      21.774  18.680   4.173  0.00  0.00     0.186 C 
ENDROOT
BRANCH   1   2
HETATM    2  C   UNK N   1      20.466  19.219   3.550  0.00  0.00     0.173 C 
BRANCH   2   3
HETATM    3  C   UNK N   1      20.417  19.008   2.039  0.00  0.00     0.198 C 
BRANCH   3   4
HETATM    4  O   UNK N   1      20.471  20.232   1.370  0.00  0.00    -0.398 OA
HETATM    5  H   UNK N   1      19.783  20.561   0.770  0.00  0.00     0.209 HD
ENDBRANCH   3   4
ENDBRANCH   2   3
BRANCH   2   6
HETATM    6  O   UNK N   1      20.371  20.592   3.794  0.00  0.00    -0.391 OA
HETATM    7  H   UNK N   1      19.637  20.969   4.303  0.00  0.00     0.210 HD
ENDBRANCH   2   6
ENDBRANCH   1   2
BRANCH   1   8
HETATM    8  C   UNK N   1      23.098  19.164   3.486  0.00  0.00     0.180 C 
BRANCH   8   9
HETATM    9  C   UNK N   1      24.459  18.792   4.111  0.00  0.00     0.173 C 
BRANCH   9  10
HETATM   10  C   UNK N   1      25.362  20.007   4.309  0.00  0.00     0.198 C 
BRANCH  10  11
HETATM   11  O   UNK N   1      25.975  20.365   3.108  0.00  0.00    -0.398 OA
HETATM   12  H   UNK N   1      26.122  21.254   2.748  0.00  0.00     0.209 HD
ENDBRANCH  10  11
ENDBRANCH   9  10
BRANCH   9  13
HETATM   13  O   UNK N   1      24.286  18.097   5.310  0.00  0.00    -0.391 OA
HETATM   14  H   UNK N   1      24.186  17.986   6.268  0.00  0.00     0.210 HD
ENDBRANCH   9  13
ENDBRANCH   8   9
BRANCH   8  15
HETATM   15  O   UNK N   1      23.050  20.552   3.320  0.00  0.00    -0.390 OA
HETATM   16  H   UNK N   1      23.138  21.491   3.550  0.00  0.00     0.210 HD
ENDBRANCH   8  15
ENDBRANCH   1   8
BRANCH   1  17
HETATM   17  O   UNK N   1      21.773  18.950   5.575  0.00  0.00    -0.348 OA
BRANCH  17  18
HETATM   18  C   UNK N   1      20.805  18.204   6.320  0.00  0.00     0.292 C 
HETATM   19  C   UNK N   1      21.064  16.673   6.264  0.00  0.00     0.204 C 
HETATM   20  C   UNK N   1      19.944  15.956   7.040  0.00  0.00     0.183 C 
HETATM   21  C   UNK N   1      19.843  16.535   8.459  0.00  0.00     0.180 C 
HETATM   22  C   UNK N   1      19.632  18.058   8.350  0.00  0.00     0.179 C 
HETATM   23  O   UNK N   1      20.715  18.659   7.666  0.00  0.00    -0.348 OA
BRANCH  19  24
HETATM   24  O   UNK N   1      22.300  16.353   6.834  0.00  0.00    -0.388 OA
HETATM   25  H   UNK N   1      23.223  16.289   7.121  0.00  0.00     0.210 HD
ENDBRANCH  19  24
BRANCH  20  26
HETATM   26  O   UNK N   1      20.188  14.581   7.091  0.00  0.00    -0.390 OA
HETATM   27  H   UNK N   1      21.060  14.157   7.116  0.00  0.00     0.210 HD
ENDBRANCH  20  26
BRANCH  21  28
HETATM   28  O   UNK N   1      18.772  15.945   9.138  0.00  0.00    -0.390 OA
HETATM   29  H   UNK N   1      18.368  16.374   9.909  0.00  0.00     0.210 HD
ENDBRANCH  21  28
BRANCH  22  30
HETATM   30  C   UNK N   1      19.520  18.703   9.730  0.00  0.00     0.198 C 
BRANCH  30  31
HETATM   31  O   UNK N   1      18.194  18.714  10.169  0.00  0.00    -0.398 OA
HETATM   32  H   UNK N   1      17.347  18.598  10.626  0.00  0.00     0.209 HD
ENDBRANCH  30  31
ENDBRANCH  22  30
ENDBRANCH  17  18
ENDBRANCH   1  17
TORSDOF 17
ENDMDL
MODEL 9
REMARK VINA RESULT:      -5.4      1.963      4.041
REMARK  17 active torsions:
REMARK  status: ('A' for Active; 'I' for Inactive)
REMARK    1  A    between atoms: C_4  and  C_1 
REMARK    2  A    between atoms: O_13  and  C_1 
REMARK    3  A    between atoms: C_5  and  C_2 
REMARK    4  A    between atoms: O_14  and  C_2 
REMARK    5  A    between atoms: C_6  and  C_3 
REMARK    6  A    between atoms: O_15  and  C_3 
REMARK    7  A    between atoms: C_7  and  C_4 
REMARK    8  A    between atoms: C_4  and  O_16 
REMARK    9  A    between atoms: C_11  and  C_5 
REMARK   10  A    between atoms: C_5  and  O_17 
REMARK   11  A    between atoms: C_11  and  C_7 
REMARK   12  A    between atoms: C_7  and  O_18 
REMARK   13  A    between atoms: C_8  and  O_19 
REMARK   14  A    between atoms: C_9  and  O_20 
REMARK   15  A    between atoms: C_10  and  O_21 
REMARK   16  A    between atoms: C_11  and  O_23 
REMARK   17  A    between atoms: C_12  and  O_23 
ROOT
HETATM    1  C   UNK N   1      32.477  16.372   5.706  0.00  0.00     0.186 C 
ENDROOT
BRANCH   1   2
HETATM    2  C   UNK N   1      33.944  16.780   5.973  0.00  0.00     0.173 C 
BRANCH   2   3
HETATM    3  C   UNK N   1      34.584  15.941   7.077  0.00  0.00     0.198 C 
BRANCH   3   4
HETATM    4  O   UNK N   1      34.434  16.565   8.316  0.00  0.00    -0.398 OA
HETATM    5  H   UNK N   1      34.551  17.516   8.471  0.00  0.00     0.209 HD
ENDBRANCH   3   4
ENDBRANCH   2   3
BRANCH   2   6
HETATM    6  O   UNK N   1      33.985  18.117   6.374  0.00  0.00    -0.391 OA
HETATM    7  H   UNK N   1      33.481  18.803   5.909  0.00  0.00     0.210 HD
ENDBRANCH   2   6
ENDBRANCH   1   2
BRANCH   1   8
HETATM    8  C   UNK N   1      32.246  15.475   4.440  0.00  0.00     0.180 C 
BRANCH   8   9
HETATM    9  C   UNK N   1      31.497  16.056   3.223  0.00  0.00     0.173 C 
BRANCH   9  10
HETATM   10  C   UNK N   1      30.161  15.360   2.973  0.00  0.00     0.198 C 
BRANCH  10  11
HETATM   11  O   UNK N   1      29.245  15.677   3.977  0.00  0.00    -0.398 OA
HETATM   12  H   UNK N   1      29.226  16.460   4.548  0.00  0.00     0.209 HD
ENDBRANCH  10  11
ENDBRANCH   9  10
BRANCH   9  13
HETATM   13  O   UNK N   1      31.325  17.436   3.352  0.00  0.00    -0.391 OA
HETATM   14  H   UNK N   1      31.284  18.360   3.059  0.00  0.00     0.210 HD
ENDBRANCH   9  13
ENDBRANCH   8   9
BRANCH   8  15
HETATM   15  O   UNK N   1      31.614  14.289   4.827  0.00  0.00    -0.390 OA
HETATM   16  H   UNK N   1      31.220  13.406   4.736  0.00  0.00     0.210 HD
ENDBRANCH   8  15
ENDBRANCH   1   8
BRANCH   1  17
HETATM   17  O   UNK N   1      31.931  15.778   6.884  0.00  0.00    -0.348 OA
BRANCH  17  18
HETATM   18  C   UNK N   1      30.738  16.407   7.364  0.00  0.00     0.292 C 
HETATM   19  C   UNK N   1      30.959  17.150   8.711  0.00  0.00     0.204 C 
HETATM   20  C   UNK N   1      29.614  17.740   9.173  0.00  0.00     0.183 C 
HETATM   21  C   UNK N   1      29.016  18.607   8.056  0.00  0.00     0.180 C 
HETATM   22  C   UNK N   1      28.900  17.748   6.781  0.00  0.00     0.179 C 
HETATM   23  O   UNK N   1      30.174  17.275   6.387  0.00  0.00    -0.348 OA
BRANCH  19  24
HETATM   24  O   UNK N   1      31.891  18.181   8.566  0.00  0.00    -0.388 OA
HETATM   25  H   UNK N   1      32.604  18.834   8.647  0.00  0.00     0.210 HD
ENDBRANCH  19  24
BRANCH  20  26
HETATM   26  O   UNK N   1      29.786  18.494  10.337  0.00  0.00    -0.390 OA
HETATM   27  H   UNK N   1      29.077  18.832  10.908  0.00  0.00     0.210 HD
ENDBRANCH  20  26
BRANCH  21  28
HETATM   28  O   UNK N   1      27.756  19.076   8.441  0.00  0.00    -0.390 OA
HETATM   29  H   UNK N   1      27.083  18.474   8.797  0.00  0.00     0.210 HD
ENDBRANCH  21  28
BRANCH  22  30
HETATM   30  C   UNK N   1      28.308  18.550   5.624  0.00  0.00     0.198 C 
BRANCH  30  31
HETATM   31  O   UNK N   1      29.181  18.571   4.533  0.00  0.00    -0.398 OA
HETATM   32  H   UNK N   1      29.808  18.380   3.819  0.00  0.00     0.209 HD
ENDBRANCH  30  31
ENDBRANCH  22  30
ENDBRANCH  17  18
ENDBRANCH   1  17
TORSDOF 17
ENDMDL
