REMARK  10 active torsions:
REMARK  status: ('A' for Active; 'I' for Inactive)
REMARK    1  A    between atoms: C_2  and  C_3 
REMARK    2  A    between atoms: C_3  and  C_4 
REMARK    3  A    between atoms: C_4  and  S_5 
REMARK    4  A    between atoms: S_5  and  N_6 
REMARK    5  A    between atoms: S_5  and  C_9 
REMARK    6  A    between atoms: C_9  and  C_10 
REMARK    7  A    between atoms: C_10  and  C_11 
REMARK    8  A    between atoms: C_11  and  C_12 
REMARK    9  A    between atoms: C_11  and  N_15 
REMARK   10  A    between atoms: C_12  and  O_14 
ROOT
HETATM    1  C   UNK N   1       0.470  -1.542   0.754  0.00  0.00     0.119 C 
ENDROOT
BRANCH   1   2
HETATM    2  S   UNK N   1       1.710  -2.471  -0.227  0.00  0.00     0.019 S 
HETATM    3  O   UNK N   1       1.340  -2.373  -1.713  0.00  0.00    -0.250 OA
BRANCH   2   4
HETATM    4  C   UNK N   1       2.462  -4.101   0.081  0.00  0.00     0.117 C 
BRANCH   4   5
HETATM    5  C   UNK N   1       1.388  -5.152   0.279  0.00  0.00     0.013 C 
BRANCH   5   6
HETATM    6  C   UNK N   1       1.970  -6.529   0.023  0.00  0.00    -0.004 C 
HETATM    7  C   UNK N   1       0.930  -7.587   0.330  0.00  0.00     0.005 C 
ENDBRANCH   5   6
ENDBRANCH   4   5
ENDBRANCH   2   4
BRANCH   2   8
HETATM    8  N   UNK N   1       2.985  -1.524  -0.275  0.00  0.00    -0.360 N 
HETATM    9  H   UNK N   1       3.889  -1.914  -0.305  0.00  0.00     0.165 HD
ATOM     10  HN  UNK N   1       2.868  -0.510  -0.275  1.00  0.00     0.165 HD
ENDBRANCH   2   8
ENDBRANCH   1   2
BRANCH   1  11
HETATM   11  C   UNK N   1       0.900  -0.107   1.046  0.00  0.00     0.049 C 
BRANCH  11  12
HETATM   12  C   UNK N   1       0.610   0.817  -0.130  0.00  0.00     0.174 C 
BRANCH  12  13
HETATM   13  C   UNK N   1       1.463   2.052  -0.028  0.00  0.00     0.163 C 
HETATM   14  O   UNK N   1       0.957   3.159   0.069  0.00  0.00    -0.648 OA
BRANCH  13  15
HETATM   15  O   UNK N   1       2.805   1.935  -0.056  0.00  0.00    -0.775 OA
HETATM   16  H   UNK N   1       3.201   1.087  -0.075  0.00  0.00     0.167 HD
ENDBRANCH  13  15
ENDBRANCH  12  13
BRANCH  12  17
HETATM   17  N   UNK N   1      -0.806   1.158  -0.153  0.00  0.00    -0.418 N 
HETATM   18  H   UNK N   1      -1.095   2.136  -0.168  0.00  0.00     0.150 HD
HETATM   19  H   UNK N   1      -1.508   0.418  -0.153  0.00  0.00     0.150 HD
ENDBRANCH  12  17
ENDBRANCH  11  12
ENDBRANCH   1  11
TORSDOF 10
