REMARK  11 active torsions:
REMARK  status: ('A' for Active; 'I' for Inactive)
REMARK    1  A    between atoms: O_2  and  C_3 
REMARK    2  A    between atoms: C_6  and  C_16 
REMARK    3  A    between atoms: C_8  and  N_9 
REMARK       I    between atoms: N_9  and  C_10 
REMARK    4  A    between atoms: C_10  and  C_12 
REMARK    5  A    between atoms: C_12  and  C_13 
REMARK    6  A    between atoms: C_12  and  N_15 
REMARK    7  A    between atoms: C_13  and  O_14 
REMARK    8  A    between atoms: C_17  and  C_18 
REMARK    9  A    between atoms: C_20  and  O_28 
REMARK   10  A    between atoms: C_21  and  O_26 
REMARK   11  A    between atoms: C_22  and  O_24 
ROOT
HETATM    1  C   UNK N   1       4.416  -0.950   0.729  0.00  0.00     0.095 C 
HETATM    2  C   UNK N   1       3.203  -0.427   1.187  0.00  0.00     0.040 C 
HETATM    3  C   UNK N   1       2.019  -1.103   0.941  0.00  0.00     0.014 C 
HETATM    4  C   UNK N   1       2.000  -2.272   0.168  0.00  0.00    -0.034 C 
HETATM    5  C   UNK N   1       3.216  -2.854  -0.202  0.00  0.00     0.043 C 
HETATM    6  C   UNK N   1       4.426  -2.202   0.098  0.00  0.00     0.069 C 
ENDROOT
BRANCH   4   7
HETATM    7  C   UNK N   1       0.720  -2.838  -0.337  0.00  0.00     0.012 C 
HETATM    8  C   UNK N   1      -0.409  -2.117  -0.564  0.00  0.00     0.012 C 
BRANCH   8   9
HETATM    9  C   UNK N   1      -0.484  -0.631  -0.545  0.00  0.00    -0.031 A 
HETATM   10  C   UNK N   1      -1.585  -0.015   0.035  0.00  0.00     0.051 A 
HETATM   11  C   UNK N   1      -1.610   1.367   0.253  0.00  0.00     0.105 A 
HETATM   12  C   UNK N   1      -0.472   2.160  -0.086  0.00  0.00     0.135 A 
HETATM   13  C   UNK N   1       0.647   1.521  -0.699  0.00  0.00     0.105 A 
HETATM   14  C   UNK N   1       0.596   0.155  -0.957  0.00  0.00     0.051 A 
BRANCH  11  15
HETATM   15  O   UNK N   1      -2.741   1.880   0.804  0.00  0.00    -0.353 OA
HETATM   16  C   UNK N   1      -3.015   3.216   0.982  0.00  0.00     0.210 C 
ENDBRANCH  11  15
BRANCH  12  17
HETATM   17  O   UNK N   1      -0.502   3.494   0.184  0.00  0.00    -0.351 OA
HETATM   18  C   UNK N   1       0.362   4.448  -0.296  0.00  0.00     0.210 C 
ENDBRANCH  12  17
BRANCH  13  19
HETATM   19  O   UNK N   1       1.799   2.163  -0.995  0.00  0.00    -0.353 OA
HETATM   20  C   UNK N   1       2.602   2.690  -0.006  0.00  0.00     0.210 C 
ENDBRANCH  13  19
ENDBRANCH   8   9
ENDBRANCH   4   7
BRANCH   6  21
HETATM   21  N   UNK N   1       5.685  -2.786  -0.197  0.00  0.00    -0.323 N 
HETATM   22  C   UNK N   1       5.940  -4.119  -0.127  0.00  0.00     0.246 C 
HETATM   23  O   UNK N   1       5.062  -4.910   0.175  0.00  0.00    -0.271 OA
HETATM   24  H   UNK N   1       6.418  -2.189  -0.469  0.00  0.00     0.169 HD
BRANCH  22  25
HETATM   25  C   UNK N   1       7.353  -4.617  -0.287  0.00  0.00     0.191 C 
BRANCH  25  26
HETATM   26  C   UNK N   1       8.360  -3.513  -0.598  0.00  0.00     0.198 C 
BRANCH  26  27
HETATM   27  O   UNK N   1       8.416  -2.588   0.448  0.00  0.00    -0.398 OA
HETATM   28  H   UNK N   1       8.992  -2.300   1.174  0.00  0.00     0.209 HD
ENDBRANCH  26  27
ENDBRANCH  25  26
BRANCH  25  29
HETATM   29  N   UNK N   1       7.409  -5.632  -1.322  0.00  0.00    -0.417 N 
HETATM   30  H   UNK N   1       6.811  -6.023  -2.050  0.00  0.00     0.150 HD
HETATM   31  H   UNK N   1       8.319  -6.093  -1.322  0.00  0.00     0.150 HD
ENDBRANCH  25  29
ENDBRANCH  22  25
ENDBRANCH   6  21
BRANCH   1  32
HETATM   32  O   UNK N   1       5.578  -0.282   0.912  0.00  0.00    -0.354 OA
HETATM   33  C   UNK N   1       5.637   1.014   1.376  0.00  0.00     0.210 C 
ENDBRANCH   1  32
TORSDOF 11
