REMARK  3 active torsions:
REMARK  status: ('A' for Active; 'I' for Inactive)
REMARK    1  A    between atoms: N_20  and  C_12 
REMARK    2  A    between atoms: C_16  and  C_14 
REMARK    3  A    between atoms: N_20  and  C_14 
ROOT
HETATM    1  C   UNK N   1      -5.226   3.027  -0.228  0.00  0.00     0.013 C 
HETATM    2  C   UNK N   1      -4.283   2.279  -0.200  0.00  0.00    -0.087 C 
HETATM    3  C   UNK N   1      -3.084   1.444  -0.150  0.00  0.00     0.364 C 
ENDROOT
BRANCH   3   4
HETATM    4  N   UNK N   1      -1.955   2.312   0.126  0.00  0.00     0.099 N 
HETATM    5  C   UNK N   1      -1.931   2.592   1.557  0.00  0.00     0.311 C 
BRANCH   4   6
HETATM    6  C   UNK N   1      -0.730   1.623  -0.247  0.00  0.00     0.312 C 
BRANCH   6   7
HETATM    7  C   UNK N   1       0.532   2.470  -0.171  0.00  0.00    -0.016 C 
HETATM    8  C   UNK N   1       1.624   1.719  -0.098  0.00  0.00     0.024 C 
HETATM    9  C   UNK N   1       3.042   2.016  -0.019  0.00  0.00    -0.002 A 
HETATM   10  C   UNK N   1       3.882   0.897  -0.092  0.00  0.00     0.014 A 
HETATM   11  C   UNK N   1       3.608   3.297   0.113  0.00  0.00     0.086 A 
HETATM   12  C   UNK N   1       5.267   1.033  -0.056  0.00  0.00     0.001 A 
HETATM   13  C   UNK N   1       5.830   2.298   0.060  0.00  0.00     0.003 A 
HETATM   14  C   UNK N   1       5.004   3.416   0.152  0.00  0.00     0.038 A 
HETATM   15  O   UNK N   1       2.913   4.448   0.199  0.00  0.00    -0.309 OA
HETATM   16  C   UNK N   1       1.630   4.836   0.037  0.00  0.00     0.086 A 
HETATM   17  C   UNK N   1       1.432   6.226   0.077  0.00  0.00     0.038 A 
HETATM   18  C   UNK N   1       0.507   3.981  -0.178  0.00  0.00     0.006 A 
HETATM   19  C   UNK N   1       0.181   6.798  -0.113  0.00  0.00     0.003 A 
HETATM   20  C   UNK N   1      -0.907   5.985  -0.371  0.00  0.00     0.001 A 
HETATM   21  C   UNK N   1      -0.739   4.606  -0.399  0.00  0.00     0.015 A 
ENDBRANCH   6   7
ENDBRANCH   4   6
ENDBRANCH   3   4
TORSDOF 3
