REMARK  5 active torsions:
REMARK  status: ('A' for Active; 'I' for Inactive)
REMARK    1  A    between atoms: O_2  and  C_3 
REMARK    2  A    between atoms: C_5  and  N_10 
REMARK       I    between atoms: N_13  and  C_16 
REMARK    3  A    between atoms: C_16  and  C_18 
REMARK    4  A    between atoms: C_18  and  N_19 
REMARK    5  A    between atoms: C_27  and  C_30 
ROOT
HETATM    1  N   UNK N   1       0.247  -0.512  -0.529  0.00  0.00    -0.266 N 
HETATM    2  C   UNK N   1       1.340   0.194  -0.189  0.00  0.00     0.135 A 
HETATM    3  C   UNK N   1       0.976   1.460   0.145  0.00  0.00     0.041 A 
HETATM    4  C   UNK N   1       1.927   2.404   0.513  0.00  0.00     0.019 A 
HETATM    5  C   UNK N   1       3.272   1.989   0.530  0.00  0.00     0.018 A 
HETATM    6  C   UNK N   1       3.606   0.661   0.174  0.00  0.00     0.090 A 
HETATM    7  N   UNK N   1       2.629  -0.222  -0.188  0.00  0.00    -0.350 N 
ATOM      8  HN  UNK N   1       2.865  -1.178  -0.454  1.00  0.00     0.166 HD
HETATM    9  C   UNK N   1      -0.397   1.496  -0.013  0.00  0.00     0.106 A 
HETATM   10  N   UNK N   1      -0.816   0.274  -0.423  0.00  0.00    -0.292 N 
ATOM     11  HN  UNK N   1      -1.780   0.005  -0.615  1.00  0.00     0.187 HD
ENDROOT
BRANCH   1  12
HETATM   12  C   UNK N   1       0.157  -1.864  -1.053  0.00  0.00     0.253 C 
BRANCH  12  13
HETATM   13  C   UNK N   1       1.162  -2.824  -0.491  0.00  0.00     0.239 C 
HETATM   14  N   UNK N   1       0.757  -3.820   0.337  0.00  0.00    -0.348 N 
HETATM   15  C   UNK N   1      -0.639  -3.970   0.652  0.00  0.00     0.145 C 
HETATM   16  C   UNK N   1       1.611  -4.956   0.571  0.00  0.00     0.145 C 
HETATM   17  C   UNK N   1      -1.167  -4.985  -0.343  0.00  0.00     0.143 C 
HETATM   18  N   UNK N   1      -0.332  -6.173  -0.285  0.00  0.00    -0.378 N 
HETATM   19  C   UNK N   1       1.118  -6.046  -0.381  0.00  0.00     0.143 C 
HETATM   20  O   UNK N   1       2.314  -2.793  -0.897  0.00  0.00    -0.271 OA
BRANCH  18  21
HETATM   21  C   UNK N   1      -0.933  -7.439  -0.082  0.00  0.00     0.033 A 
HETATM   22  C   UNK N   1      -2.329  -7.556  -0.055  0.00  0.00     0.067 A 
HETATM   23  C   UNK N   1      -2.941  -8.797   0.156  0.00  0.00     0.092 A 
HETATM   24  C   UNK N   1      -2.136  -9.931   0.351  0.00  0.00     0.067 A 
HETATM   25  C   UNK N   1      -0.743  -9.820   0.314  0.00  0.00     0.029 A 
HETATM   26 Cl   UNK N   1      -2.856 -11.500   0.643  0.00  0.00    -0.081 Cl
HETATM   27  C   UNK N   1      -0.144  -8.582   0.093  0.00  0.00     0.031 A 
BRANCH  23  28
HETATM   28  O   UNK N   1      -4.291  -8.917   0.173  0.00  0.00    -0.354 OA
HETATM   29  C   UNK N   1      -5.144  -7.860  -0.056  0.00  0.00     0.210 C 
ENDBRANCH  23  28
ENDBRANCH  18  21
ENDBRANCH  12  13
ENDBRANCH   1  12
BRANCH   9  30
HETATM   30  C   UNK N   1      -1.294   2.642   0.148  0.00  0.00     0.134 A 
HETATM   31  N   UNK N   1      -2.624   2.570  -0.039  0.00  0.00    -0.349 N 
HETATM   32  C   UNK N   1      -3.075   3.822   0.152  0.00  0.00     0.107 A 
HETATM   33  H   UNK N   1      -3.153   1.771  -0.266  0.00  0.00     0.167 HD
HETATM   34  C   UNK N   1      -1.998   4.636   0.447  0.00  0.00     0.107 A 
HETATM   35  N   UNK N   1      -0.881   3.886   0.443  0.00  0.00    -0.349 N 
ATOM     36  HN  UNK N   1       0.074   4.195   0.624  1.00  0.00     0.167 HD
ENDBRANCH   9  30
TORSDOF 5
