MODEL 1
REMARK VINA RESULT:      -7.4      0.000      0.000
REMARK  7 active torsions:
REMARK  status: ('A' for Active; 'I' for Inactive)
REMARK    1  A    between atoms: C_2  and  C_3 
REMARK    2  A    between atoms: C_2  and  N_19 
REMARK    3  A    between atoms: C_3  and  N_4 
REMARK    4  A    between atoms: C_7  and  C_10 
REMARK       I    between atoms: N_19  and  C_20 
REMARK    5  A    between atoms: C_20  and  C_22 
REMARK    6  A    between atoms: C_24  and  C_28 
REMARK    7  A    between atoms: C_28  and  O_30 
ROOT
HETATM    1  C   UNK N   1      27.929  17.668   5.152  0.00  0.00    -0.006 A 
HETATM    2  C   UNK N   1      27.205  17.219   4.058  0.00  0.00     0.015 A 
HETATM    3  C   UNK N   1      26.288  18.047   3.442  0.00  0.00     0.025 A 
HETATM    4  C   UNK N   1      26.128  19.360   3.869  0.00  0.00     0.066 A 
HETATM    5  C   UNK N   1      26.820  19.825   5.009  0.00  0.00     0.055 A 
HETATM    6  C   UNK N   1      27.723  18.967   5.656  0.00  0.00     0.039 A 
HETATM    7 Cl   UNK N   1      26.688  21.497   5.543  0.00  0.00    -0.083 Cl
HETATM    8  C   UNK N   1      25.320  20.211   3.047  0.00  0.00     0.101 C 
HETATM    9  N   UNK N   1      24.659  20.856   2.352  0.00  0.00    -0.191 NA
ENDROOT
BRANCH   1  10
HETATM   10  C   UNK N   1      29.147  16.958   5.492  0.00  0.00     0.059 A 
HETATM   11  C   UNK N   1      29.167  15.594   5.752  0.00  0.00     0.050 A 
HETATM   12  C   UNK N   1      30.486  15.232   5.597  0.00  0.00     0.112 A 
HETATM   13  N   UNK N   1      31.176  16.341   5.286  0.00  0.00    -0.301 N 
HETATM   14  N   UNK N   1      30.369  17.377   5.193  0.00  0.00    -0.298 N 
ATOM     15  HN  UNK N   1      30.636  18.328   4.938  1.00  0.00     0.187 HD
BRANCH  13  16
HETATM   16  C   UNK N   1      32.455  16.326   4.633  0.00  0.00     0.172 C 
BRANCH  16  17
HETATM   17  C   UNK N   1      33.470  16.009   5.729  0.00  0.00     0.100 C 
HETATM   18  C   UNK N   1      34.490  14.955   5.317  0.00  0.00     0.034 C 
BRANCH  17  19
HETATM   19  N   UNK N   1      34.194  17.198   6.118  0.00  0.00    -0.350 N 
HETATM   20  C   UNK N   1      34.006  17.742   7.327  0.00  0.00     0.270 C 
HETATM   21  O   UNK N   1      34.771  18.603   7.732  0.00  0.00    -0.266 OA
HETATM   22  H   UNK N   1      34.829  17.611   5.489  0.00  0.00     0.163 HD
BRANCH  20  23
HETATM   23  C   UNK N   1      32.933  17.256   8.181  0.00  0.00     0.117 A 
HETATM   24  C   UNK N   1      31.706  17.828   8.281  0.00  0.00     0.065 A 
HETATM   25  C   UNK N   1      31.044  17.008   9.158  0.00  0.00     0.056 A 
HETATM   26  N   UNK N   1      31.835  15.983   9.530  0.00  0.00    -0.302 N 
HETATM   27  N   UNK N   1      33.004  16.147   8.945  0.00  0.00    -0.295 N 
HETATM   28  H   UNK N   1      31.584  15.243  10.129  0.00  0.00     0.186 HD
ATOM     29  HN  UNK N   1      33.818  15.543   9.052  1.00  0.00     0.187 HD
BRANCH  25  30
HETATM   30  C   UNK N   1      29.597  17.126   9.444  0.00  0.00     0.165 C 
HETATM   31  C   UNK N   1      29.149  18.559   9.246  0.00  0.00     0.046 C 
BRANCH  30  32
HETATM   32  O   UNK N   1      29.388  16.781  10.782  0.00  0.00    -0.390 OA
HETATM   33  H   UNK N   1      30.051  16.663  11.480  0.00  0.00     0.210 HD
ENDBRANCH  30  32
ENDBRANCH  25  30
ENDBRANCH  20  23
ENDBRANCH  17  19
ENDBRANCH  16  17
ENDBRANCH  13  16
ENDBRANCH   1  10
TORSDOF 7
ENDMDL
MODEL 2
REMARK VINA RESULT:      -7.4      2.074      2.646
REMARK  7 active torsions:
REMARK  status: ('A' for Active; 'I' for Inactive)
REMARK    1  A    between atoms: C_2  and  C_3 
REMARK    2  A    between atoms: C_2  and  N_19 
REMARK    3  A    between atoms: C_3  and  N_4 
REMARK    4  A    between atoms: C_7  and  C_10 
REMARK       I    between atoms: N_19  and  C_20 
REMARK    5  A    between atoms: C_20  and  C_22 
REMARK    6  A    between atoms: C_24  and  C_28 
REMARK    7  A    between atoms: C_28  and  O_30 
ROOT
HETATM    1  C   UNK N   1      28.150  17.776   5.313  0.00  0.00    -0.006 A 
HETATM    2  C   UNK N   1      27.524  17.314   4.165  0.00  0.00     0.015 A 
HETATM    3  C   UNK N   1      26.635  18.120   3.483  0.00  0.00     0.025 A 
HETATM    4  C   UNK N   1      26.408  19.426   3.901  0.00  0.00     0.066 A 
HETATM    5  C   UNK N   1      26.997  19.903   5.092  0.00  0.00     0.055 A 
HETATM    6  C   UNK N   1      27.871  19.066   5.804  0.00  0.00     0.039 A 
HETATM    7 Cl   UNK N   1      26.780  21.569   5.620  0.00  0.00    -0.083 Cl
HETATM    8  C   UNK N   1      25.643  20.261   3.022  0.00  0.00     0.101 C 
HETATM    9  N   UNK N   1      25.021  20.892   2.280  0.00  0.00    -0.191 NA
ENDROOT
BRANCH   1  10
HETATM   10  C   UNK N   1      29.356  17.096   5.743  0.00  0.00     0.059 A 
HETATM   11  C   UNK N   1      29.385  15.738   6.028  0.00  0.00     0.050 A 
HETATM   12  C   UNK N   1      30.719  15.400   5.965  0.00  0.00     0.112 A 
HETATM   13  N   UNK N   1      31.406  16.518   5.681  0.00  0.00    -0.301 N 
HETATM   14  N   UNK N   1      30.586  17.536   5.518  0.00  0.00    -0.298 N 
ATOM     15  HN  UNK N   1      30.851  18.488   5.264  1.00  0.00     0.187 HD
BRANCH  13  16
HETATM   16  C   UNK N   1      32.725  16.519   5.112  0.00  0.00     0.172 C 
BRANCH  16  17
HETATM   17  C   UNK N   1      33.681  16.421   6.299  0.00  0.00     0.100 C 
HETATM   18  C   UNK N   1      34.947  15.633   5.986  0.00  0.00     0.034 C 
BRANCH  17  19
HETATM   19  N   UNK N   1      34.077  17.735   6.750  0.00  0.00    -0.350 N 
HETATM   20  C   UNK N   1      34.405  17.942   8.032  0.00  0.00     0.270 C 
HETATM   21  O   UNK N   1      34.946  18.986   8.360  0.00  0.00    -0.266 OA
HETATM   22  H   UNK N   1      34.104  18.484   6.111  0.00  0.00     0.163 HD
BRANCH  20  23
HETATM   23  C   UNK N   1      34.180  16.894   9.016  0.00  0.00     0.117 A 
HETATM   24  C   UNK N   1      35.150  16.333   9.783  0.00  0.00     0.065 A 
HETATM   25  C   UNK N   1      34.461  15.443  10.566  0.00  0.00     0.056 A 
HETATM   26  N   UNK N   1      33.142  15.505  10.296  0.00  0.00    -0.302 N 
HETATM   27  N   UNK N   1      32.972  16.382   9.328  0.00  0.00    -0.295 N 
HETATM   28  H   UNK N   1      32.433  14.988  10.743  0.00  0.00     0.186 HD
ATOM     29  HN  UNK N   1      32.085  16.629   8.891  1.00  0.00     0.187 HD
BRANCH  25  30
HETATM   30  C   UNK N   1      35.074  14.716  11.700  0.00  0.00     0.165 C 
HETATM   31  C   UNK N   1      36.456  14.232  11.311  0.00  0.00     0.046 C 
BRANCH  30  32
HETATM   32  O   UNK N   1      34.281  13.600  11.980  0.00  0.00    -0.390 OA
HETATM   33  H   UNK N   1      33.314  13.551  12.036  0.00  0.00     0.210 HD
ENDBRANCH  30  32
ENDBRANCH  25  30
ENDBRANCH  20  23
ENDBRANCH  17  19
ENDBRANCH  16  17
ENDBRANCH  13  16
ENDBRANCH   1  10
TORSDOF 7
ENDMDL
MODEL 3
REMARK VINA RESULT:      -7.3      7.878     11.821
REMARK  7 active torsions:
REMARK  status: ('A' for Active; 'I' for Inactive)
REMARK    1  A    between atoms: C_2  and  C_3 
REMARK    2  A    between atoms: C_2  and  N_19 
REMARK    3  A    between atoms: C_3  and  N_4 
REMARK    4  A    between atoms: C_7  and  C_10 
REMARK       I    between atoms: N_19  and  C_20 
REMARK    5  A    between atoms: C_20  and  C_22 
REMARK    6  A    between atoms: C_24  and  C_28 
REMARK    7  A    between atoms: C_28  and  O_30 
ROOT
HETATM    1  C   UNK N   1      34.953  12.429  15.655  0.00  0.00    -0.006 A 
HETATM    2  C   UNK N   1      35.108  13.277  16.740  0.00  0.00     0.015 A 
HETATM    3  C   UNK N   1      35.226  12.763  18.016  0.00  0.00     0.025 A 
HETATM    4  C   UNK N   1      35.258  11.389  18.220  0.00  0.00     0.066 A 
HETATM    5  C   UNK N   1      35.055  10.506  17.137  0.00  0.00     0.055 A 
HETATM    6  C   UNK N   1      34.898  11.035  15.846  0.00  0.00     0.039 A 
HETATM    7 Cl   UNK N   1      35.148   8.760  17.346  0.00  0.00    -0.083 Cl
HETATM    8  C   UNK N   1      35.597  10.939  19.538  0.00  0.00     0.101 C 
HETATM    9  N   UNK N   1      35.873  10.628  20.616  0.00  0.00    -0.191 NA
ENDROOT
BRANCH   1  10
HETATM   10  C   UNK N   1      35.258  12.956  14.339  0.00  0.00     0.059 A 
HETATM   11  C   UNK N   1      36.056  14.076  14.151  0.00  0.00     0.050 A 
HETATM   12  C   UNK N   1      36.458  13.998  12.837  0.00  0.00     0.112 A 
HETATM   13  N   UNK N   1      35.896  12.900  12.307  0.00  0.00    -0.301 N 
HETATM   14  N   UNK N   1      35.196  12.254  13.216  0.00  0.00    -0.298 N 
ATOM     15  HN  UNK N   1      34.698  11.374  13.081  1.00  0.00     0.187 HD
BRANCH  13  16
HETATM   16  C   UNK N   1      36.394  12.237  11.134  0.00  0.00     0.172 C 
BRANCH  16  17
HETATM   17  C   UNK N   1      35.812  13.008   9.951  0.00  0.00     0.100 C 
HETATM   18  C   UNK N   1      36.615  12.834   8.668  0.00  0.00     0.034 C 
BRANCH  17  19
HETATM   19  N   UNK N   1      34.455  12.593   9.685  0.00  0.00    -0.350 N 
HETATM   20  C   UNK N   1      33.526  13.491   9.334  0.00  0.00     0.270 C 
HETATM   21  O   UNK N   1      32.449  13.116   8.898  0.00  0.00    -0.266 OA
HETATM   22  H   UNK N   1      34.210  11.642   9.763  0.00  0.00     0.163 HD
BRANCH  20  23
HETATM   23  C   UNK N   1      33.830  14.913   9.407  0.00  0.00     0.117 A 
HETATM   24  C   UNK N   1      33.810  15.762   8.348  0.00  0.00     0.065 A 
HETATM   25  C   UNK N   1      34.117  16.976   8.908  0.00  0.00     0.056 A 
HETATM   26  N   UNK N   1      34.276  16.850  10.240  0.00  0.00    -0.302 N 
HETATM   27  N   UNK N   1      34.120  15.578  10.543  0.00  0.00    -0.295 N 
HETATM   28  H   UNK N   1      34.473  17.579  10.873  0.00  0.00     0.186 HD
ATOM     29  HN  UNK N   1      34.204  15.168  11.473  1.00  0.00     0.187 HD
BRANCH  25  30
HETATM   30  C   UNK N   1      34.039  18.255   8.168  0.00  0.00     0.165 C 
HETATM   31  C   UNK N   1      33.940  17.982   6.681  0.00  0.00     0.046 C 
BRANCH  30  32
HETATM   32  O   UNK N   1      35.216  18.969   8.407  0.00  0.00    -0.390 OA
HETATM   33  H   UNK N   1      36.081  18.855   7.984  0.00  0.00     0.210 HD
ENDBRANCH  30  32
ENDBRANCH  25  30
ENDBRANCH  20  23
ENDBRANCH  17  19
ENDBRANCH  16  17
ENDBRANCH  13  16
ENDBRANCH   1  10
TORSDOF 7
ENDMDL
MODEL 4
REMARK VINA RESULT:      -7.2      2.386      3.138
REMARK  7 active torsions:
REMARK  status: ('A' for Active; 'I' for Inactive)
REMARK    1  A    between atoms: C_2  and  C_3 
REMARK    2  A    between atoms: C_2  and  N_19 
REMARK    3  A    between atoms: C_3  and  N_4 
REMARK    4  A    between atoms: C_7  and  C_10 
REMARK       I    between atoms: N_19  and  C_20 
REMARK    5  A    between atoms: C_20  and  C_22 
REMARK    6  A    between atoms: C_24  and  C_28 
REMARK    7  A    between atoms: C_28  and  O_30 
ROOT
HETATM    1  C   UNK N   1      27.455  18.615   4.477  0.00  0.00    -0.006 A 
HETATM    2  C   UNK N   1      27.496  19.908   3.977  0.00  0.00     0.015 A 
HETATM    3  C   UNK N   1      26.362  20.483   3.439  0.00  0.00     0.025 A 
HETATM    4  C   UNK N   1      25.153  19.799   3.453  0.00  0.00     0.066 A 
HETATM    5  C   UNK N   1      25.097  18.465   3.914  0.00  0.00     0.055 A 
HETATM    6  C   UNK N   1      26.261  17.871   4.425  0.00  0.00     0.039 A 
HETATM    7 Cl   UNK N   1      23.572  17.588   4.002  0.00  0.00    -0.083 Cl
HETATM    8  C   UNK N   1      23.987  20.542   3.075  0.00  0.00     0.101 C 
HETATM    9  N   UNK N   1      23.078  21.183   2.761  0.00  0.00    -0.191 NA
ENDROOT
BRANCH   1  10
HETATM   10  C   UNK N   1      28.505  18.214   5.394  0.00  0.00     0.059 A 
HETATM   11  C   UNK N   1      28.414  18.415   6.764  0.00  0.00     0.050 A 
HETATM   12  C   UNK N   1      29.339  17.548   7.302  0.00  0.00     0.112 A 
HETATM   13  N   UNK N   1      29.934  16.908   6.283  0.00  0.00    -0.301 N 
HETATM   14  N   UNK N   1      29.414  17.285   5.134  0.00  0.00    -0.298 N 
ATOM     15  HN  UNK N   1      29.665  16.927   4.212  1.00  0.00     0.187 HD
BRANCH  13  16
HETATM   16  C   UNK N   1      30.615  15.652   6.421  0.00  0.00     0.172 C 
BRANCH  16  17
HETATM   17  C   UNK N   1      32.094  15.962   6.199  0.00  0.00     0.100 C 
HETATM   18  C   UNK N   1      32.524  15.827   4.744  0.00  0.00     0.034 C 
BRANCH  17  19
HETATM   19  N   UNK N   1      32.408  17.304   6.632  0.00  0.00    -0.350 N 
HETATM   20  C   UNK N   1      32.964  17.518   7.832  0.00  0.00     0.270 C 
HETATM   21  O   UNK N   1      33.427  18.615   8.101  0.00  0.00    -0.266 OA
HETATM   22  H   UNK N   1      32.212  18.066   6.042  0.00  0.00     0.163 HD
BRANCH  20  23
HETATM   23  C   UNK N   1      33.075  16.423   8.784  0.00  0.00     0.117 A 
HETATM   24  C   UNK N   1      34.223  15.753   9.059  0.00  0.00     0.065 A 
HETATM   25  C   UNK N   1      33.846  14.858  10.027  0.00  0.00     0.056 A 
HETATM   26  N   UNK N   1      32.543  15.020  10.331  0.00  0.00    -0.302 N 
HETATM   27  N   UNK N   1      32.064  15.968   9.552  0.00  0.00    -0.295 N 
HETATM   28  H   UNK N   1      32.039  14.520  11.014  0.00  0.00     0.186 HD
ATOM     29  HN  UNK N   1      31.100  16.298   9.532  1.00  0.00     0.187 HD
BRANCH  25  30
HETATM   30  C   UNK N   1      34.806  14.020  10.778  0.00  0.00     0.165 C 
HETATM   31  C   UNK N   1      34.888  12.645  10.149  0.00  0.00     0.046 C 
BRANCH  30  32
HETATM   32  O   UNK N   1      34.332  13.878  12.085  0.00  0.00    -0.390 OA
HETATM   33  H   UNK N   1      33.992  13.078  12.514  0.00  0.00     0.210 HD
ENDBRANCH  30  32
ENDBRANCH  25  30
ENDBRANCH  20  23
ENDBRANCH  17  19
ENDBRANCH  16  17
ENDBRANCH  13  16
ENDBRANCH   1  10
TORSDOF 7
ENDMDL
MODEL 5
REMARK VINA RESULT:      -7.1      6.525     10.359
REMARK  7 active torsions:
REMARK  status: ('A' for Active; 'I' for Inactive)
REMARK    1  A    between atoms: C_2  and  C_3 
REMARK    2  A    between atoms: C_2  and  N_19 
REMARK    3  A    between atoms: C_3  and  N_4 
REMARK    4  A    between atoms: C_7  and  C_10 
REMARK       I    between atoms: N_19  and  C_20 
REMARK    5  A    between atoms: C_20  and  C_22 
REMARK    6  A    between atoms: C_24  and  C_28 
REMARK    7  A    between atoms: C_28  and  O_30 
ROOT
HETATM    1  C   UNK N   1      36.017  13.667  13.771  0.00  0.00    -0.006 A 
HETATM    2  C   UNK N   1      35.151  12.764  14.366  0.00  0.00     0.015 A 
HETATM    3  C   UNK N   1      35.016  12.728  15.740  0.00  0.00     0.025 A 
HETATM    4  C   UNK N   1      35.695  13.642  16.536  0.00  0.00     0.066 A 
HETATM    5  C   UNK N   1      36.618  14.540  15.957  0.00  0.00     0.055 A 
HETATM    6  C   UNK N   1      36.780  14.547  14.563  0.00  0.00     0.039 A 
HETATM    7 Cl   UNK N   1      37.452  15.751  16.926  0.00  0.00    -0.083 Cl
HETATM    8  C   UNK N   1      35.338  13.680  17.924  0.00  0.00     0.101 C 
HETATM    9  N   UNK N   1      35.016  13.669  19.033  0.00  0.00    -0.191 NA
ENDROOT
BRANCH   1  10
HETATM   10  C   UNK N   1      35.819  13.965  12.365  0.00  0.00     0.059 A 
HETATM   11  C   UNK N   1      35.820  15.262  11.871  0.00  0.00     0.050 A 
HETATM   12  C   UNK N   1      36.043  15.116  10.520  0.00  0.00     0.112 A 
HETATM   13  N   UNK N   1      36.140  13.802  10.265  0.00  0.00    -0.301 N 
HETATM   14  N   UNK N   1      36.035  13.107  11.379  0.00  0.00    -0.298 N 
ATOM     15  HN  UNK N   1      36.107  12.092  11.465  1.00  0.00     0.187 HD
BRANCH  13  16
HETATM   16  C   UNK N   1      36.786  13.262   9.103  0.00  0.00     0.172 C 
BRANCH  16  17
HETATM   17  C   UNK N   1      35.840  13.548   7.939  0.00  0.00     0.100 C 
HETATM   18  C   UNK N   1      36.565  13.826   6.629  0.00  0.00     0.034 C 
BRANCH  17  19
HETATM   19  N   UNK N   1      34.943  12.436   7.721  0.00  0.00    -0.350 N 
HETATM   20  C   UNK N   1      33.621  12.591   7.872  0.00  0.00     0.270 C 
HETATM   21  O   UNK N   1      32.858  11.724   7.476  0.00  0.00    -0.266 OA
HETATM   22  H   UNK N   1      35.305  11.559   7.462  0.00  0.00     0.163 HD
BRANCH  20  23
HETATM   23  C   UNK N   1      33.096  13.823   8.442  0.00  0.00     0.117 A 
HETATM   24  C   UNK N   1      32.842  14.954   7.736  0.00  0.00     0.065 A 
HETATM   25  C   UNK N   1      32.332  15.810   8.679  0.00  0.00     0.056 A 
HETATM   26  N   UNK N   1      32.259  15.197   9.877  0.00  0.00    -0.302 N 
HETATM   27  N   UNK N   1      32.748  13.982   9.735  0.00  0.00    -0.295 N 
HETATM   28  H   UNK N   1      31.902  15.587  10.708  0.00  0.00     0.186 HD
ATOM     29  HN  UNK N   1      32.847  13.285  10.473  1.00  0.00     0.187 HD
BRANCH  25  30
HETATM   30  C   UNK N   1      31.735  17.122   8.346  0.00  0.00     0.165 C 
HETATM   31  C   UNK N   1      32.832  18.148   8.144  0.00  0.00     0.046 C 
BRANCH  30  32
HETATM   32  O   UNK N   1      30.947  17.528   9.426  0.00  0.00    -0.390 OA
HETATM   33  H   UNK N   1      31.155  18.190  10.104  0.00  0.00     0.210 HD
ENDBRANCH  30  32
ENDBRANCH  25  30
ENDBRANCH  20  23
ENDBRANCH  17  19
ENDBRANCH  16  17
ENDBRANCH  13  16
ENDBRANCH   1  10
TORSDOF 7
ENDMDL
MODEL 6
REMARK VINA RESULT:      -7.0      2.845      5.362
REMARK  7 active torsions:
REMARK  status: ('A' for Active; 'I' for Inactive)
REMARK    1  A    between atoms: C_2  and  C_3 
REMARK    2  A    between atoms: C_2  and  N_19 
REMARK    3  A    between atoms: C_3  and  N_4 
REMARK    4  A    between atoms: C_7  and  C_10 
REMARK       I    between atoms: N_19  and  C_20 
REMARK    5  A    between atoms: C_20  and  C_22 
REMARK    6  A    between atoms: C_24  and  C_28 
REMARK    7  A    between atoms: C_28  and  O_30 
ROOT
HETATM    1  C   UNK N   1      24.782  19.314   3.765  0.00  0.00    -0.006 A 
HETATM    2  C   UNK N   1      24.275  20.430   3.117  0.00  0.00     0.015 A 
HETATM    3  C   UNK N   1      22.929  20.513   2.822  0.00  0.00     0.025 A 
HETATM    4  C   UNK N   1      22.057  19.510   3.230  0.00  0.00     0.066 A 
HETATM    5  C   UNK N   1      22.557  18.343   3.849  0.00  0.00     0.055 A 
HETATM    6  C   UNK N   1      23.932  18.247   4.113  0.00  0.00     0.039 A 
HETATM    7 Cl   UNK N   1      21.478  17.079   4.432  0.00  0.00    -0.083 Cl
HETATM    8  C   UNK N   1      20.656  19.770   3.076  0.00  0.00     0.101 C 
HETATM    9  N   UNK N   1      19.539  20.028   2.930  0.00  0.00    -0.191 NA
ENDROOT
BRANCH   1  10
HETATM   10  C   UNK N   1      26.068  19.444   4.423  0.00  0.00     0.059 A 
HETATM   11  C   UNK N   1      26.934  20.497   4.165  0.00  0.00     0.050 A 
HETATM   12  C   UNK N   1      27.789  20.514   5.245  0.00  0.00     0.112 A 
HETATM   13  N   UNK N   1      27.434  19.505   6.057  0.00  0.00    -0.301 N 
HETATM   14  N   UNK N   1      26.380  18.877   5.580  0.00  0.00    -0.298 N 
ATOM     15  HN  UNK N   1      25.892  18.097   6.021  1.00  0.00     0.187 HD
BRANCH  13  16
HETATM   16  C   UNK N   1      27.773  19.449   7.451  0.00  0.00     0.172 C 
BRANCH  16  17
HETATM   17  C   UNK N   1      28.773  18.303   7.583  0.00  0.00     0.100 C 
HETATM   18  C   UNK N   1      29.187  18.029   9.023  0.00  0.00     0.034 C 
BRANCH  17  19
HETATM   19  N   UNK N   1      28.229  17.081   7.038  0.00  0.00    -0.350 N 
HETATM   20  C   UNK N   1      28.916  16.377   6.129  0.00  0.00     0.270 C 
HETATM   21  O   UNK N   1      28.560  15.246   5.840  0.00  0.00    -0.266 OA
HETATM   22  H   UNK N   1      27.346  16.763   7.337  0.00  0.00     0.163 HD
BRANCH  20  23
HETATM   23  C   UNK N   1      30.123  16.938   5.541  0.00  0.00     0.117 A 
HETATM   24  C   UNK N   1      31.384  16.685   5.977  0.00  0.00     0.065 A 
HETATM   25  C   UNK N   1      32.170  17.390   5.103  0.00  0.00     0.056 A 
HETATM   26  N   UNK N   1      31.408  18.000   4.175  0.00  0.00    -0.302 N 
HETATM   27  N   UNK N   1      30.148  17.739   4.457  0.00  0.00    -0.295 N 
HETATM   28  H   UNK N   1      31.734  18.543   3.420  0.00  0.00     0.186 HD
ATOM     29  HN  UNK N   1      29.335  18.083   3.946  1.00  0.00     0.187 HD
BRANCH  25  30
HETATM   30  C   UNK N   1      33.645  17.278   5.066  0.00  0.00     0.165 C 
HETATM   31  C   UNK N   1      34.051  15.821   5.155  0.00  0.00     0.046 C 
BRANCH  30  32
HETATM   32  O   UNK N   1      34.161  17.947   6.179  0.00  0.00    -0.390 OA
HETATM   33  H   UNK N   1      34.288  17.605   7.077  0.00  0.00     0.210 HD
ENDBRANCH  30  32
ENDBRANCH  25  30
ENDBRANCH  20  23
ENDBRANCH  17  19
ENDBRANCH  16  17
ENDBRANCH  13  16
ENDBRANCH   1  10
TORSDOF 7
ENDMDL
MODEL 7
REMARK VINA RESULT:      -6.9     11.403     13.467
REMARK  7 active torsions:
REMARK  status: ('A' for Active; 'I' for Inactive)
REMARK    1  A    between atoms: C_2  and  C_3 
REMARK    2  A    between atoms: C_2  and  N_19 
REMARK    3  A    between atoms: C_3  and  N_4 
REMARK    4  A    between atoms: C_7  and  C_10 
REMARK       I    between atoms: N_19  and  C_20 
REMARK    5  A    between atoms: C_20  and  C_22 
REMARK    6  A    between atoms: C_24  and  C_28 
REMARK    7  A    between atoms: C_28  and  O_30 
ROOT
HETATM    1  C   UNK N   1      27.602  24.452  -5.446  0.00  0.00    -0.006 A 
HETATM    2  C   UNK N   1      27.089  24.498  -4.160  0.00  0.00     0.015 A 
HETATM    3  C   UNK N   1      26.815  25.711  -3.561  0.00  0.00     0.025 A 
HETATM    4  C   UNK N   1      26.987  26.897  -4.264  0.00  0.00     0.066 A 
HETATM    5  C   UNK N   1      27.553  26.879  -5.558  0.00  0.00     0.055 A 
HETATM    6  C   UNK N   1      27.865  25.644  -6.149  0.00  0.00     0.039 A 
HETATM    7 Cl   UNK N   1      27.731  28.354  -6.502  0.00  0.00    -0.083 Cl
HETATM    8  C   UNK N   1      26.481  28.090  -3.653  0.00  0.00     0.101 C 
HETATM    9  N   UNK N   1      26.057  29.022  -3.117  0.00  0.00    -0.191 NA
ENDROOT
BRANCH   1  10
HETATM   10  C   UNK N   1      27.474  23.208  -6.180  0.00  0.00     0.059 A 
HETATM   11  C   UNK N   1      26.382  22.929  -6.990  0.00  0.00     0.050 A 
HETATM   12  C   UNK N   1      26.815  21.916  -7.816  0.00  0.00     0.112 A 
HETATM   13  N   UNK N   1      28.079  21.625  -7.471  0.00  0.00    -0.301 N 
HETATM   14  N   UNK N   1      28.489  22.420  -6.505  0.00  0.00    -0.298 N 
ATOM     15  HN  UNK N   1      29.419  22.429  -6.086  1.00  0.00     0.187 HD
BRANCH  13  16
HETATM   16  C   UNK N   1      29.008  20.960  -8.340  0.00  0.00     0.172 C 
BRANCH  16  17
HETATM   17  C   UNK N   1      29.797  20.008  -7.445  0.00  0.00     0.100 C 
HETATM   18  C   UNK N   1      29.337  18.560  -7.554  0.00  0.00     0.034 C 
BRANCH  17  19
HETATM   19  N   UNK N   1      31.205  20.051  -7.763  0.00  0.00    -0.350 N 
HETATM   20  C   UNK N   1      32.111  20.296  -6.807  0.00  0.00     0.270 C 
HETATM   21  O   UNK N   1      33.297  20.114  -7.032  0.00  0.00    -0.266 OA
HETATM   22  H   UNK N   1      31.502  19.900  -8.690  0.00  0.00     0.163 HD
BRANCH  20  23
HETATM   23  C   UNK N   1      31.672  20.712  -5.484  0.00  0.00     0.117 A 
HETATM   24  C   UNK N   1      31.346  21.984  -5.142  0.00  0.00     0.065 A 
HETATM   25  C   UNK N   1      30.964  21.874  -3.830  0.00  0.00     0.056 A 
HETATM   26  N   UNK N   1      31.029  20.589  -3.430  0.00  0.00    -0.302 N 
HETATM   27  N   UNK N   1      31.485  19.878  -4.441  0.00  0.00    -0.295 N 
HETATM   28  H   UNK N   1      30.780  20.244  -2.542  0.00  0.00     0.186 HD
ATOM     29  HN  UNK N   1      31.664  18.874  -4.435  1.00  0.00     0.187 HD
BRANCH  25  30
HETATM   30  C   UNK N   1      30.346  22.982  -3.068  0.00  0.00     0.165 C 
HETATM   31  C   UNK N   1      30.846  24.310  -3.597  0.00  0.00     0.046 C 
BRANCH  30  32
HETATM   32  O   UNK N   1      30.738  22.864  -1.733  0.00  0.00    -0.390 OA
HETATM   33  H   UNK N   1      31.032  22.068  -1.263  0.00  0.00     0.210 HD
ENDBRANCH  30  32
ENDBRANCH  25  30
ENDBRANCH  20  23
ENDBRANCH  17  19
ENDBRANCH  16  17
ENDBRANCH  13  16
ENDBRANCH   1  10
TORSDOF 7
ENDMDL
MODEL 8
REMARK VINA RESULT:      -6.9     13.576     15.835
REMARK  7 active torsions:
REMARK  status: ('A' for Active; 'I' for Inactive)
REMARK    1  A    between atoms: C_2  and  C_3 
REMARK    2  A    between atoms: C_2  and  N_19 
REMARK    3  A    between atoms: C_3  and  N_4 
REMARK    4  A    between atoms: C_7  and  C_10 
REMARK       I    between atoms: N_19  and  C_20 
REMARK    5  A    between atoms: C_20  and  C_22 
REMARK    6  A    between atoms: C_24  and  C_28 
REMARK    7  A    between atoms: C_28  and  O_30 
ROOT
HETATM    1  C   UNK N   1      26.119  26.575  -6.689  0.00  0.00    -0.006 A 
HETATM    2  C   UNK N   1      25.308  26.696  -5.572  0.00  0.00     0.015 A 
HETATM    3  C   UNK N   1      25.493  27.737  -4.685  0.00  0.00     0.025 A 
HETATM    4  C   UNK N   1      26.451  28.713  -4.937  0.00  0.00     0.066 A 
HETATM    5  C   UNK N   1      27.320  28.586  -6.042  0.00  0.00     0.055 A 
HETATM    6  C   UNK N   1      27.152  27.504  -6.921  0.00  0.00     0.039 A 
HETATM    7 Cl   UNK N   1      28.504  29.831  -6.426  0.00  0.00    -0.083 Cl
HETATM    8  C   UNK N   1      26.435  29.867  -4.087  0.00  0.00     0.101 C 
HETATM    9  N   UNK N   1      26.381  30.775  -3.375  0.00  0.00    -0.191 NA
ENDROOT
BRANCH   1  10
HETATM   10  C   UNK N   1      25.639  25.757  -7.786  0.00  0.00     0.059 A 
HETATM   11  C   UNK N   1      25.604  26.214  -9.097  0.00  0.00     0.050 A 
HETATM   12  C   UNK N   1      25.521  25.070  -9.859  0.00  0.00     0.112 A 
HETATM   13  N   UNK N   1      25.489  24.024  -9.017  0.00  0.00    -0.301 N 
HETATM   14  N   UNK N   1      25.589  24.433  -7.769  0.00  0.00    -0.298 N 
ATOM     15  HN  UNK N   1      25.623  23.838  -6.941  1.00  0.00     0.187 HD
BRANCH  13  16
HETATM   16  C   UNK N   1      25.838  22.685  -9.398  0.00  0.00     0.172 C 
BRANCH  16  17
HETATM   17  C   UNK N   1      26.168  21.962  -8.094  0.00  0.00     0.100 C 
HETATM   18  C   UNK N   1      25.026  21.094  -7.581  0.00  0.00     0.034 C 
BRANCH  17  19
HETATM   19  N   UNK N   1      27.329  21.117  -8.255  0.00  0.00    -0.350 N 
HETATM   20  C   UNK N   1      28.464  21.389  -7.598  0.00  0.00     0.270 C 
HETATM   21  O   UNK N   1      29.360  20.561  -7.562  0.00  0.00    -0.266 OA
HETATM   22  H   UNK N   1      27.286  20.335  -8.852  0.00  0.00     0.163 HD
BRANCH  20  23
HETATM   23  C   UNK N   1      28.597  22.643  -6.872  0.00  0.00     0.117 A 
HETATM   24  C   UNK N   1      28.254  22.822  -5.571  0.00  0.00     0.065 A 
HETATM   25  C   UNK N   1      28.593  24.129  -5.329  0.00  0.00     0.056 A 
HETATM   26  N   UNK N   1      29.142  24.681  -6.429  0.00  0.00    -0.302 N 
HETATM   27  N   UNK N   1      29.125  23.774  -7.383  0.00  0.00    -0.295 N 
HETATM   28  H   UNK N   1      29.493  25.598  -6.504  0.00  0.00     0.186 HD
ATOM     29  HN  UNK N   1      29.453  23.903  -8.340  1.00  0.00     0.187 HD
BRANCH  25  30
HETATM   30  C   UNK N   1      28.570  24.738  -3.981  0.00  0.00     0.165 C 
HETATM   31  C   UNK N   1      27.212  24.522  -3.344  0.00  0.00     0.046 C 
BRANCH  30  32
HETATM   32  O   UNK N   1      28.777  26.113  -4.120  0.00  0.00    -0.390 OA
HETATM   33  H   UNK N   1      28.807  26.634  -4.937  0.00  0.00     0.210 HD
ENDBRANCH  30  32
ENDBRANCH  25  30
ENDBRANCH  20  23
ENDBRANCH  17  19
ENDBRANCH  16  17
ENDBRANCH  13  16
ENDBRANCH   1  10
TORSDOF 7
ENDMDL
MODEL 9
REMARK VINA RESULT:      -6.8      4.655      9.442
REMARK  7 active torsions:
REMARK  status: ('A' for Active; 'I' for Inactive)
REMARK    1  A    between atoms: C_2  and  C_3 
REMARK    2  A    between atoms: C_2  and  N_19 
REMARK    3  A    between atoms: C_3  and  N_4 
REMARK    4  A    between atoms: C_7  and  C_10 
REMARK       I    between atoms: N_19  and  C_20 
REMARK    5  A    between atoms: C_20  and  C_22 
REMARK    6  A    between atoms: C_24  and  C_28 
REMARK    7  A    between atoms: C_28  and  O_30 
ROOT
HETATM    1  C   UNK N   1      29.328  17.764   7.025  0.00  0.00    -0.006 A 
HETATM    2  C   UNK N   1      29.711  18.111   8.311  0.00  0.00     0.015 A 
HETATM    3  C   UNK N   1      31.037  18.033   8.689  0.00  0.00     0.025 A 
HETATM    4  C   UNK N   1      32.010  17.671   7.765  0.00  0.00     0.066 A 
HETATM    5  C   UNK N   1      31.640  17.270   6.464  0.00  0.00     0.055 A 
HETATM    6  C   UNK N   1      30.286  17.314   6.095  0.00  0.00     0.039 A 
HETATM    7 Cl   UNK N   1      32.849  16.862   5.250  0.00  0.00    -0.083 Cl
HETATM    8  C   UNK N   1      33.375  17.822   8.175  0.00  0.00     0.101 C 
HETATM    9  N   UNK N   1      34.459  17.960   8.553  0.00  0.00    -0.191 NA
ENDROOT
BRANCH   1  10
HETATM   10  C   UNK N   1      28.049  18.253   6.547  0.00  0.00     0.059 A 
HETATM   11  C   UNK N   1      27.623  19.557   6.760  0.00  0.00     0.050 A 
HETATM   12  C   UNK N   1      26.629  19.752   5.827  0.00  0.00     0.112 A 
HETATM   13  N   UNK N   1      26.490  18.607   5.139  0.00  0.00    -0.301 N 
HETATM   14  N   UNK N   1      27.363  17.711   5.551  0.00  0.00    -0.298 N 
ATOM     15  HN  UNK N   1      27.488  16.773   5.171  1.00  0.00     0.187 HD
BRANCH  13  16
HETATM   16  C   UNK N   1      25.894  18.529   3.835  0.00  0.00     0.172 C 
BRANCH  16  17
HETATM   17  C   UNK N   1      24.632  17.688   4.011  0.00  0.00     0.100 C 
HETATM   18  C   UNK N   1      24.908  16.190   4.046  0.00  0.00     0.034 C 
BRANCH  17  19
HETATM   19  N   UNK N   1      23.945  18.041   5.232  0.00  0.00    -0.350 N 
HETATM   20  C   UNK N   1      22.632  18.303   5.221  0.00  0.00     0.270 C 
HETATM   21  O   UNK N   1      22.018  18.381   6.274  0.00  0.00    -0.266 OA
HETATM   22  H   UNK N   1      24.446  18.091   6.078  0.00  0.00     0.163 HD
BRANCH  20  23
HETATM   23  C   UNK N   1      21.928  18.423   3.953  0.00  0.00     0.117 A 
HETATM   24  C   UNK N   1      21.374  17.386   3.275  0.00  0.00     0.065 A 
HETATM   25  C   UNK N   1      20.801  17.987   2.185  0.00  0.00     0.056 A 
HETATM   26  N   UNK N   1      20.981  19.322   2.238  0.00  0.00    -0.302 N 
HETATM   27  N   UNK N   1      21.691  19.587   3.315  0.00  0.00    -0.295 N 
HETATM   28  H   UNK N   1      20.640  19.980   1.589  0.00  0.00     0.186 HD
ATOM     29  HN  UNK N   1      22.008  20.510   3.612  1.00  0.00     0.187 HD
BRANCH  25  30
HETATM   30  C   UNK N   1      19.916  17.275   1.236  0.00  0.00     0.165 C 
HETATM   31  C   UNK N   1      20.145  15.782   1.344  0.00  0.00     0.046 C 
BRANCH  30  32
HETATM   32  O   UNK N   1      20.251  17.679  -0.059  0.00  0.00    -0.390 OA
HETATM   33  H   UNK N   1      21.134  17.854  -0.422  0.00  0.00     0.210 HD
ENDBRANCH  30  32
ENDBRANCH  25  30
ENDBRANCH  20  23
ENDBRANCH  17  19
ENDBRANCH  16  17
ENDBRANCH  13  16
ENDBRANCH   1  10
TORSDOF 7
ENDMDL
