MODEL 1
REMARK VINA RESULT:      -7.9      0.000      0.000
REMARK  3 active torsions:
REMARK  status: ('A' for Active; 'I' for Inactive)
REMARK    1  A    between atoms: C_5  and  N_8 
REMARK       I    between atoms: N_8  and  C_9 
REMARK    2  A    between atoms: C_17  and  N_23 
REMARK    3  A    between atoms: N_23  and  C_24 
ROOT
HETATM    1  N   UNK N   1      32.509  15.482   9.845  0.00  0.00    -0.221 N 
HETATM    2  C   UNK N   1      33.832  15.002  10.014  0.00  0.00     0.678 A 
HETATM    3  N   UNK N   1      34.833  15.385   9.168  0.00  0.00    -0.200 N 
ATOM      4  HN  UNK N   1      34.620  16.010   8.391  1.00  0.00     0.183 HD
HETATM    5  C   UNK N   1      36.108  14.947   9.345  0.00  0.00     0.138 A 
HETATM    6  C   UNK N   1      36.398  14.079  10.394  0.00  0.00     0.080 A 
HETATM    7  C   UNK N   1      35.358  13.680  11.241  0.00  0.00     0.121 A 
HETATM    8  N   UNK N   1      34.101  14.154  11.040  0.00  0.00    -0.186 N 
ATOM      9  HN  UNK N   1      33.350  13.870  11.669  1.00  0.00     0.184 HD
HETATM   10  C   UNK N   1      35.636  12.786  12.274  0.00  0.00     0.136 A 
HETATM   11  N   UNK N   1      36.913  12.340  12.440  0.00  0.00    -0.337 N 
ATOM     12  HN  UNK N   1      37.121  11.685  13.194  1.00  0.00     0.168 HD
HETATM   13  C   UNK N   1      37.916  12.753  11.616  0.00  0.00     0.182 A 
HETATM   14  N   UNK N   1      37.657  13.615  10.596  0.00  0.00    -0.349 N 
ATOM     15  HN  UNK N   1      38.412  13.912   9.979  1.00  0.00     0.166 HD
HETATM   16  H   UNK N   1      31.872  15.357  10.586  0.00  0.00     0.178 HD
ENDROOT
BRANCH  10  17
HETATM   17  N   UNK N   1      34.576  12.343  13.115  0.00  0.00    -0.340 N 
HETATM   18  H   UNK N   1      33.682  12.291  12.708  0.00  0.00     0.167 HD
BRANCH  17  19
HETATM   19  C   UNK N   1      34.676  11.969  14.482  0.00  0.00     0.035 A 
HETATM   20  C   UNK N   1      34.552  10.616  14.815  0.00  0.00     0.032 A 
HETATM   21  C   UNK N   1      34.650  10.202  16.146  0.00  0.00     0.046 A 
HETATM   22  C   UNK N   1      34.872  11.142  17.156  0.00  0.00     0.138 A 
HETATM   23  C   UNK N   1      34.998  12.498  16.832  0.00  0.00     0.074 A 
HETATM   24  F   UNK N   1      34.963  10.731  18.444  0.00  0.00    -0.204 F 
HETATM   25  C   UNK N   1      34.902  12.908  15.499  0.00  0.00     0.056 A 
HETATM   26 Cl   UNK N   1      35.275  13.693  18.084  0.00  0.00    -0.081 Cl
ENDBRANCH  17  19
ENDBRANCH  10  17
BRANCH   1  27
HETATM   27  C   UNK N   1      32.039  16.146   8.651  0.00  0.00     0.102 C 
HETATM   28  C   UNK N   1      31.878  15.115   7.540  0.00  0.00     0.056 C 
HETATM   29  C   UNK N   1      31.370  15.807   6.276  0.00  0.00     0.274 C 
HETATM   30  N   UNK N   1      30.097  16.480   6.535  0.00  0.00     0.084 N 
HETATM   31  C   UNK N   1      29.720  17.160   5.311  0.00  0.00     0.309 C 
HETATM   32  C   UNK N   1      30.288  17.510   7.557  0.00  0.00     0.274 C 
HETATM   33  C   UNK N   1      30.709  16.862   8.872  0.00  0.00     0.056 C 
ENDBRANCH   1  27
TORSDOF 3
ENDMDL
MODEL 2
REMARK VINA RESULT:      -7.9      1.647      2.241
REMARK  3 active torsions:
REMARK  status: ('A' for Active; 'I' for Inactive)
REMARK    1  A    between atoms: C_5  and  N_8 
REMARK       I    between atoms: N_8  and  C_9 
REMARK    2  A    between atoms: C_17  and  N_23 
REMARK    3  A    between atoms: N_23  and  C_24 
ROOT
HETATM    1  N   UNK N   1      32.977  16.166   9.278  0.00  0.00    -0.221 N 
HETATM    2  C   UNK N   1      34.152  15.383   9.155  0.00  0.00     0.678 A 
HETATM    3  N   UNK N   1      34.530  14.867   7.949  0.00  0.00    -0.200 N 
ATOM      4  HN  UNK N   1      33.947  15.030   7.129  1.00  0.00     0.183 HD
HETATM    5  C   UNK N   1      35.672  14.139   7.824  0.00  0.00     0.138 A 
HETATM    6  C   UNK N   1      36.461  13.899   8.946  0.00  0.00     0.080 A 
HETATM    7  C   UNK N   1      36.050  14.417  10.178  0.00  0.00     0.121 A 
HETATM    8  N   UNK N   1      34.912  15.155  10.257  0.00  0.00    -0.186 N 
ATOM      9  HN  UNK N   1      34.625  15.542  11.156  1.00  0.00     0.184 HD
HETATM   10  C   UNK N   1      36.819  14.153  11.311  0.00  0.00     0.136 A 
HETATM   11  N   UNK N   1      37.956  13.412  11.183  0.00  0.00    -0.337 N 
ATOM     12  HN  UNK N   1      38.521  13.216  12.008  1.00  0.00     0.168 HD
HETATM   13  C   UNK N   1      38.349  12.930   9.972  0.00  0.00     0.182 A 
HETATM   14  N   UNK N   1      37.602  13.169   8.861  0.00  0.00    -0.349 N 
ATOM     15  HN  UNK N   1      37.900  12.796   7.959  1.00  0.00     0.166 HD
HETATM   16  H   UNK N   1      32.853  16.690  10.103  0.00  0.00     0.178 HD
ENDROOT
BRANCH  10  17
HETATM   17  N   UNK N   1      36.387  14.644  12.575  0.00  0.00    -0.340 N 
HETATM   18  H   UNK N   1      36.370  15.621  12.687  0.00  0.00     0.167 HD
BRANCH  17  19
HETATM   19  C   UNK N   1      35.976  13.868  13.692  0.00  0.00     0.035 A 
HETATM   20  C   UNK N   1      36.521  14.161  14.947  0.00  0.00     0.032 A 
HETATM   21  C   UNK N   1      36.141  13.428  16.073  0.00  0.00     0.046 A 
HETATM   22  C   UNK N   1      35.212  12.392  15.953  0.00  0.00     0.138 A 
HETATM   23  C   UNK N   1      34.661  12.091  14.701  0.00  0.00     0.074 A 
HETATM   24  F   UNK N   1      34.851  11.684  17.051  0.00  0.00    -0.204 F 
HETATM   25  C   UNK N   1      35.042  12.828  13.577  0.00  0.00     0.056 A 
HETATM   26 Cl   UNK N   1      33.495  10.794  14.527  0.00  0.00    -0.081 Cl
ENDBRANCH  17  19
ENDBRANCH  10  17
BRANCH   1  27
HETATM   27  C   UNK N   1      31.950  16.243   8.265  0.00  0.00     0.102 C 
HETATM   28  C   UNK N   1      30.699  16.869   8.872  0.00  0.00     0.056 C 
HETATM   29  C   UNK N   1      29.611  16.964   7.804  0.00  0.00     0.274 C 
HETATM   30  N   UNK N   1      30.076  17.756   6.666  0.00  0.00     0.084 N 
HETATM   31  C   UNK N   1      29.014  17.743   5.677  0.00  0.00     0.309 C 
HETATM   32  C   UNK N   1      31.236  17.104   6.058  0.00  0.00     0.274 C 
HETATM   33  C   UNK N   1      32.389  17.064   7.055  0.00  0.00     0.056 C 
ENDBRANCH   1  27
TORSDOF 3
ENDMDL
MODEL 3
REMARK VINA RESULT:      -7.4     10.896     12.513
REMARK  3 active torsions:
REMARK  status: ('A' for Active; 'I' for Inactive)
REMARK    1  A    between atoms: C_5  and  N_8 
REMARK       I    between atoms: N_8  and  C_9 
REMARK    2  A    between atoms: C_17  and  N_23 
REMARK    3  A    between atoms: N_23  and  C_24 
ROOT
HETATM    1  N   UNK N   1      23.313  17.092   4.841  0.00  0.00    -0.221 N 
HETATM    2  C   UNK N   1      23.428  15.682   4.746  0.00  0.00     0.678 A 
HETATM    3  N   UNK N   1      23.313  15.048   3.542  0.00  0.00    -0.200 N 
ATOM      4  HN  UNK N   1      23.122  15.595   2.703  1.00  0.00     0.183 HD
HETATM    5  C   UNK N   1      23.451  13.698   3.444  0.00  0.00     0.138 A 
HETATM    6  C   UNK N   1      23.694  12.947   4.591  0.00  0.00     0.080 A 
HETATM    7  C   UNK N   1      23.789  13.609   5.819  0.00  0.00     0.121 A 
HETATM    8  N   UNK N   1      23.663  14.961   5.872  0.00  0.00    -0.186 N 
ATOM      9  HN  UNK N   1      23.748  15.440   6.769  1.00  0.00     0.184 HD
HETATM   10  C   UNK N   1      24.001  12.859   6.975  0.00  0.00     0.136 A 
HETATM   11  N   UNK N   1      24.125  11.505   6.873  0.00  0.00    -0.337 N 
ATOM     12  HN  UNK N   1      24.279  10.952   7.716  1.00  0.00     0.168 HD
HETATM   13  C   UNK N   1      24.047  10.879   5.666  0.00  0.00     0.182 A 
HETATM   14  N   UNK N   1      23.828  11.598   4.533  0.00  0.00    -0.349 N 
ATOM     15  HN  UNK N   1      23.762  11.120   3.634  1.00  0.00     0.166 HD
HETATM   16  H   UNK N   1      23.609  17.526   5.675  0.00  0.00     0.178 HD
ENDROOT
BRANCH  10  17
HETATM   17  N   UNK N   1      24.059  13.521   8.234  0.00  0.00    -0.340 N 
HETATM   18  H   UNK N   1      24.385  14.449   8.230  0.00  0.00     0.167 HD
BRANCH  17  19
HETATM   19  C   UNK N   1      23.693  12.980   9.496  0.00  0.00     0.035 A 
HETATM   20  C   UNK N   1      24.708  12.562  10.363  0.00  0.00     0.032 A 
HETATM   21  C   UNK N   1      24.395  12.030  11.616  0.00  0.00     0.046 A 
HETATM   22  C   UNK N   1      23.060  11.910  12.011  0.00  0.00     0.138 A 
HETATM   23  C   UNK N   1      22.037  12.326  11.149  0.00  0.00     0.074 A 
HETATM   24  F   UNK N   1      22.766  11.390  13.228  0.00  0.00    -0.204 F 
HETATM   25  C   UNK N   1      22.355  12.860   9.898  0.00  0.00     0.056 A 
HETATM   26 Cl   UNK N   1      20.356  12.183  11.625  0.00  0.00    -0.081 Cl
ENDBRANCH  17  19
ENDBRANCH  10  17
BRANCH   1  27
HETATM   27  C   UNK N   1      22.790  17.932   3.789  0.00  0.00     0.102 C 
HETATM   28  C   UNK N   1      21.268  17.946   3.875  0.00  0.00     0.056 C 
HETATM   29  C   UNK N   1      20.706  18.841   2.772  0.00  0.00     0.274 C 
HETATM   30  N   UNK N   1      21.237  20.199   2.892  0.00  0.00     0.084 N 
HETATM   31  C   UNK N   1      20.707  20.962   1.778  0.00  0.00     0.309 C 
HETATM   32  C   UNK N   1      22.691  20.171   2.741  0.00  0.00     0.274 C 
HETATM   33  C   UNK N   1      23.314  19.363   3.875  0.00  0.00     0.056 C 
ENDBRANCH   1  27
TORSDOF 3
ENDMDL
MODEL 4
REMARK VINA RESULT:      -7.3      1.954      3.122
REMARK  3 active torsions:
REMARK  status: ('A' for Active; 'I' for Inactive)
REMARK    1  A    between atoms: C_5  and  N_8 
REMARK       I    between atoms: N_8  and  C_9 
REMARK    2  A    between atoms: C_17  and  N_23 
REMARK    3  A    between atoms: N_23  and  C_24 
ROOT
HETATM    1  N   UNK N   1      34.552  14.205  11.456  0.00  0.00    -0.221 N 
HETATM    2  C   UNK N   1      35.341  13.033  11.563  0.00  0.00     0.678 A 
HETATM    3  N   UNK N   1      36.277  12.728  10.617  0.00  0.00    -0.200 N 
ATOM      4  HN  UNK N   1      36.395  13.342   9.812  1.00  0.00     0.183 HD
HETATM    5  C   UNK N   1      37.056  11.618  10.732  0.00  0.00     0.138 A 
HETATM    6  C   UNK N   1      36.884  10.768  11.821  0.00  0.00     0.080 A 
HETATM    7  C   UNK N   1      35.907  11.083  12.771  0.00  0.00     0.121 A 
HETATM    8  N   UNK N   1      35.163  12.211  12.629  0.00  0.00    -0.186 N 
ATOM      9  HN  UNK N   1      34.462  12.443  13.333  1.00  0.00     0.184 HD
HETATM   10  C   UNK N   1      35.709  10.219  13.847  0.00  0.00     0.136 A 
HETATM   11  N   UNK N   1      36.483   9.101  13.951  0.00  0.00    -0.337 N 
ATOM     12  HN  UNK N   1      36.341   8.466  14.736  1.00  0.00     0.168 HD
HETATM   13  C   UNK N   1      37.441   8.819  13.026  0.00  0.00     0.182 A 
HETATM   14  N   UNK N   1      37.636   9.647  11.964  0.00  0.00    -0.349 N 
ATOM     15  HN  UNK N   1      38.350   9.423  11.271  1.00  0.00     0.166 HD
HETATM   16  H   UNK N   1      34.047  14.498  12.250  0.00  0.00     0.178 HD
ENDROOT
BRANCH  10  17
HETATM   17  N   UNK N   1      34.690  10.512  14.797  0.00  0.00    -0.340 N 
HETATM   18  H   UNK N   1      33.760  10.383  14.501  0.00  0.00     0.167 HD
BRANCH  17  19
HETATM   19  C   UNK N   1      34.876  10.971  16.129  0.00  0.00     0.035 A 
HETATM   20  C   UNK N   1      34.936  10.026  17.159  0.00  0.00     0.032 A 
HETATM   21  C   UNK N   1      35.125  10.432  18.482  0.00  0.00     0.046 A 
HETATM   22  C   UNK N   1      35.253  11.789  18.786  0.00  0.00     0.138 A 
HETATM   23  C   UNK N   1      35.194  12.742  17.761  0.00  0.00     0.074 A 
HETATM   24  F   UNK N   1      35.432  12.173  20.074  0.00  0.00    -0.204 F 
HETATM   25  C   UNK N   1      35.008  12.332  16.439  0.00  0.00     0.056 A 
HETATM   26 Cl   UNK N   1      35.351  14.450  18.121  0.00  0.00    -0.081 Cl
ENDBRANCH  17  19
ENDBRANCH  10  17
BRANCH   1  27
HETATM   27  C   UNK N   1      34.442  14.997  10.253  0.00  0.00     0.102 C 
HETATM   28  C   UNK N   1      32.983  15.035   9.814  0.00  0.00     0.056 C 
HETATM   29  C   UNK N   1      32.856  15.880   8.547  0.00  0.00     0.274 C 
HETATM   30  N   UNK N   1      33.354  17.235   8.783  0.00  0.00     0.084 N 
HETATM   31  C   UNK N   1      33.258  17.947   7.522  0.00  0.00     0.309 C 
HETATM   32  C   UNK N   1      34.772  17.181   9.138  0.00  0.00     0.274 C 
HETATM   33  C   UNK N   1      34.948  16.424  10.451  0.00  0.00     0.056 C 
ENDBRANCH   1  27
TORSDOF 3
ENDMDL
MODEL 5
REMARK VINA RESULT:      -7.1     14.142     16.121
REMARK  3 active torsions:
REMARK  status: ('A' for Active; 'I' for Inactive)
REMARK    1  A    between atoms: C_5  and  N_8 
REMARK       I    between atoms: N_8  and  C_9 
REMARK    2  A    between atoms: C_17  and  N_23 
REMARK    3  A    between atoms: N_23  and  C_24 
ROOT
HETATM    1  N   UNK N   1      21.886  14.001   2.247  0.00  0.00    -0.221 N 
HETATM    2  C   UNK N   1      21.392  15.322   2.109  0.00  0.00     0.678 A 
HETATM    3  N   UNK N   1      20.729  15.710   0.980  0.00  0.00    -0.200 N 
ATOM      4  HN  UNK N   1      20.606  15.045   0.218  1.00  0.00     0.183 HD
HETATM    5  C   UNK N   1      20.230  16.970   0.857  0.00  0.00     0.138 A 
HETATM    6  C   UNK N   1      20.413  17.885   1.890  0.00  0.00     0.080 A 
HETATM    7  C   UNK N   1      21.111  17.479   3.032  0.00  0.00     0.121 A 
HETATM    8  N   UNK N   1      21.578  16.206   3.123  0.00  0.00    -0.186 N 
ATOM      9  HN  UNK N   1      22.074  15.911   3.964  1.00  0.00     0.184 HD
HETATM   10  C   UNK N   1      21.324  18.401   4.056  0.00  0.00     0.136 A 
HETATM   11  N   UNK N   1      20.833  19.665   3.922  0.00  0.00    -0.337 N 
ATOM     12  HN  UNK N   1      20.987  20.343   4.668  1.00  0.00     0.168 HD
HETATM   13  C   UNK N   1      20.141  20.038   2.810  0.00  0.00     0.182 A 
HETATM   14  N   UNK N   1      19.937  19.153   1.799  0.00  0.00    -0.349 N 
ATOM     15  HN  UNK N   1      19.424  19.444   0.966  1.00  0.00     0.166 HD
HETATM   16  H   UNK N   1      22.164  13.701   3.144  0.00  0.00     0.178 HD
ENDROOT
BRANCH  10  17
HETATM   17  N   UNK N   1      22.068  18.007   5.203  0.00  0.00    -0.340 N 
HETATM   18  H   UNK N   1      23.020  18.258   5.220  0.00  0.00     0.167 HD
BRANCH  17  19
HETATM   19  C   UNK N   1      21.579  17.289   6.328  0.00  0.00     0.035 A 
HETATM   20  C   UNK N   1      22.144  16.043   6.622  0.00  0.00     0.032 A 
HETATM   21  C   UNK N   1      21.698  15.306   7.722  0.00  0.00     0.046 A 
HETATM   22  C   UNK N   1      20.681  15.810   8.536  0.00  0.00     0.138 A 
HETATM   23  C   UNK N   1      20.109  17.056   8.248  0.00  0.00     0.074 A 
HETATM   24  F   UNK N   1      20.253  15.085   9.599  0.00  0.00    -0.204 F 
HETATM   25  C   UNK N   1      20.560  17.791   7.149  0.00  0.00     0.056 A 
HETATM   26 Cl   UNK N   1      18.831  17.705   9.256  0.00  0.00    -0.081 Cl
ENDBRANCH  17  19
ENDBRANCH  10  17
BRANCH   1  27
HETATM   27  C   UNK N   1      22.005  13.066   1.153  0.00  0.00     0.102 C 
HETATM   28  C   UNK N   1      23.414  13.152   0.576  0.00  0.00     0.056 C 
HETATM   29  C   UNK N   1      23.553  12.158  -0.576  0.00  0.00     0.274 C 
HETATM   30  N   UNK N   1      23.272  10.798  -0.117  0.00  0.00     0.084 N 
HETATM   31  C   UNK N   1      23.362   9.932  -1.277  0.00  0.00     0.309 C 
HETATM   32  C   UNK N   1      21.895  10.721   0.371  0.00  0.00     0.274 C 
HETATM   33  C   UNK N   1      21.723  11.629   1.584  0.00  0.00     0.056 C 
ENDBRANCH   1  27
TORSDOF 3
ENDMDL
MODEL 6
REMARK VINA RESULT:      -7.1      8.290     13.825
REMARK  3 active torsions:
REMARK  status: ('A' for Active; 'I' for Inactive)
REMARK    1  A    between atoms: C_5  and  N_8 
REMARK       I    between atoms: N_8  and  C_9 
REMARK    2  A    between atoms: C_17  and  N_23 
REMARK    3  A    between atoms: N_23  and  C_24 
ROOT
HETATM    1  N   UNK N   1      28.199  17.344   6.494  0.00  0.00    -0.221 N 
HETATM    2  C   UNK N   1      27.457  18.153   5.597  0.00  0.00     0.678 A 
HETATM    3  N   UNK N   1      28.083  19.039   4.768  0.00  0.00    -0.200 N 
ATOM      4  HN  UNK N   1      29.097  19.134   4.809  1.00  0.00     0.183 HD
HETATM    5  C   UNK N   1      27.375  19.797   3.887  0.00  0.00     0.138 A 
HETATM    6  C   UNK N   1      25.988  19.682   3.842  0.00  0.00     0.080 A 
HETATM    7  C   UNK N   1      25.360  18.784   4.711  0.00  0.00     0.121 A 
HETATM    8  N   UNK N   1      26.105  18.033   5.564  0.00  0.00    -0.186 N 
ATOM      9  HN  UNK N   1      25.642  17.370   6.186  1.00  0.00     0.184 HD
HETATM   10  C   UNK N   1      23.969  18.688   4.692  0.00  0.00     0.136 A 
HETATM   11  N   UNK N   1      23.263  19.458   3.817  0.00  0.00    -0.337 N 
ATOM     12  HN  UNK N   1      22.246  19.392   3.800  1.00  0.00     0.168 HD
HETATM   13  C   UNK N   1      23.893  20.315   2.965  0.00  0.00     0.182 A 
HETATM   14  N   UNK N   1      25.248  20.428   2.983  0.00  0.00    -0.349 N 
ATOM     15  HN  UNK N   1      25.711  21.078   2.347  1.00  0.00     0.166 HD
HETATM   16  H   UNK N   1      27.742  16.580   6.915  0.00  0.00     0.178 HD
ENDROOT
BRANCH  10  17
HETATM   17  N   UNK N   1      23.320  17.807   5.602  0.00  0.00    -0.340 N 
HETATM   18  H   UNK N   1      23.784  17.628   6.451  0.00  0.00     0.167 HD
BRANCH  17  19
HETATM   19  C   UNK N   1      22.070  17.158   5.411  0.00  0.00     0.035 A 
HETATM   20  C   UNK N   1      21.213  17.022   6.508  0.00  0.00     0.032 A 
HETATM   21  C   UNK N   1      19.972  16.398   6.364  0.00  0.00     0.046 A 
HETATM   22  C   UNK N   1      19.578  15.901   5.119  0.00  0.00     0.138 A 
HETATM   23  C   UNK N   1      20.430  16.033   4.015  0.00  0.00     0.074 A 
HETATM   24  F   UNK N   1      18.373  15.294   4.990  0.00  0.00    -0.204 F 
HETATM   25  C   UNK N   1      21.669  16.661   4.162  0.00  0.00     0.056 A 
HETATM   26 Cl   UNK N   1      19.957  15.416   2.444  0.00  0.00    -0.081 Cl
ENDBRANCH  17  19
ENDBRANCH  10  17
BRANCH   1  27
HETATM   27  C   UNK N   1      29.586  17.572   6.827  0.00  0.00     0.102 C 
HETATM   28  C   UNK N   1      29.700  17.844   8.323  0.00  0.00     0.056 C 
HETATM   29  C   UNK N   1      31.166  18.076   8.685  0.00  0.00     0.274 C 
HETATM   30  N   UNK N   1      31.976  16.916   8.315  0.00  0.00     0.084 N 
HETATM   31  C   UNK N   1      33.354  17.242   8.632  0.00  0.00     0.309 C 
HETATM   32  C   UNK N   1      31.906  16.712   6.868  0.00  0.00     0.274 C 
HETATM   33  C   UNK N   1      30.473  16.385   6.460  0.00  0.00     0.056 C 
ENDBRANCH   1  27
TORSDOF 3
ENDMDL
MODEL 7
REMARK VINA RESULT:      -7.0      4.422      9.012
REMARK  3 active torsions:
REMARK  status: ('A' for Active; 'I' for Inactive)
REMARK    1  A    between atoms: C_5  and  N_8 
REMARK       I    between atoms: N_8  and  C_9 
REMARK    2  A    between atoms: C_17  and  N_23 
REMARK    3  A    between atoms: N_23  and  C_24 
ROOT
HETATM    1  N   UNK N   1      34.394  13.387  11.975  0.00  0.00    -0.221 N 
HETATM    2  C   UNK N   1      34.739  13.752  10.650  0.00  0.00     0.678 A 
HETATM    3  N   UNK N   1      35.744  13.112   9.984  0.00  0.00    -0.200 N 
ATOM      4  HN  UNK N   1      36.267  12.374  10.454  1.00  0.00     0.183 HD
HETATM    5  C   UNK N   1      36.058  13.441   8.702  0.00  0.00     0.138 A 
HETATM    6  C   UNK N   1      35.357  14.460   8.063  0.00  0.00     0.080 A 
HETATM    7  C   UNK N   1      34.344  15.120   8.765  0.00  0.00     0.121 A 
HETATM    8  N   UNK N   1      34.049  14.749  10.038  0.00  0.00    -0.186 N 
ATOM      9  HN  UNK N   1      33.300  15.225  10.540  1.00  0.00     0.184 HD
HETATM   10  C   UNK N   1      33.660  16.163   8.141  0.00  0.00     0.136 A 
HETATM   11  N   UNK N   1      33.987  16.498   6.861  0.00  0.00    -0.337 N 
ATOM     12  HN  UNK N   1      33.491  17.261   6.401  1.00  0.00     0.168 HD
HETATM   13  C   UNK N   1      34.966  15.833   6.187  0.00  0.00     0.182 A 
HETATM   14  N   UNK N   1      35.649  14.823   6.788  0.00  0.00    -0.349 N 
ATOM     15  HN  UNK N   1      36.386  14.335   6.278  1.00  0.00     0.166 HD
HETATM   16  H   UNK N   1      33.541  13.718  12.340  0.00  0.00     0.178 HD
ENDROOT
BRANCH  10  17
HETATM   17  N   UNK N   1      32.655  16.867   8.863  0.00  0.00    -0.340 N 
HETATM   18  H   UNK N   1      32.880  17.140   9.781  0.00  0.00     0.167 HD
BRANCH  17  19
HETATM   19  C   UNK N   1      31.360  17.217   8.394  0.00  0.00     0.035 A 
HETATM   20  C   UNK N   1      30.706  18.302   8.986  0.00  0.00     0.032 A 
HETATM   21  C   UNK N   1      29.434  18.685   8.552  0.00  0.00     0.046 A 
HETATM   22  C   UNK N   1      28.806  17.982   7.521  0.00  0.00     0.138 A 
HETATM   23  C   UNK N   1      29.454  16.893   6.923  0.00  0.00     0.074 A 
HETATM   24  F   UNK N   1      27.571  18.359   7.109  0.00  0.00    -0.204 F 
HETATM   25  C   UNK N   1      30.726  16.515   7.358  0.00  0.00     0.056 A 
HETATM   26 Cl   UNK N   1      28.682  15.997   5.629  0.00  0.00    -0.081 Cl
ENDBRANCH  17  19
ENDBRANCH  10  17
BRANCH   1  27
HETATM   27  C   UNK N   1      35.218  12.558  12.824  0.00  0.00     0.102 C 
HETATM   28  C   UNK N   1      35.709  13.388  14.005  0.00  0.00     0.056 C 
HETATM   29  C   UNK N   1      36.573  12.516  14.914  0.00  0.00     0.274 C 
HETATM   30  N   UNK N   1      35.815  11.357  15.385  0.00  0.00     0.084 N 
HETATM   31  C   UNK N   1      36.721  10.554  16.184  0.00  0.00     0.309 C 
HETATM   32  C   UNK N   1      35.410  10.539  14.242  0.00  0.00     0.274 C 
HETATM   33  C   UNK N   1      34.468  11.335  13.344  0.00  0.00     0.056 C 
ENDBRANCH   1  27
TORSDOF 3
ENDMDL
MODEL 8
REMARK VINA RESULT:      -6.9      3.938      8.738
REMARK  3 active torsions:
REMARK  status: ('A' for Active; 'I' for Inactive)
REMARK    1  A    between atoms: C_5  and  N_8 
REMARK       I    between atoms: N_8  and  C_9 
REMARK    2  A    between atoms: C_17  and  N_23 
REMARK    3  A    between atoms: N_23  and  C_24 
ROOT
HETATM    1  N   UNK N   1      34.288  11.830  12.695  0.00  0.00    -0.221 N 
HETATM    2  C   UNK N   1      34.996  12.323  11.570  0.00  0.00     0.678 A 
HETATM    3  N   UNK N   1      36.359  12.263  11.517  0.00  0.00    -0.200 N 
ATOM      4  HN  UNK N   1      36.875  11.877  12.307  1.00  0.00     0.183 HD
HETATM    5  C   UNK N   1      37.039  12.710  10.427  0.00  0.00     0.138 A 
HETATM    6  C   UNK N   1      36.338  13.253   9.354  0.00  0.00     0.080 A 
HETATM    7  C   UNK N   1      34.943  13.326   9.432  0.00  0.00     0.121 A 
HETATM    8  N   UNK N   1      34.301  12.853  10.531  0.00  0.00    -0.186 N 
ATOM      9  HN  UNK N   1      33.282  12.895  10.576  1.00  0.00     0.184 HD
HETATM   10  C   UNK N   1      34.238  13.898   8.375  0.00  0.00     0.136 A 
HETATM   11  N   UNK N   1      34.925  14.356   7.290  0.00  0.00    -0.337 N 
ATOM     12  HN  UNK N   1      34.413  14.776   6.514  1.00  0.00     0.168 HD
HETATM   13  C   UNK N   1      36.282  14.262   7.224  0.00  0.00     0.182 A 
HETATM   14  N   UNK N   1      36.983  13.717   8.254  0.00  0.00    -0.349 N 
ATOM     15  HN  UNK N   1      38.000  13.658   8.200  1.00  0.00     0.166 HD
HETATM   16  H   UNK N   1      33.316  11.696  12.608  0.00  0.00     0.178 HD
ENDROOT
BRANCH  10  17
HETATM   17  N   UNK N   1      32.822  14.012   8.463  0.00  0.00    -0.340 N 
HETATM   18  H   UNK N   1      32.351  13.300   8.954  0.00  0.00     0.167 HD
BRANCH  17  19
HETATM   19  C   UNK N   1      32.017  15.048   7.918  0.00  0.00     0.035 A 
HETATM   20  C   UNK N   1      31.531  14.902   6.614  0.00  0.00     0.032 A 
HETATM   21  C   UNK N   1      30.731  15.893   6.041  0.00  0.00     0.046 A 
HETATM   22  C   UNK N   1      30.411  17.042   6.769  0.00  0.00     0.138 A 
HETATM   23  C   UNK N   1      30.893  17.197   8.074  0.00  0.00     0.074 A 
HETATM   24  F   UNK N   1      29.636  17.999   6.202  0.00  0.00    -0.204 F 
HETATM   25  C   UNK N   1      31.691  16.203   8.645  0.00  0.00     0.056 A 
HETATM   26 Cl   UNK N   1      30.505  18.631   9.004  0.00  0.00    -0.081 Cl
ENDBRANCH  17  19
ENDBRANCH  10  17
BRANCH   1  27
HETATM   27  C   UNK N   1      34.906  11.512  13.961  0.00  0.00     0.102 C 
HETATM   28  C   UNK N   1      35.098  12.797  14.758  0.00  0.00     0.056 C 
HETATM   29  C   UNK N   1      35.741  12.468  16.104  0.00  0.00     0.274 C 
HETATM   30  N   UNK N   1      34.912  11.523  16.852  0.00  0.00     0.084 N 
HETATM   31  C   UNK N   1      35.621  11.217  18.080  0.00  0.00     0.309 C 
HETATM   32  C   UNK N   1      34.795  10.274  16.101  0.00  0.00     0.274 C 
HETATM   33  C   UNK N   1      34.074  10.529  14.781  0.00  0.00     0.056 C 
ENDBRANCH   1  27
TORSDOF 3
ENDMDL
MODEL 9
REMARK VINA RESULT:      -6.9      3.183      3.742
REMARK  3 active torsions:
REMARK  status: ('A' for Active; 'I' for Inactive)
REMARK    1  A    between atoms: C_5  and  N_8 
REMARK       I    between atoms: N_8  and  C_9 
REMARK    2  A    between atoms: C_17  and  N_23 
REMARK    3  A    between atoms: N_23  and  C_24 
ROOT
HETATM    1  N   UNK N   1      33.394  14.601   9.496  0.00  0.00    -0.221 N 
HETATM    2  C   UNK N   1      34.292  14.596  10.592  0.00  0.00     0.678 A 
HETATM    3  N   UNK N   1      35.236  15.572  10.732  0.00  0.00    -0.200 N 
ATOM      4  HN  UNK N   1      35.308  16.305  10.026  1.00  0.00     0.183 HD
HETATM    5  C   UNK N   1      36.081  15.584  11.798  0.00  0.00     0.138 A 
HETATM    6  C   UNK N   1      35.997  14.575  12.753  0.00  0.00     0.080 A 
HETATM    7  C   UNK N   1      35.038  13.571  12.586  0.00  0.00     0.121 A 
HETATM    8  N   UNK N   1      34.201  13.605  11.516  0.00  0.00    -0.186 N 
ATOM      9  HN  UNK N   1      33.494  12.877  11.407  1.00  0.00     0.184 HD
HETATM   10  C   UNK N   1      34.970  12.540  13.522  0.00  0.00     0.136 A 
HETATM   11  N   UNK N   1      35.828  12.550  14.582  0.00  0.00    -0.337 N 
ATOM     12  HN  UNK N   1      35.783  11.798  15.269  1.00  0.00     0.168 HD
HETATM   13  C   UNK N   1      36.744  13.545  14.738  0.00  0.00     0.182 A 
HETATM   14  N   UNK N   1      36.829  14.550  13.825  0.00  0.00    -0.349 N 
ATOM     15  HN  UNK N   1      37.524  15.287  13.945  1.00  0.00     0.166 HD
HETATM   16  H   UNK N   1      32.604  14.014   9.541  0.00  0.00     0.178 HD
ENDROOT
BRANCH  10  17
HETATM   17  N   UNK N   1      34.024  11.493  13.338  0.00  0.00    -0.340 N 
HETATM   18  H   UNK N   1      33.105  11.669  13.642  0.00  0.00     0.167 HD
BRANCH  17  19
HETATM   19  C   UNK N   1      34.270  10.219  12.759  0.00  0.00     0.035 A 
HETATM   20  C   UNK N   1      33.651   9.906  11.544  0.00  0.00     0.032 A 
HETATM   21  C   UNK N   1      33.870   8.668  10.935  0.00  0.00     0.046 A 
HETATM   22  C   UNK N   1      34.709   7.729  11.541  0.00  0.00     0.138 A 
HETATM   23  C   UNK N   1      35.332   8.033  12.758  0.00  0.00     0.074 A 
HETATM   24  F   UNK N   1      34.912   6.529  10.945  0.00  0.00    -0.204 F 
HETATM   25  C   UNK N   1      35.114   9.274  13.362  0.00  0.00     0.056 A 
HETATM   26 Cl   UNK N   1      36.388   6.870  13.535  0.00  0.00    -0.081 Cl
ENDBRANCH  17  19
ENDBRANCH  10  17
BRANCH   1  27
HETATM   27  C   UNK N   1      33.565  15.417   8.317  0.00  0.00     0.102 C 
HETATM   28  C   UNK N   1      33.169  14.605   7.088  0.00  0.00     0.056 C 
HETATM   29  C   UNK N   1      33.337  15.464   5.836  0.00  0.00     0.274 C 
HETATM   30  N   UNK N   1      32.523  16.676   5.932  0.00  0.00     0.084 N 
HETATM   31  C   UNK N   1      32.789  17.460   4.740  0.00  0.00     0.309 C 
HETATM   32  C   UNK N   1      32.964  17.472   7.077  0.00  0.00     0.274 C 
HETATM   33  C   UNK N   1      32.731  16.694   8.368  0.00  0.00     0.056 C 
ENDBRANCH   1  27
TORSDOF 3
ENDMDL
