MODEL 1
REMARK VINA RESULT:      -8.0      0.000      0.000
REMARK  3 active torsions:
REMARK  status: ('A' for Active; 'I' for Inactive)
REMARK    1  A    between atoms: C_2  and  S_3 
REMARK    2  A    between atoms: S_3  and  C_6 
REMARK    3  A    between atoms: C_14  and  C_16 
ROOT
HETATM    1  C   UNK N   1      34.448  15.043   9.391  0.00  0.00     0.061 A 
HETATM    2  C   UNK N   1      35.236  16.122   9.875  0.00  0.00     0.026 A 
HETATM    3  C   UNK N   1      35.805  16.067  11.170  0.00  0.00     0.041 A 
HETATM    4  C   UNK N   1      35.540  14.934  11.938  0.00  0.00     0.104 A 
HETATM    5  C   UNK N   1      34.788  13.907  11.462  0.00  0.00     0.069 A 
HETATM    6  C   UNK N   1      34.221  13.919  10.201  0.00  0.00     0.055 A 
HETATM    7  N   UNK N   1      34.685  12.951  12.389  0.00  0.00    -0.334 N 
ATOM      8  HN  UNK N   1      34.189  12.062  12.327  1.00  0.00     0.168 HD
HETATM    9  C   UNK N   1      35.397  13.445  13.433  0.00  0.00     0.159 A 
HETATM   10  O   UNK N   1      35.911  14.637  13.161  0.00  0.00    -0.291 OA
ENDROOT
BRANCH   9  11
HETATM   11  C   UNK N   1      35.585  12.697  14.681  0.00  0.00     0.016 A 
HETATM   12  C   UNK N   1      35.985  11.353  14.672  0.00  0.00     0.017 A 
HETATM   13  C   UNK N   1      36.112  10.650  15.877  0.00  0.00     0.013 A 
HETATM   14  C   UNK N   1      35.830  11.286  17.092  0.00  0.00    -0.026 A 
HETATM   15  C   UNK N   1      35.930  10.586  18.299  0.00  0.00     0.012 A 
HETATM   16  C   UNK N   1      35.433  12.640  17.100  0.00  0.00    -0.025 A 
HETATM   17  C   UNK N   1      35.634  11.230  19.506  0.00  0.00     0.001 A 
HETATM   18  C   UNK N   1      35.240  12.573  19.511  0.00  0.00     0.001 A 
HETATM   19  C   UNK N   1      35.142  13.279  18.308  0.00  0.00     0.012 A 
HETATM   20  C   UNK N   1      35.318  13.334  15.900  0.00  0.00     0.028 A 
ENDBRANCH   9  11
BRANCH   1  21
HETATM   21  S   UNK N   1      33.534  15.167   7.856  0.00  0.00     0.175 S 
HETATM   22  O   UNK N   1      32.597  13.953   7.736  0.00  0.00    -0.223 OA
HETATM   23  O   UNK N   1      32.443  16.086   8.411  0.00  0.00    -0.223 OA
BRANCH  21  24
HETATM   24  C   UNK N   1      33.681  16.003   6.246  0.00  0.00     0.141 C 
HETATM   25  C   UNK N   1      33.642  17.509   6.405  0.00  0.00     0.021 C 
ENDBRANCH  21  24
ENDBRANCH   1  21
TORSDOF 3
ENDMDL
MODEL 2
REMARK VINA RESULT:      -8.0      8.923     13.065
REMARK  3 active torsions:
REMARK  status: ('A' for Active; 'I' for Inactive)
REMARK    1  A    between atoms: C_2  and  S_3 
REMARK    2  A    between atoms: S_3  and  C_6 
REMARK    3  A    between atoms: C_14  and  C_16 
ROOT
HETATM    1  C   UNK N   1      23.471  19.690   3.329  0.00  0.00     0.061 A 
HETATM    2  C   UNK N   1      24.338  20.570   2.626  0.00  0.00     0.026 A 
HETATM    3  C   UNK N   1      25.711  20.642   2.964  0.00  0.00     0.041 A 
HETATM    4  C   UNK N   1      26.154  19.841   4.015  0.00  0.00     0.104 A 
HETATM    5  C   UNK N   1      25.316  19.000   4.677  0.00  0.00     0.069 A 
HETATM    6  C   UNK N   1      23.971  18.895   4.372  0.00  0.00     0.055 A 
HETATM    7  N   UNK N   1      25.984  18.351   5.633  0.00  0.00    -0.334 N 
ATOM      8  HN  UNK N   1      25.630  17.656   6.291  1.00  0.00     0.168 HD
HETATM    9  C   UNK N   1      27.247  18.835   5.520  0.00  0.00     0.159 A 
HETATM   10  O   UNK N   1      27.348  19.730   4.547  0.00  0.00    -0.291 OA
ENDROOT
BRANCH   9  11
HETATM   11  C   UNK N   1      28.348  18.365   6.369  0.00  0.00     0.016 A 
HETATM   12  C   UNK N   1      28.429  18.725   7.722  0.00  0.00     0.017 A 
HETATM   13  C   UNK N   1      29.516  18.301   8.497  0.00  0.00     0.013 A 
HETATM   14  C   UNK N   1      30.527  17.523   7.920  0.00  0.00    -0.026 A 
HETATM   15  C   UNK N   1      31.628  17.114   8.679  0.00  0.00     0.012 A 
HETATM   16  C   UNK N   1      30.441  17.156   6.560  0.00  0.00    -0.025 A 
HETATM   17  C   UNK N   1      32.639  16.347   8.086  0.00  0.00     0.001 A 
HETATM   18  C   UNK N   1      32.550  15.984   6.737  0.00  0.00     0.001 A 
HETATM   19  C   UNK N   1      31.450  16.388   5.974  0.00  0.00     0.012 A 
HETATM   20  C   UNK N   1      29.354  17.575   5.798  0.00  0.00     0.028 A 
ENDBRANCH   9  11
BRANCH   1  21
HETATM   21  S   UNK N   1      21.699  19.729   3.082  0.00  0.00     0.175 S 
HETATM   22  O   UNK N   1      21.009  19.877   4.449  0.00  0.00    -0.223 OA
HETATM   23  O   UNK N   1      21.628  21.227   2.768  0.00  0.00    -0.223 OA
BRANCH  21  24
HETATM   24  C   UNK N   1      20.486  19.218   1.824  0.00  0.00     0.141 C 
HETATM   25  C   UNK N   1      20.183  17.737   1.924  0.00  0.00     0.021 C 
ENDBRANCH  21  24
ENDBRANCH   1  21
TORSDOF 3
ENDMDL
MODEL 3
REMARK VINA RESULT:      -7.8      9.222     14.068
REMARK  3 active torsions:
REMARK  status: ('A' for Active; 'I' for Inactive)
REMARK    1  A    between atoms: C_2  and  S_3 
REMARK    2  A    between atoms: S_3  and  C_6 
REMARK    3  A    between atoms: C_14  and  C_16 
ROOT
HETATM    1  C   UNK N   1      31.352  17.049   5.816  0.00  0.00     0.061 A 
HETATM    2  C   UNK N   1      30.817  17.166   7.128  0.00  0.00     0.026 A 
HETATM    3  C   UNK N   1      29.495  17.635   7.321  0.00  0.00     0.041 A 
HETATM    4  C   UNK N   1      28.770  17.990   6.185  0.00  0.00     0.104 A 
HETATM    5  C   UNK N   1      29.290  17.870   4.936  0.00  0.00     0.069 A 
HETATM    6  C   UNK N   1      30.573  17.409   4.705  0.00  0.00     0.055 A 
HETATM    7  N   UNK N   1      28.398  18.275   4.029  0.00  0.00    -0.334 N 
ATOM      8  HN  UNK N   1      28.495  18.301   3.015  1.00  0.00     0.168 HD
HETATM    9  C   UNK N   1      27.330  18.643   4.781  0.00  0.00     0.159 A 
HETATM   10  O   UNK N   1      27.554  18.472   6.077  0.00  0.00    -0.291 OA
ENDROOT
BRANCH   9  11
HETATM   11  C   UNK N   1      26.080  19.131   4.186  0.00  0.00     0.016 A 
HETATM   12  C   UNK N   1      26.075  20.191   3.269  0.00  0.00     0.017 A 
HETATM   13  C   UNK N   1      24.863  20.667   2.751  0.00  0.00     0.013 A 
HETATM   14  C   UNK N   1      23.654  20.089   3.157  0.00  0.00    -0.026 A 
HETATM   15  C   UNK N   1      22.437  20.572   2.665  0.00  0.00     0.012 A 
HETATM   16  C   UNK N   1      23.661  19.018   4.076  0.00  0.00    -0.025 A 
HETATM   17  C   UNK N   1      21.234  19.993   3.088  0.00  0.00     0.001 A 
HETATM   18  C   UNK N   1      21.244  18.931   3.999  0.00  0.00     0.001 A 
HETATM   19  C   UNK N   1      22.457  18.442   4.492  0.00  0.00     0.012 A 
HETATM   20  C   UNK N   1      24.869  18.546   4.579  0.00  0.00     0.028 A 
ENDBRANCH   9  11
BRANCH   1  21
HETATM   21  S   UNK N   1      33.080  16.672   5.541  0.00  0.00     0.175 S 
HETATM   22  O   UNK N   1      33.915  17.932   5.829  0.00  0.00    -0.223 OA
HETATM   23  O   UNK N   1      33.320  16.069   6.928  0.00  0.00    -0.223 OA
BRANCH  21  24
HETATM   24  C   UNK N   1      34.083  15.454   4.632  0.00  0.00     0.141 C 
HETATM   25  C   UNK N   1      33.632  15.340   3.190  0.00  0.00     0.021 C 
ENDBRANCH  21  24
ENDBRANCH   1  21
TORSDOF 3
ENDMDL
MODEL 4
REMARK VINA RESULT:      -7.7      1.845      2.741
REMARK  3 active torsions:
REMARK  status: ('A' for Active; 'I' for Inactive)
REMARK    1  A    between atoms: C_2  and  S_3 
REMARK    2  A    between atoms: S_3  and  C_6 
REMARK    3  A    between atoms: C_14  and  C_16 
ROOT
HETATM    1  C   UNK N   1      34.265  15.566   7.864  0.00  0.00     0.061 A 
HETATM    2  C   UNK N   1      35.040  14.464   7.410  0.00  0.00     0.026 A 
HETATM    3  C   UNK N   1      35.565  13.530   8.336  0.00  0.00     0.041 A 
HETATM    4  C   UNK N   1      35.308  13.756   9.688  0.00  0.00     0.104 A 
HETATM    5  C   UNK N   1      34.562  14.811  10.109  0.00  0.00     0.069 A 
HETATM    6  C   UNK N   1      34.026  15.740   9.236  0.00  0.00     0.055 A 
HETATM    7  N   UNK N   1      34.468  14.799  11.440  0.00  0.00    -0.334 N 
ATOM      8  HN  UNK N   1      33.974  15.456  12.044  1.00  0.00     0.168 HD
HETATM    9  C   UNK N   1      35.185  13.703  11.798  0.00  0.00     0.159 A 
HETATM   10  O   UNK N   1      35.689  13.076  10.744  0.00  0.00    -0.291 OA
ENDROOT
BRANCH   9  11
HETATM   11  C   UNK N   1      35.324  13.277  13.195  0.00  0.00     0.016 A 
HETATM   12  C   UNK N   1      36.067  14.030  14.115  0.00  0.00     0.017 A 
HETATM   13  C   UNK N   1      36.223  13.575  15.432  0.00  0.00     0.013 A 
HETATM   14  C   UNK N   1      35.644  12.363  15.827  0.00  0.00    -0.026 A 
HETATM   15  C   UNK N   1      35.813  11.889  17.132  0.00  0.00     0.012 A 
HETATM   16  C   UNK N   1      34.891  11.609  14.901  0.00  0.00    -0.025 A 
HETATM   17  C   UNK N   1      35.239  10.669  17.511  0.00  0.00     0.001 A 
HETATM   18  C   UNK N   1      34.493   9.924  16.591  0.00  0.00     0.001 A 
HETATM   19  C   UNK N   1      34.318  10.395  15.286  0.00  0.00     0.012 A 
HETATM   20  C   UNK N   1      34.734  12.072  13.598  0.00  0.00     0.028 A 
ENDBRANCH   9  11
BRANCH   1  21
HETATM   21  S   UNK N   1      33.772  16.881   6.755  0.00  0.00     0.175 S 
HETATM   22  O   UNK N   1      34.573  18.149   7.100  0.00  0.00    -0.223 OA
HETATM   23  O   UNK N   1      34.712  16.472   5.617  0.00  0.00    -0.223 OA
BRANCH  21  24
HETATM   24  C   UNK N   1      32.360  17.307   5.687  0.00  0.00     0.141 C 
HETATM   25  C   UNK N   1      32.777  17.385   4.232  0.00  0.00     0.021 C 
ENDBRANCH  21  24
ENDBRANCH   1  21
TORSDOF 3
ENDMDL
MODEL 5
REMARK VINA RESULT:      -7.2      5.403     11.879
REMARK  3 active torsions:
REMARK  status: ('A' for Active; 'I' for Inactive)
REMARK    1  A    between atoms: C_2  and  S_3 
REMARK    2  A    between atoms: S_3  and  C_6 
REMARK    3  A    between atoms: C_14  and  C_16 
ROOT
HETATM    1  C   UNK N   1      33.830  16.267   8.365  0.00  0.00     0.061 A 
HETATM    2  C   UNK N   1      34.397  16.704   7.138  0.00  0.00     0.026 A 
HETATM    3  C   UNK N   1      33.565  17.170   6.091  0.00  0.00     0.041 A 
HETATM    4  C   UNK N   1      32.189  17.157   6.314  0.00  0.00     0.104 A 
HETATM    5  C   UNK N   1      31.658  16.741   7.494  0.00  0.00     0.069 A 
HETATM    6  C   UNK N   1      32.437  16.286   8.542  0.00  0.00     0.055 A 
HETATM    7  N   UNK N   1      30.327  16.825   7.449  0.00  0.00    -0.334 N 
ATOM      8  HN  UNK N   1      29.654  16.588   8.178  1.00  0.00     0.168 HD
HETATM    9  C   UNK N   1      30.083  17.302   6.203  0.00  0.00     0.159 A 
HETATM   10  O   UNK N   1      31.203  17.502   5.521  0.00  0.00    -0.291 OA
ENDROOT
BRANCH   9  11
HETATM   11  C   UNK N   1      28.726  17.588   5.722  0.00  0.00     0.016 A 
HETATM   12  C   UNK N   1      27.659  16.719   5.992  0.00  0.00     0.017 A 
HETATM   13  C   UNK N   1      26.383  16.992   5.482  0.00  0.00     0.013 A 
HETATM   14  C   UNK N   1      26.174  18.130   4.693  0.00  0.00    -0.026 A 
HETATM   15  C   UNK N   1      24.910  18.399   4.159  0.00  0.00     0.012 A 
HETATM   16  C   UNK N   1      27.247  19.007   4.426  0.00  0.00    -0.025 A 
HETATM   17  C   UNK N   1      24.717  19.534   3.361  0.00  0.00     0.001 A 
HETATM   18  C   UNK N   1      25.782  20.402   3.098  0.00  0.00     0.001 A 
HETATM   19  C   UNK N   1      27.048  20.139   3.632  0.00  0.00     0.012 A 
HETATM   20  C   UNK N   1      28.510  18.733   4.944  0.00  0.00     0.028 A 
ENDBRANCH   9  11
BRANCH   1  21
HETATM   21  S   UNK N   1      34.823  15.470   9.623  0.00  0.00     0.175 S 
HETATM   22  O   UNK N   1      36.027  14.790   8.950  0.00  0.00    -0.223 OA
HETATM   23  O   UNK N   1      35.612  16.726  10.004  0.00  0.00    -0.223 OA
BRANCH  21  24
HETATM   24  C   UNK N   1      34.628  14.849  11.324  0.00  0.00     0.141 C 
HETATM   25  C   UNK N   1      35.828  15.206  12.178  0.00  0.00     0.021 C 
ENDBRANCH  21  24
ENDBRANCH   1  21
TORSDOF 3
ENDMDL
MODEL 6
REMARK VINA RESULT:      -7.2      2.355      3.722
REMARK  3 active torsions:
REMARK  status: ('A' for Active; 'I' for Inactive)
REMARK    1  A    between atoms: C_2  and  S_3 
REMARK    2  A    between atoms: S_3  and  C_6 
REMARK    3  A    between atoms: C_14  and  C_16 
ROOT
HETATM    1  C   UNK N   1      36.295  13.806  11.607  0.00  0.00     0.061 A 
HETATM    2  C   UNK N   1      37.295  12.799  11.543  0.00  0.00     0.026 A 
HETATM    3  C   UNK N   1      37.515  11.939  12.647  0.00  0.00     0.041 A 
HETATM    4  C   UNK N   1      36.733  12.143  13.782  0.00  0.00     0.104 A 
HETATM    5  C   UNK N   1      35.776  13.107  13.830  0.00  0.00     0.069 A 
HETATM    6  C   UNK N   1      35.525  13.961  12.771  0.00  0.00     0.055 A 
HETATM    7  N   UNK N   1      35.175  13.094  15.021  0.00  0.00    -0.334 N 
ATOM      8  HN  UNK N   1      34.420  13.693  15.355  1.00  0.00     0.168 HD
HETATM    9  C   UNK N   1      35.807  12.091  15.683  0.00  0.00     0.159 A 
HETATM   10  O   UNK N   1      36.743  11.520  14.937  0.00  0.00    -0.291 OA
ENDROOT
BRANCH   9  11
HETATM   11  C   UNK N   1      35.439  11.694  17.047  0.00  0.00     0.016 A 
HETATM   12  C   UNK N   1      35.546  12.590  18.120  0.00  0.00     0.017 A 
HETATM   13  C   UNK N   1      35.231  12.169  19.419  0.00  0.00     0.013 A 
HETATM   14  C   UNK N   1      34.817  10.852  19.648  0.00  0.00    -0.026 A 
HETATM   15  C   UNK N   1      34.524  10.415  20.944  0.00  0.00     0.012 A 
HETATM   16  C   UNK N   1      34.705   9.953  18.566  0.00  0.00    -0.025 A 
HETATM   17  C   UNK N   1      34.123   9.091  21.161  0.00  0.00     0.001 A 
HETATM   18  C   UNK N   1      34.012   8.202  20.086  0.00  0.00     0.001 A 
HETATM   19  C   UNK N   1      34.301   8.634  18.788  0.00  0.00     0.012 A 
HETATM   20  C   UNK N   1      35.011  10.380  17.277  0.00  0.00     0.028 A 
ENDBRANCH   9  11
BRANCH   1  21
HETATM   21  S   UNK N   1      36.135  15.047  10.327  0.00  0.00     0.175 S 
HETATM   22  O   UNK N   1      36.409  16.432  10.940  0.00  0.00    -0.223 OA
HETATM   23  O   UNK N   1      37.560  14.887   9.790  0.00  0.00    -0.223 OA
BRANCH  21  24
HETATM   24  C   UNK N   1      35.342  15.233   8.699  0.00  0.00     0.141 C 
HETATM   25  C   UNK N   1      35.916  14.253   7.696  0.00  0.00     0.021 C 
ENDBRANCH  21  24
ENDBRANCH   1  21
TORSDOF 3
ENDMDL
MODEL 7
REMARK VINA RESULT:      -7.2      3.196      9.290
REMARK  3 active torsions:
REMARK  status: ('A' for Active; 'I' for Inactive)
REMARK    1  A    between atoms: C_2  and  S_3 
REMARK    2  A    between atoms: S_3  and  C_6 
REMARK    3  A    between atoms: C_14  and  C_16 
ROOT
HETATM    1  C   UNK N   1      36.039  13.822  12.424  0.00  0.00     0.061 A 
HETATM    2  C   UNK N   1      36.851  13.476  11.310  0.00  0.00     0.026 A 
HETATM    3  C   UNK N   1      36.401  13.732   9.991  0.00  0.00     0.041 A 
HETATM    4  C   UNK N   1      35.139  14.306   9.846  0.00  0.00     0.104 A 
HETATM    5  C   UNK N   1      34.374  14.635  10.920  0.00  0.00     0.069 A 
HETATM    6  C   UNK N   1      34.781  14.409  12.222  0.00  0.00     0.055 A 
HETATM    7  N   UNK N   1      33.219  15.165  10.511  0.00  0.00    -0.334 N 
ATOM      8  HN  UNK N   1      32.445  15.509  11.079  1.00  0.00     0.168 HD
HETATM    9  C   UNK N   1      33.321  15.136   9.157  0.00  0.00     0.159 A 
HETATM   10  O   UNK N   1      34.475  14.620   8.759  0.00  0.00    -0.291 OA
ENDROOT
BRANCH   9  11
HETATM   11  C   UNK N   1      32.269  15.662   8.279  0.00  0.00     0.016 A 
HETATM   12  C   UNK N   1      32.171  15.260   6.939  0.00  0.00     0.017 A 
HETATM   13  C   UNK N   1      31.186  15.813   6.110  0.00  0.00     0.013 A 
HETATM   14  C   UNK N   1      30.304  16.776   6.617  0.00  0.00    -0.026 A 
HETATM   15  C   UNK N   1      29.333  17.352   5.791  0.00  0.00     0.012 A 
HETATM   16  C   UNK N   1      30.401  17.176   7.966  0.00  0.00    -0.025 A 
HETATM   17  C   UNK N   1      28.466  18.323   6.307  0.00  0.00     0.001 A 
HETATM   18  C   UNK N   1      28.564  18.718   7.646  0.00  0.00     0.001 A 
HETATM   19  C   UNK N   1      29.531  18.143   8.476  0.00  0.00     0.012 A 
HETATM   20  C   UNK N   1      31.377  16.616   8.786  0.00  0.00     0.028 A 
ENDBRANCH   9  11
BRANCH   1  21
HETATM   21  S   UNK N   1      36.471  13.319  14.087  0.00  0.00     0.175 S 
HETATM   22  O   UNK N   1      36.891  14.562  14.889  0.00  0.00    -0.223 OA
HETATM   23  O   UNK N   1      35.036  13.331  14.620  0.00  0.00    -0.223 OA
BRANCH  21  24
HETATM   24  C   UNK N   1      36.984  11.808  14.965  0.00  0.00     0.141 C 
HETATM   25  C   UNK N   1      38.164  11.150  14.279  0.00  0.00     0.021 C 
ENDBRANCH  21  24
ENDBRANCH   1  21
TORSDOF 3
ENDMDL
MODEL 8
REMARK VINA RESULT:      -7.1      1.647      2.106
REMARK  3 active torsions:
REMARK  status: ('A' for Active; 'I' for Inactive)
REMARK    1  A    between atoms: C_2  and  S_3 
REMARK    2  A    between atoms: S_3  and  C_6 
REMARK    3  A    between atoms: C_14  and  C_16 
ROOT
HETATM    1  C   UNK N   1      34.644  13.941   8.911  0.00  0.00     0.061 A 
HETATM    2  C   UNK N   1      34.548  12.565   8.569  0.00  0.00     0.026 A 
HETATM    3  C   UNK N   1      34.588  11.573   9.580  0.00  0.00     0.041 A 
HETATM    4  C   UNK N   1      34.745  12.007  10.895  0.00  0.00     0.104 A 
HETATM    5  C   UNK N   1      34.832  13.326  11.210  0.00  0.00     0.069 A 
HETATM    6  C   UNK N   1      34.789  14.324  10.254  0.00  0.00     0.055 A 
HETATM    7  N   UNK N   1      34.978  13.471  12.529  0.00  0.00    -0.334 N 
ATOM      8  HN  UNK N   1      35.068  14.335  13.063  1.00  0.00     0.168 HD
HETATM    9  C   UNK N   1      34.979  12.194  12.988  0.00  0.00     0.159 A 
HETATM   10  O   UNK N   1      34.839  11.314  12.006  0.00  0.00    -0.291 OA
ENDROOT
BRANCH   9  11
HETATM   11  C   UNK N   1      35.085  11.872  14.417  0.00  0.00     0.016 A 
HETATM   12  C   UNK N   1      35.103  10.544  14.864  0.00  0.00     0.017 A 
HETATM   13  C   UNK N   1      35.158  10.266  16.237  0.00  0.00     0.013 A 
HETATM   14  C   UNK N   1      35.187  11.316  17.163  0.00  0.00    -0.026 A 
HETATM   15  C   UNK N   1      35.218  11.050  18.536  0.00  0.00     0.012 A 
HETATM   16  C   UNK N   1      35.175  12.653  16.710  0.00  0.00    -0.025 A 
HETATM   17  C   UNK N   1      35.234  12.108  19.452  0.00  0.00     0.001 A 
HETATM   18  C   UNK N   1      35.223  13.433  19.000  0.00  0.00     0.001 A 
HETATM   19  C   UNK N   1      35.195  13.705  17.629  0.00  0.00     0.012 A 
HETATM   20  C   UNK N   1      35.129  12.920  15.345  0.00  0.00     0.028 A 
ENDBRANCH   9  11
BRANCH   1  21
HETATM   21  S   UNK N   1      34.819  15.206   7.656  0.00  0.00     0.175 S 
HETATM   22  O   UNK N   1      36.071  14.903   6.816  0.00  0.00    -0.223 OA
HETATM   23  O   UNK N   1      33.861  14.552   6.656  0.00  0.00    -0.223 OA
BRANCH  21  24
HETATM   24  C   UNK N   1      34.265  16.914   7.355  0.00  0.00     0.141 C 
HETATM   25  C   UNK N   1      34.246  17.718   8.639  0.00  0.00     0.021 C 
ENDBRANCH  21  24
ENDBRANCH   1  21
TORSDOF 3
ENDMDL
MODEL 9
REMARK VINA RESULT:      -7.0      2.320      3.678
REMARK  3 active torsions:
REMARK  status: ('A' for Active; 'I' for Inactive)
REMARK    1  A    between atoms: C_2  and  S_3 
REMARK    2  A    between atoms: S_3  and  C_6 
REMARK    3  A    between atoms: C_14  and  C_16 
ROOT
HETATM    1  C   UNK N   1      32.624  16.678   7.491  0.00  0.00     0.061 A 
HETATM    2  C   UNK N   1      33.608  17.692   7.648  0.00  0.00     0.026 A 
HETATM    3  C   UNK N   1      34.563  17.606   8.691  0.00  0.00     0.041 A 
HETATM    4  C   UNK N   1      34.474  16.512   9.550  0.00  0.00     0.104 A 
HETATM    5  C   UNK N   1      33.531  15.547   9.387  0.00  0.00     0.069 A 
HETATM    6  C   UNK N   1      32.587  15.591   8.378  0.00  0.00     0.055 A 
HETATM    7  N   UNK N   1      33.662  14.618  10.337  0.00  0.00    -0.334 N 
ATOM      8  HN  UNK N   1      33.106  13.774  10.476  1.00  0.00     0.168 HD
HETATM    9  C   UNK N   1      34.712  15.063  11.072  0.00  0.00     0.159 A 
HETATM   10  O   UNK N   1      35.200  16.202  10.598  0.00  0.00    -0.291 OA
ENDROOT
BRANCH   9  11
HETATM   11  C   UNK N   1      35.238  14.320  12.223  0.00  0.00     0.016 A 
HETATM   12  C   UNK N   1      36.063  14.937  13.174  0.00  0.00     0.017 A 
HETATM   13  C   UNK N   1      36.588  14.192  14.237  0.00  0.00     0.013 A 
HETATM   14  C   UNK N   1      36.297  12.827  14.348  0.00  0.00    -0.026 A 
HETATM   15  C   UNK N   1      36.835  12.069  15.392  0.00  0.00     0.012 A 
HETATM   16  C   UNK N   1      35.461  12.208  13.393  0.00  0.00    -0.025 A 
HETATM   17  C   UNK N   1      36.546  10.702  15.483  0.00  0.00     0.001 A 
HETATM   18  C   UNK N   1      35.717  10.091  14.536  0.00  0.00     0.001 A 
HETATM   19  C   UNK N   1      35.173  10.845  13.492  0.00  0.00     0.012 A 
HETATM   20  C   UNK N   1      34.936  12.957  12.344  0.00  0.00     0.028 A 
ENDBRANCH   9  11
BRANCH   1  21
HETATM   21  S   UNK N   1      31.273  16.859   6.331  0.00  0.00     0.175 S 
HETATM   22  O   UNK N   1      31.839  16.836   4.901  0.00  0.00    -0.223 OA
HETATM   23  O   UNK N   1      30.894  15.375   6.317  0.00  0.00    -0.223 OA
BRANCH  21  24
HETATM   24  C   UNK N   1      29.565  17.488   6.315  0.00  0.00     0.141 C 
HETATM   25  C   UNK N   1      29.040  17.686   7.723  0.00  0.00     0.021 C 
ENDBRANCH  21  24
ENDBRANCH   1  21
TORSDOF 3
ENDMDL
