MODEL 1
REMARK VINA RESULT:      -6.0      0.000      0.000
REMARK  4 active torsions:
REMARK  status: ('A' for Active; 'I' for Inactive)
REMARK    1  A    between atoms: C_11  and  C_6 
REMARK    2  A    between atoms: C_12  and  C_6 
REMARK    3  A    between atoms: N_19  and  C_11 
REMARK    4  A    between atoms: N_20  and  C_12 
ROOT
HETATM    1  C   UNK N   1      33.442  16.902   3.971  0.00  0.00     0.002 A 
HETATM    2  C   UNK N   1      32.353  16.783   3.113  0.00  0.00     0.002 A 
HETATM    3  C   UNK N   1      28.104  17.913   9.311  0.00  0.00     0.018 A 
HETATM    4  C   UNK N   1      33.232  17.104   5.335  0.00  0.00     0.031 A 
HETATM    5  C   UNK N   1      31.060  16.866   3.622  0.00  0.00     0.021 A 
HETATM    6  C   UNK N   1      28.088  17.659   7.945  0.00  0.00     0.024 A 
HETATM    7  C   UNK N   1      29.325  17.986   9.968  0.00  0.00     0.090 A 
HETATM    8  C   UNK N   1      31.932  17.192   5.874  0.00  0.00     0.053 A 
HETATM    9  C   UNK N   1      30.833  17.070   4.990  0.00  0.00     0.032 A 
HETATM   10  C   UNK N   1      29.280  17.483   7.236  0.00  0.00     0.050 A 
HETATM   11  C   UNK N   1      30.507  17.569   7.929  0.00  0.00     0.125 A 
HETATM   12  N   UNK N   1      30.479  17.813   9.274  0.00  0.00    -0.351 N 
ATOM     13  HN  UNK N   1      31.364  17.868   9.777  1.00  0.00     0.166 HD
HETATM   14  N   UNK N   1      31.777  17.415   7.282  0.00  0.00    -0.331 N 
HETATM   15  S   UNK N   1      29.123  17.149   5.492  0.00  0.00    -0.084 SA
ENDROOT
BRANCH  14  16
HETATM   16  C   UNK N   1      32.976  17.508   8.105  0.00  0.00     0.133 C 
BRANCH  16  17
HETATM   17  C   UNK N   1      33.324  16.144   8.683  0.00  0.00     0.050 C 
BRANCH  17  18
HETATM   18  C   UNK N   1      34.833  15.915   8.774  0.00  0.00     0.273 C 
BRANCH  18  19
HETATM   19  N   UNK N   1      35.255  15.426  10.085  0.00  0.00     0.080 N 
HETATM   20  C   UNK N   1      35.587  16.600  10.873  0.00  0.00     0.309 C 
HETATM   21  C   UNK N   1      34.130  14.795  10.759  0.00  0.00     0.309 C 
ENDBRANCH  18  19
ENDBRANCH  17  18
ENDBRANCH  16  17
ENDBRANCH  14  16
TORSDOF 4
ENDMDL
MODEL 2
REMARK VINA RESULT:      -5.9      3.041      7.179
REMARK  4 active torsions:
REMARK  status: ('A' for Active; 'I' for Inactive)
REMARK    1  A    between atoms: C_11  and  C_6 
REMARK    2  A    between atoms: C_12  and  C_6 
REMARK    3  A    between atoms: N_19  and  C_11 
REMARK    4  A    between atoms: N_20  and  C_12 
ROOT
HETATM    1  C   UNK N   1      28.167  18.229   8.976  0.00  0.00     0.002 A 
HETATM    2  C   UNK N   1      29.268  18.015   9.798  0.00  0.00     0.002 A 
HETATM    3  C   UNK N   1      33.084  16.741   3.352  0.00  0.00     0.018 A 
HETATM    4  C   UNK N   1      28.294  18.089   7.594  0.00  0.00     0.031 A 
HETATM    5  C   UNK N   1      30.491  17.661   9.236  0.00  0.00     0.021 A 
HETATM    6  C   UNK N   1      33.162  16.774   4.739  0.00  0.00     0.024 A 
HETATM    7  C   UNK N   1      31.862  16.987   2.740  0.00  0.00     0.090 A 
HETATM    8  C   UNK N   1      29.523  17.732   7.001  0.00  0.00     0.053 A 
HETATM    9  C   UNK N   1      30.635  17.517   7.850  0.00  0.00     0.032 A 
HETATM   10  C   UNK N   1      32.032  17.056   5.512  0.00  0.00     0.050 A 
HETATM   11  C   UNK N   1      30.804  17.308   4.863  0.00  0.00     0.125 A 
HETATM   12  N   UNK N   1      30.768  17.258   3.497  0.00  0.00    -0.351 N 
ATOM     13  HN  UNK N   1      29.880  17.433   3.027  1.00  0.00     0.166 HD
HETATM   14  N   UNK N   1      29.599  17.617   5.574  0.00  0.00    -0.331 N 
HETATM   15  S   UNK N   1      32.262  17.055   7.280  0.00  0.00    -0.084 SA
ENDROOT
BRANCH  14  16
HETATM   16  C   UNK N   1      28.387  17.843   4.795  0.00  0.00     0.133 C 
BRANCH  16  17
HETATM   17  C   UNK N   1      28.162  19.334   4.594  0.00  0.00     0.050 C 
BRANCH  17  18
HETATM   18  C   UNK N   1      26.937  19.629   3.728  0.00  0.00     0.273 C 
BRANCH  18  19
HETATM   19  N   UNK N   1      25.847  20.249   4.479  0.00  0.00     0.080 N 
HETATM   20  C   UNK N   1      24.921  19.182   4.814  0.00  0.00     0.309 C 
HETATM   21  C   UNK N   1      26.351  20.756   5.747  0.00  0.00     0.309 C 
ENDBRANCH  18  19
ENDBRANCH  17  18
ENDBRANCH  16  17
ENDBRANCH  14  16
TORSDOF 4
ENDMDL
MODEL 3
REMARK VINA RESULT:      -5.6      7.958     11.874
REMARK  4 active torsions:
REMARK  status: ('A' for Active; 'I' for Inactive)
REMARK    1  A    between atoms: C_11  and  C_6 
REMARK    2  A    between atoms: C_12  and  C_6 
REMARK    3  A    between atoms: N_19  and  C_11 
REMARK    4  A    between atoms: N_20  and  C_12 
ROOT
HETATM    1  C   UNK N   1      21.029  12.232  11.461  0.00  0.00     0.002 A 
HETATM    2  C   UNK N   1      22.253  11.791  11.952  0.00  0.00     0.002 A 
HETATM    3  C   UNK N   1      25.267  15.351   5.953  0.00  0.00     0.018 A 
HETATM    4  C   UNK N   1      20.980  12.965  10.276  0.00  0.00     0.031 A 
HETATM    5  C   UNK N   1      23.422  12.084  11.256  0.00  0.00     0.021 A 
HETATM    6  C   UNK N   1      25.534  14.571   7.072  0.00  0.00     0.024 A 
HETATM    7  C   UNK N   1      23.950  15.669   5.652  0.00  0.00     0.090 A 
HETATM    8  C   UNK N   1      22.151  13.275   9.553  0.00  0.00     0.053 A 
HETATM    9  C   UNK N   1      23.390  12.821  10.065  0.00  0.00     0.032 A 
HETATM   10  C   UNK N   1      24.495  14.114   7.889  0.00  0.00     0.050 A 
HETATM   11  C   UNK N   1      23.166  14.458   7.562  0.00  0.00     0.125 A 
HETATM   12  N   UNK N   1      22.946  15.220   6.449  0.00  0.00    -0.351 N 
ATOM     13  HN  UNK N   1      21.985  15.463   6.207  1.00  0.00     0.166 HD
HETATM   14  N   UNK N   1      22.041  14.045   8.348  0.00  0.00    -0.331 N 
HETATM   15  S   UNK N   1      24.968  13.112   9.285  0.00  0.00    -0.084 SA
ENDROOT
BRANCH  14  16
HETATM   16  C   UNK N   1      20.713  14.447   7.902  0.00  0.00     0.133 C 
BRANCH  16  17
HETATM   17  C   UNK N   1      20.347  15.801   8.494  0.00  0.00     0.050 C 
BRANCH  17  18
HETATM   18  C   UNK N   1      19.263  16.518   7.688  0.00  0.00     0.273 C 
BRANCH  18  19
HETATM   19  N   UNK N   1      18.566  17.543   8.461  0.00  0.00     0.080 N 
HETATM   20  C   UNK N   1      17.719  16.839   9.407  0.00  0.00     0.309 C 
HETATM   21  C   UNK N   1      19.525  18.292   9.261  0.00  0.00     0.309 C 
ENDBRANCH  18  19
ENDBRANCH  17  18
ENDBRANCH  16  17
ENDBRANCH  14  16
TORSDOF 4
ENDMDL
MODEL 4
REMARK VINA RESULT:      -5.5      0.954      4.291
REMARK  4 active torsions:
REMARK  status: ('A' for Active; 'I' for Inactive)
REMARK    1  A    between atoms: C_11  and  C_6 
REMARK    2  A    between atoms: C_12  and  C_6 
REMARK    3  A    between atoms: N_19  and  C_11 
REMARK    4  A    between atoms: N_20  and  C_12 
ROOT
HETATM    1  C   UNK N   1      29.138  18.297   9.577  0.00  0.00     0.002 A 
HETATM    2  C   UNK N   1      28.068  18.512   8.715  0.00  0.00     0.002 A 
HETATM    3  C   UNK N   1      32.755  16.080   3.251  0.00  0.00     0.018 A 
HETATM    4  C   UNK N   1      30.356  17.845   9.072  0.00  0.00     0.031 A 
HETATM    5  C   UNK N   1      28.221  18.274   7.352  0.00  0.00     0.021 A 
HETATM    6  C   UNK N   1      31.487  16.573   3.533  0.00  0.00     0.024 A 
HETATM    7  C   UNK N   1      33.674  15.953   4.284  0.00  0.00     0.090 A 
HETATM    8  C   UNK N   1      30.535  17.596   7.696  0.00  0.00     0.053 A 
HETATM    9  C   UNK N   1      29.438  17.818   6.830  0.00  0.00     0.032 A 
HETATM   10  C   UNK N   1      31.133  16.933   4.837  0.00  0.00     0.050 A 
HETATM   11  C   UNK N   1      32.085  16.787   5.868  0.00  0.00     0.125 A 
HETATM   12  N   UNK N   1      33.324  16.305   5.548  0.00  0.00    -0.351 N 
ATOM     13  HN  UNK N   1      34.015  16.206   6.291  1.00  0.00     0.166 HD
HETATM   14  N   UNK N   1      31.807  17.117   7.235  0.00  0.00    -0.331 N 
HETATM   15  S   UNK N   1      29.482  17.564   5.064  0.00  0.00    -0.084 SA
ENDROOT
BRANCH  14  16
HETATM   16  C   UNK N   1      32.875  16.940   8.211  0.00  0.00     0.133 C 
BRANCH  16  17
HETATM   17  C   UNK N   1      32.811  15.543   8.812  0.00  0.00     0.050 C 
BRANCH  17  18
HETATM   18  C   UNK N   1      34.158  15.086   9.373  0.00  0.00     0.273 C 
BRANCH  18  19
HETATM   19  N   UNK N   1      34.334  15.437  10.781  0.00  0.00     0.080 N 
HETATM   20  C   UNK N   1      34.780  14.230  11.452  0.00  0.00     0.309 C 
HETATM   21  C   UNK N   1      35.421  16.396  10.915  0.00  0.00     0.309 C 
ENDBRANCH  18  19
ENDBRANCH  17  18
ENDBRANCH  16  17
ENDBRANCH  14  16
TORSDOF 4
ENDMDL
MODEL 5
REMARK VINA RESULT:      -5.4      3.082      7.209
REMARK  4 active torsions:
REMARK  status: ('A' for Active; 'I' for Inactive)
REMARK    1  A    between atoms: C_11  and  C_6 
REMARK    2  A    between atoms: C_12  and  C_6 
REMARK    3  A    between atoms: N_19  and  C_11 
REMARK    4  A    between atoms: N_20  and  C_12 
ROOT
HETATM    1  C   UNK N   1      28.169  18.256   8.942  0.00  0.00     0.002 A 
HETATM    2  C   UNK N   1      29.278  18.109   9.769  0.00  0.00     0.002 A 
HETATM    3  C   UNK N   1      33.127  16.742   3.361  0.00  0.00     0.018 A 
HETATM    4  C   UNK N   1      28.300  18.072   7.566  0.00  0.00     0.031 A 
HETATM    5  C   UNK N   1      30.512  17.778   9.216  0.00  0.00     0.021 A 
HETATM    6  C   UNK N   1      33.207  16.827   4.746  0.00  0.00     0.024 A 
HETATM    7  C   UNK N   1      31.897  16.924   2.744  0.00  0.00     0.090 A 
HETATM    8  C   UNK N   1      29.539  17.737   6.983  0.00  0.00     0.053 A 
HETATM    9  C   UNK N   1      30.660  17.591   7.835  0.00  0.00     0.032 A 
HETATM   10  C   UNK N   1      32.068  17.096   5.512  0.00  0.00     0.050 A 
HETATM   11  C   UNK N   1      30.832  17.282   4.857  0.00  0.00     0.125 A 
HETATM   12  N   UNK N   1      30.795  17.183   3.494  0.00  0.00    -0.351 N 
ATOM     13  HN  UNK N   1      29.901  17.310   3.020  1.00  0.00     0.166 HD
HETATM   14  N   UNK N   1      29.617  17.574   5.560  0.00  0.00    -0.331 N 
HETATM   15  S   UNK N   1      32.300  17.166   7.278  0.00  0.00    -0.084 SA
ENDROOT
BRANCH  14  16
HETATM   16  C   UNK N   1      28.397  17.730   4.777  0.00  0.00     0.133 C 
BRANCH  16  17
HETATM   17  C   UNK N   1      27.701  16.386   4.617  0.00  0.00     0.050 C 
BRANCH  17  18
HETATM   18  C   UNK N   1      27.408  16.051   3.154  0.00  0.00     0.273 C 
BRANCH  18  19
HETATM   19  N   UNK N   1      25.989  16.149   2.822  0.00  0.00     0.080 N 
HETATM   20  C   UNK N   1      25.784  15.325   1.645  0.00  0.00     0.309 C 
HETATM   21  C   UNK N   1      25.194  15.543   3.880  0.00  0.00     0.309 C 
ENDBRANCH  18  19
ENDBRANCH  17  18
ENDBRANCH  16  17
ENDBRANCH  14  16
TORSDOF 4
ENDMDL
MODEL 6
REMARK VINA RESULT:      -5.4     13.196     15.542
REMARK  4 active torsions:
REMARK  status: ('A' for Active; 'I' for Inactive)
REMARK    1  A    between atoms: C_11  and  C_6 
REMARK    2  A    between atoms: C_12  and  C_6 
REMARK    3  A    between atoms: N_19  and  C_11 
REMARK    4  A    between atoms: N_20  and  C_12 
ROOT
HETATM    1  C   UNK N   1      25.618  26.003  -6.122  0.00  0.00     0.002 A 
HETATM    2  C   UNK N   1      24.761  27.006  -5.682  0.00  0.00     0.002 A 
HETATM    3  C   UNK N   1      30.767  29.618  -1.828  0.00  0.00     0.018 A 
HETATM    4  C   UNK N   1      26.938  25.971  -5.674  0.00  0.00     0.031 A 
HETATM    5  C   UNK N   1      25.228  27.971  -4.794  0.00  0.00     0.021 A 
HETATM    6  C   UNK N   1      29.418  29.803  -2.104  0.00  0.00     0.024 A 
HETATM    7  C   UNK N   1      31.426  28.530  -2.384  0.00  0.00     0.090 A 
HETATM    8  C   UNK N   1      27.434  26.938  -4.776  0.00  0.00     0.053 A 
HETATM    9  C   UNK N   1      26.551  27.953  -4.335  0.00  0.00     0.032 A 
HETATM   10  C   UNK N   1      28.729  28.912  -2.933  0.00  0.00     0.050 A 
HETATM   11  C   UNK N   1      29.426  27.819  -3.490  0.00  0.00     0.125 A 
HETATM   12  N   UNK N   1      30.750  27.668  -3.187  0.00  0.00    -0.351 N 
ATOM     13  HN  UNK N   1      31.253  26.874  -3.583  1.00  0.00     0.166 HD
HETATM   14  N   UNK N   1      28.805  26.864  -4.360  0.00  0.00    -0.331 N 
HETATM   15  S   UNK N   1      26.999  29.253  -3.198  0.00  0.00    -0.084 SA
ENDROOT
BRANCH  14  16
HETATM   16  C   UNK N   1      29.622  25.765  -4.861  0.00  0.00     0.133 C 
BRANCH  16  17
HETATM   17  C   UNK N   1      29.508  24.562  -3.936  0.00  0.00     0.050 C 
BRANCH  17  18
HETATM   18  C   UNK N   1      30.872  24.053  -3.469  0.00  0.00     0.273 C 
BRANCH  18  19
HETATM   19  N   UNK N   1      30.769  22.969  -2.493  0.00  0.00     0.080 N 
HETATM   20  C   UNK N   1      29.392  22.961  -2.033  0.00  0.00     0.309 C 
HETATM   21  C   UNK N   1      30.978  21.691  -3.156  0.00  0.00     0.309 C 
ENDBRANCH  18  19
ENDBRANCH  17  18
ENDBRANCH  16  17
ENDBRANCH  14  16
TORSDOF 4
ENDMDL
MODEL 7
REMARK VINA RESULT:      -5.3      6.471      9.666
REMARK  4 active torsions:
REMARK  status: ('A' for Active; 'I' for Inactive)
REMARK    1  A    between atoms: C_11  and  C_6 
REMARK    2  A    between atoms: C_12  and  C_6 
REMARK    3  A    between atoms: N_19  and  C_11 
REMARK    4  A    between atoms: N_20  and  C_12 
ROOT
HETATM    1  C   UNK N   1      24.178  14.611   2.665  0.00  0.00     0.002 A 
HETATM    2  C   UNK N   1      25.439  14.308   2.163  0.00  0.00     0.002 A 
HETATM    3  C   UNK N   1      27.734  20.591   5.767  0.00  0.00     0.018 A 
HETATM    4  C   UNK N   1      23.995  15.761   3.432  0.00  0.00     0.031 A 
HETATM    5  C   UNK N   1      26.511  15.155   2.429  0.00  0.00     0.021 A 
HETATM    6  C   UNK N   1      28.121  19.539   4.947  0.00  0.00     0.024 A 
HETATM    7  C   UNK N   1      26.402  20.697   6.145  0.00  0.00     0.090 A 
HETATM    8  C   UNK N   1      25.066  16.635   3.716  0.00  0.00     0.053 A 
HETATM    9  C   UNK N   1      26.344  16.313   3.199  0.00  0.00     0.032 A 
HETATM   10  C   UNK N   1      27.188  18.594   4.508  0.00  0.00     0.050 A 
HETATM   11  C   UNK N   1      25.842  18.723   4.913  0.00  0.00     0.125 A 
HETATM   12  N   UNK N   1      25.501  19.777   5.714  0.00  0.00    -0.351 N 
ATOM     13  HN  UNK N   1      24.528  19.875   6.001  1.00  0.00     0.166 HD
HETATM   14  N   UNK N   1      24.821  17.795   4.523  0.00  0.00    -0.331 N 
HETATM   15  S   UNK N   1      27.808  17.301   3.449  0.00  0.00    -0.084 SA
ENDROOT
BRANCH  14  16
HETATM   16  C   UNK N   1      23.463  18.041   4.990  0.00  0.00     0.133 C 
BRANCH  16  17
HETATM   17  C   UNK N   1      22.669  18.788   3.927  0.00  0.00     0.050 C 
BRANCH  17  18
HETATM   18  C   UNK N   1      21.237  19.089   4.371  0.00  0.00     0.273 C 
BRANCH  18  19
HETATM   19  N   UNK N   1      20.558  20.035   3.489  0.00  0.00     0.080 N 
HETATM   20  C   UNK N   1      21.559  20.520   2.557  0.00  0.00     0.309 C 
HETATM   21  C   UNK N   1      19.568  19.333   2.686  0.00  0.00     0.309 C 
ENDBRANCH  18  19
ENDBRANCH  17  18
ENDBRANCH  16  17
ENDBRANCH  14  16
TORSDOF 4
ENDMDL
MODEL 8
REMARK VINA RESULT:      -5.3      3.490      6.598
REMARK  4 active torsions:
REMARK  status: ('A' for Active; 'I' for Inactive)
REMARK    1  A    between atoms: C_11  and  C_6 
REMARK    2  A    between atoms: C_12  and  C_6 
REMARK    3  A    between atoms: N_19  and  C_11 
REMARK    4  A    between atoms: N_20  and  C_12 
ROOT
HETATM    1  C   UNK N   1      26.664  20.059   4.101  0.00  0.00     0.002 A 
HETATM    2  C   UNK N   1      26.320  20.706   5.283  0.00  0.00     0.002 A 
HETATM    3  C   UNK N   1      31.469  16.181   8.561  0.00  0.00     0.018 A 
HETATM    4  C   UNK N   1      27.613  19.037   4.120  0.00  0.00     0.031 A 
HETATM    5  C   UNK N   1      26.925  20.329   6.478  0.00  0.00     0.021 A 
HETATM    6  C   UNK N   1      30.522  17.175   8.773  0.00  0.00     0.024 A 
HETATM    7  C   UNK N   1      31.641  15.675   7.280  0.00  0.00     0.090 A 
HETATM    8  C   UNK N   1      28.240  18.638   5.318  0.00  0.00     0.053 A 
HETATM    9  C   UNK N   1      27.881  19.305   6.514  0.00  0.00     0.032 A 
HETATM   10  C   UNK N   1      29.753  17.667   7.714  0.00  0.00     0.050 A 
HETATM   11  C   UNK N   1      29.953  17.139   6.421  0.00  0.00     0.125 A 
HETATM   12  N   UNK N   1      30.889  16.156   6.257  0.00  0.00    -0.351 N 
ATOM     13  HN  UNK N   1      31.030  15.768   5.324  1.00  0.00     0.166 HD
HETATM   14  N   UNK N   1      29.220  17.591   5.275  0.00  0.00    -0.331 N 
HETATM   15  S   UNK N   1      28.563  18.932   8.119  0.00  0.00    -0.084 SA
ENDROOT
BRANCH  14  16
HETATM   16  C   UNK N   1      29.502  16.959   3.992  0.00  0.00     0.133 C 
BRANCH  16  17
HETATM   17  C   UNK N   1      28.611  15.740   3.800  0.00  0.00     0.050 C 
BRANCH  17  18
HETATM   18  C   UNK N   1      28.588  15.255   2.350  0.00  0.00     0.273 C 
BRANCH  18  19
HETATM   19  N   UNK N   1      27.237  14.985   1.863  0.00  0.00     0.080 N 
HETATM   20  C   UNK N   1      26.905  13.641   2.300  0.00  0.00     0.309 C 
HETATM   21  C   UNK N   1      26.290  15.868   2.528  0.00  0.00     0.309 C 
ENDBRANCH  18  19
ENDBRANCH  17  18
ENDBRANCH  16  17
ENDBRANCH  14  16
TORSDOF 4
ENDMDL
MODEL 9
REMARK VINA RESULT:      -5.2     13.213     15.533
REMARK  4 active torsions:
REMARK  status: ('A' for Active; 'I' for Inactive)
REMARK    1  A    between atoms: C_11  and  C_6 
REMARK    2  A    between atoms: C_12  and  C_6 
REMARK    3  A    between atoms: N_19  and  C_11 
REMARK    4  A    between atoms: N_20  and  C_12 
ROOT
HETATM    1  C   UNK N   1      31.474  28.820  -2.028  0.00  0.00     0.002 A 
HETATM    2  C   UNK N   1      30.708  29.878  -1.551  0.00  0.00     0.002 A 
HETATM    3  C   UNK N   1      25.037  26.803  -5.567  0.00  0.00     0.018 A 
HETATM    4  C   UNK N   1      30.907  27.889  -2.898  0.00  0.00     0.031 A 
HETATM    5  C   UNK N   1      29.379  30.002  -1.947  0.00  0.00     0.021 A 
HETATM    6  C   UNK N   1      25.414  27.858  -4.746  0.00  0.00     0.024 A 
HETATM    7  C   UNK N   1      25.985  25.852  -5.921  0.00  0.00     0.090 A 
HETATM    8  C   UNK N   1      29.563  27.993  -3.312  0.00  0.00     0.053 A 
HETATM    9  C   UNK N   1      28.795  29.075  -2.820  0.00  0.00     0.032 A 
HETATM   10  C   UNK N   1      26.727  27.963  -4.274  0.00  0.00     0.050 A 
HETATM   11  C   UNK N   1      27.667  26.978  -4.643  0.00  0.00     0.125 A 
HETATM   12  N   UNK N   1      27.257  25.961  -5.460  0.00  0.00    -0.351 N 
ATOM     13  HN  UNK N   1      27.938  25.252  -5.734  1.00  0.00     0.166 HD
HETATM   14  N   UNK N   1      29.029  26.998  -4.197  0.00  0.00    -0.331 N 
HETATM   15  S   UNK N   1      27.086  29.369  -3.239  0.00  0.00    -0.084 SA
ENDROOT
BRANCH  14  16
HETATM   16  C   UNK N   1      29.913  25.935  -4.659  0.00  0.00     0.133 C 
BRANCH  16  17
HETATM   17  C   UNK N   1      30.053  24.865  -3.586  0.00  0.00     0.050 C 
BRANCH  17  18
HETATM   18  C   UNK N   1      30.923  23.692  -4.040  0.00  0.00     0.273 C 
BRANCH  18  19
HETATM   19  N   UNK N   1      30.935  22.590  -3.080  0.00  0.00     0.080 N 
HETATM   20  C   UNK N   1      29.916  22.895  -2.092  0.00  0.00     0.309 C 
HETATM   21  C   UNK N   1      30.505  21.364  -3.734  0.00  0.00     0.309 C 
ENDBRANCH  18  19
ENDBRANCH  17  18
ENDBRANCH  16  17
ENDBRANCH  14  16
TORSDOF 4
ENDMDL
