MODEL 1
REMARK VINA RESULT:      -5.6      0.000      0.000
REMARK  4 active torsions:
REMARK  status: ('A' for Active; 'I' for Inactive)
REMARK    1  A    between atoms: C_3  and  O_12 
REMARK    2  A    between atoms: C_4  and  O_11 
REMARK    3  A    between atoms: C_6  and  C_7 
REMARK       I    between atoms: C_7  and  N_9 
REMARK    4  A    between atoms: N_9  and  O_10 
ROOT
HETATM    1  C   UNK N   1      23.403  11.597   9.328  0.00  0.00     0.020 A 
HETATM    2  C   UNK N   1      22.648  11.749   8.160  0.00  0.00     0.040 A 
HETATM    3  C   UNK N   1      21.470  12.505   8.177  0.00  0.00     0.098 A 
HETATM    4  C   UNK N   1      21.048  13.111   9.367  0.00  0.00     0.099 A 
HETATM    5  C   UNK N   1      21.801  12.958  10.529  0.00  0.00     0.056 A 
HETATM    6  C   UNK N   1      22.981  12.204  10.522  0.00  0.00     0.036 A 
ENDROOT
BRANCH   6   7
HETATM    7  C   UNK N   1      23.755  12.066  11.771  0.00  0.00     0.275 C 
HETATM    8  O   UNK N   1      24.969  11.908  11.732  0.00  0.00    -0.265 OA
HETATM    9  N   UNK N   1      23.115  12.119  12.963  0.00  0.00    -0.233 N 
HETATM   10  H   UNK N   1      22.140  12.247  12.982  0.00  0.00     0.197 HD
BRANCH   9  11
HETATM   11  O   UNK N   1      23.785  12.000  14.117  0.00  0.00    -0.287 OA
HETATM   12  H   UNK N   1      24.272  12.758  14.475  0.00  0.00     0.244 HD
ENDBRANCH   9  11
ENDBRANCH   6   7
BRANCH   4  13
HETATM   13  O   UNK N   1      19.919  13.839   9.400  0.00  0.00    -0.358 OA
HETATM   14  H   UNK N   1      19.476  14.052   8.603  0.00  0.00     0.217 HD
ENDBRANCH   4  13
BRANCH   3  15
HETATM   15  O   UNK N   1      20.748  12.648   7.053  0.00  0.00    -0.358 OA
HETATM   16  H   UNK N   1      19.901  13.047   7.086  0.00  0.00     0.217 HD
ENDBRANCH   3  15
TORSDOF 4
ENDMDL
MODEL 2
REMARK VINA RESULT:      -5.5     11.442     12.065
REMARK  4 active torsions:
REMARK  status: ('A' for Active; 'I' for Inactive)
REMARK    1  A    between atoms: C_3  and  O_12 
REMARK    2  A    between atoms: C_4  and  O_11 
REMARK    3  A    between atoms: C_6  and  C_7 
REMARK       I    between atoms: C_7  and  N_9 
REMARK    4  A    between atoms: N_9  and  O_10 
ROOT
HETATM    1  C   UNK N   1      33.746  17.602   6.126  0.00  0.00     0.020 A 
HETATM    2  C   UNK N   1      32.725  17.283   5.224  0.00  0.00     0.040 A 
HETATM    3  C   UNK N   1      31.415  17.097   5.681  0.00  0.00     0.098 A 
HETATM    4  C   UNK N   1      31.127  17.231   7.045  0.00  0.00     0.099 A 
HETATM    5  C   UNK N   1      32.145  17.548   7.941  0.00  0.00     0.056 A 
HETATM    6  C   UNK N   1      33.459  17.737   7.494  0.00  0.00     0.036 A 
ENDROOT
BRANCH   6   7
HETATM    7  C   UNK N   1      34.511  18.075   8.472  0.00  0.00     0.275 C 
HETATM    8  O   UNK N   1      35.172  19.098   8.341  0.00  0.00    -0.265 OA
HETATM    9  N   UNK N   1      34.741  17.247   9.519  0.00  0.00    -0.233 N 
HETATM   10  H   UNK N   1      34.204  16.429   9.614  0.00  0.00     0.197 HD
BRANCH   9  11
HETATM   11  O   UNK N   1      35.686  17.523  10.427  0.00  0.00    -0.287 OA
HETATM   12  H   UNK N   1      35.554  18.245  11.060  0.00  0.00     0.244 HD
ENDBRANCH   9  11
ENDBRANCH   6   7
BRANCH   4  13
HETATM   13  O   UNK N   1      29.875  17.055   7.499  0.00  0.00    -0.358 OA
HETATM   14  H   UNK N   1      29.152  17.427   7.035  0.00  0.00     0.217 HD
ENDBRANCH   4  13
BRANCH   3  15
HETATM   15  O   UNK N   1      30.438  16.791   4.810  0.00  0.00    -0.358 OA
HETATM   16  H   UNK N   1      29.667  17.320   4.766  0.00  0.00     0.217 HD
ENDBRANCH   3  15
TORSDOF 4
ENDMDL
MODEL 3
REMARK VINA RESULT:      -5.4      2.240      4.746
REMARK  4 active torsions:
REMARK  status: ('A' for Active; 'I' for Inactive)
REMARK    1  A    between atoms: C_3  and  O_12 
REMARK    2  A    between atoms: C_4  and  O_11 
REMARK    3  A    between atoms: C_6  and  C_7 
REMARK       I    between atoms: C_7  and  N_9 
REMARK    4  A    between atoms: N_9  and  O_10 
ROOT
HETATM    1  C   UNK N   1      23.152  13.483   9.214  0.00  0.00     0.020 A 
HETATM    2  C   UNK N   1      24.276  12.928   9.835  0.00  0.00     0.040 A 
HETATM    3  C   UNK N   1      24.141  12.233  11.042  0.00  0.00     0.098 A 
HETATM    4  C   UNK N   1      22.876  12.093  11.628  0.00  0.00     0.099 A 
HETATM    5  C   UNK N   1      21.759  12.646  11.008  0.00  0.00     0.056 A 
HETATM    6  C   UNK N   1      21.884  13.343   9.799  0.00  0.00     0.036 A 
ENDROOT
BRANCH   6   7
HETATM    7  C   UNK N   1      20.678  13.914   9.169  0.00  0.00     0.275 C 
HETATM    8  O   UNK N   1      19.612  13.929   9.774  0.00  0.00    -0.265 OA
HETATM    9  N   UNK N   1      20.755  14.424   7.918  0.00  0.00    -0.233 N 
HETATM   10  H   UNK N   1      21.616  14.407   7.442  0.00  0.00     0.197 HD
BRANCH   9  11
HETATM   11  O   UNK N   1      19.682  14.953   7.315  0.00  0.00    -0.287 OA
HETATM   12  H   UNK N   1      18.791  14.687   7.590  0.00  0.00     0.244 HD
ENDBRANCH   9  11
ENDBRANCH   6   7
BRANCH   4  13
HETATM   13  O   UNK N   1      22.730  11.429  12.787  0.00  0.00    -0.358 OA
HETATM   14  H   UNK N   1      22.086  11.707  13.408  0.00  0.00     0.217 HD
ENDBRANCH   4  13
BRANCH   3  15
HETATM   15  O   UNK N   1      25.223  11.702  11.635  0.00  0.00    -0.358 OA
HETATM   16  H   UNK N   1      25.126  11.171  12.401  0.00  0.00     0.217 HD
ENDBRANCH   3  15
TORSDOF 4
ENDMDL
MODEL 4
REMARK VINA RESULT:      -5.3     14.195     15.622
REMARK  4 active torsions:
REMARK  status: ('A' for Active; 'I' for Inactive)
REMARK    1  A    between atoms: C_3  and  O_12 
REMARK    2  A    between atoms: C_4  and  O_11 
REMARK    3  A    between atoms: C_6  and  C_7 
REMARK       I    between atoms: C_7  and  N_9 
REMARK    4  A    between atoms: N_9  and  O_10 
ROOT
HETATM    1  C   UNK N   1      35.781  11.303  17.272  0.00  0.00     0.020 A 
HETATM    2  C   UNK N   1      35.675  10.750  18.554  0.00  0.00     0.040 A 
HETATM    3  C   UNK N   1      35.294  11.552  19.636  0.00  0.00     0.098 A 
HETATM    4  C   UNK N   1      35.019  12.910  19.435  0.00  0.00     0.099 A 
HETATM    5  C   UNK N   1      35.125  13.458  18.158  0.00  0.00     0.056 A 
HETATM    6  C   UNK N   1      35.504  12.664  17.069  0.00  0.00     0.036 A 
ENDROOT
BRANCH   6   7
HETATM    7  C   UNK N   1      35.603  13.278  15.731  0.00  0.00     0.275 C 
HETATM    8  O   UNK N   1      34.639  13.276  14.975  0.00  0.00    -0.265 OA
HETATM    9  N   UNK N   1      36.768  13.848  15.341  0.00  0.00    -0.233 N 
HETATM   10  H   UNK N   1      37.536  13.844  15.956  0.00  0.00     0.197 HD
BRANCH   9  11
HETATM   11  O   UNK N   1      36.895  14.417  14.136  0.00  0.00    -0.287 OA
HETATM   12  H   UNK N   1      37.104  15.361  14.064  0.00  0.00     0.244 HD
ENDBRANCH   9  11
ENDBRANCH   6   7
BRANCH   4  13
HETATM   13  O   UNK N   1      34.653  13.693  20.463  0.00  0.00    -0.358 OA
HETATM   14  H   UNK N   1      34.052  14.398  20.324  0.00  0.00     0.217 HD
ENDBRANCH   4  13
BRANCH   3  15
HETATM   15  O   UNK N   1      35.194  11.017  20.864  0.00  0.00    -0.358 OA
HETATM   16  H   UNK N   1      34.534  10.377  21.045  0.00  0.00     0.217 HD
ENDBRANCH   3  15
TORSDOF 4
ENDMDL
MODEL 5
REMARK VINA RESULT:      -5.2     12.570     14.696
REMARK  4 active torsions:
REMARK  status: ('A' for Active; 'I' for Inactive)
REMARK    1  A    between atoms: C_3  and  O_12 
REMARK    2  A    between atoms: C_4  and  O_11 
REMARK    3  A    between atoms: C_6  and  C_7 
REMARK       I    between atoms: C_7  and  N_9 
REMARK    4  A    between atoms: N_9  and  O_10 
ROOT
HETATM    1  C   UNK N   1      34.985  11.004  17.175  0.00  0.00     0.020 A 
HETATM    2  C   UNK N   1      35.340  11.205  18.514  0.00  0.00     0.040 A 
HETATM    3  C   UNK N   1      35.429  12.503  19.030  0.00  0.00     0.098 A 
HETATM    4  C   UNK N   1      35.163  13.602  18.203  0.00  0.00     0.099 A 
HETATM    5  C   UNK N   1      34.810  13.399  16.871  0.00  0.00     0.056 A 
HETATM    6  C   UNK N   1      34.716  12.104  16.345  0.00  0.00     0.036 A 
ENDROOT
BRANCH   6   7
HETATM    7  C   UNK N   1      34.337  11.927  14.931  0.00  0.00     0.275 C 
HETATM    8  O   UNK N   1      34.581  12.804  14.110  0.00  0.00    -0.265 OA
HETATM    9  N   UNK N   1      33.719  10.787  14.541  0.00  0.00    -0.233 N 
HETATM   10  H   UNK N   1      33.529  10.090  15.208  0.00  0.00     0.197 HD
BRANCH   9  11
HETATM   11  O   UNK N   1      33.363  10.590  13.265  0.00  0.00    -0.287 OA
HETATM   12  H   UNK N   1      32.433  10.437  13.039  0.00  0.00     0.244 HD
ENDBRANCH   9  11
ENDBRANCH   6   7
BRANCH   4  13
HETATM   13  O   UNK N   1      35.245  14.853  18.683  0.00  0.00    -0.358 OA
HETATM   14  H   UNK N   1      34.828  15.073  19.493  0.00  0.00     0.217 HD
ENDBRANCH   4  13
BRANCH   3  15
HETATM   15  O   UNK N   1      35.770  12.691  20.316  0.00  0.00    -0.358 OA
HETATM   16  H   UNK N   1      36.438  12.162  20.706  0.00  0.00     0.217 HD
ENDBRANCH   3  15
TORSDOF 4
ENDMDL
MODEL 6
REMARK VINA RESULT:      -5.2     18.242     18.927
REMARK  4 active torsions:
REMARK  status: ('A' for Active; 'I' for Inactive)
REMARK    1  A    between atoms: C_3  and  O_12 
REMARK    2  A    between atoms: C_4  and  O_11 
REMARK    3  A    between atoms: C_6  and  C_7 
REMARK       I    between atoms: C_7  and  N_9 
REMARK    4  A    between atoms: N_9  and  O_10 
ROOT
HETATM    1  C   UNK N   1      29.601  22.807  -4.835  0.00  0.00     0.020 A 
HETATM    2  C   UNK N   1      28.598  23.241  -5.710  0.00  0.00     0.040 A 
HETATM    3  C   UNK N   1      27.482  23.926  -5.216  0.00  0.00     0.098 A 
HETATM    4  C   UNK N   1      27.371  24.178  -3.842  0.00  0.00     0.099 A 
HETATM    5  C   UNK N   1      28.370  23.746  -2.974  0.00  0.00     0.056 A 
HETATM    6  C   UNK N   1      29.491  23.060  -3.459  0.00  0.00     0.036 A 
ENDROOT
BRANCH   6   7
HETATM    7  C   UNK N   1      30.531  22.619  -2.510  0.00  0.00     0.275 C 
HETATM    8  O   UNK N   1      30.522  23.018  -1.351  0.00  0.00    -0.265 OA
HETATM    9  N   UNK N   1      31.498  21.767  -2.926  0.00  0.00    -0.233 N 
HETATM   10  H   UNK N   1      31.496  21.453  -3.858  0.00  0.00     0.197 HD
BRANCH   9  11
HETATM   11  O   UNK N   1      32.457  21.343  -2.092  0.00  0.00    -0.287 OA
HETATM   12  H   UNK N   1      33.235  21.896  -1.927  0.00  0.00     0.244 HD
ENDBRANCH   9  11
ENDBRANCH   6   7
BRANCH   4  13
HETATM   13  O   UNK N   1      26.306  24.834  -3.352  0.00  0.00    -0.358 OA
HETATM   14  H   UNK N   1      25.837  24.485  -2.621  0.00  0.00     0.217 HD
ENDBRANCH   4  13
BRANCH   3  15
HETATM   15  O   UNK N   1      26.522  24.341  -6.059  0.00  0.00    -0.358 OA
HETATM   16  H   UNK N   1      25.718  23.864  -6.125  0.00  0.00     0.217 HD
ENDBRANCH   3  15
TORSDOF 4
ENDMDL
MODEL 7
REMARK VINA RESULT:      -5.1      9.696     10.419
REMARK  4 active torsions:
REMARK  status: ('A' for Active; 'I' for Inactive)
REMARK    1  A    between atoms: C_3  and  O_12 
REMARK    2  A    between atoms: C_4  and  O_11 
REMARK    3  A    between atoms: C_6  and  C_7 
REMARK       I    between atoms: C_7  and  N_9 
REMARK    4  A    between atoms: N_9  and  O_10 
ROOT
HETATM    1  C   UNK N   1      30.947  18.023   8.736  0.00  0.00     0.020 A 
HETATM    2  C   UNK N   1      29.747  18.288   9.407  0.00  0.00     0.040 A 
HETATM    3  C   UNK N   1      28.522  17.986   8.801  0.00  0.00     0.098 A 
HETATM    4  C   UNK N   1      28.498  17.419   7.521  0.00  0.00     0.099 A 
HETATM    5  C   UNK N   1      29.693  17.157   6.855  0.00  0.00     0.056 A 
HETATM    6  C   UNK N   1      30.925  17.454   7.453  0.00  0.00     0.036 A 
ENDROOT
BRANCH   6   7
HETATM    7  C   UNK N   1      32.171  17.160   6.720  0.00  0.00     0.275 C 
HETATM    8  O   UNK N   1      32.189  16.297   5.850  0.00  0.00    -0.265 OA
HETATM    9  N   UNK N   1      33.297  17.853   7.010  0.00  0.00    -0.233 N 
HETATM   10  H   UNK N   1      33.271  18.545   7.709  0.00  0.00     0.197 HD
BRANCH   9  11
HETATM   11  O   UNK N   1      34.445  17.616   6.363  0.00  0.00    -0.287 OA
HETATM   12  H   UNK N   1      35.121  17.051   6.766  0.00  0.00     0.244 HD
ENDBRANCH   9  11
ENDBRANCH   6   7
BRANCH   4  13
HETATM   13  O   UNK N   1      27.330  17.125   6.925  0.00  0.00    -0.358 OA
HETATM   14  H   UNK N   1      27.133  16.239   6.694  0.00  0.00     0.217 HD
ENDBRANCH   4  13
BRANCH   3  15
HETATM   15  O   UNK N   1      27.373  18.242   9.449  0.00  0.00    -0.358 OA
HETATM   16  H   UNK N   1      27.060  19.122   9.519  0.00  0.00     0.217 HD
ENDBRANCH   3  15
TORSDOF 4
ENDMDL
MODEL 8
REMARK VINA RESULT:      -5.0     10.110     11.099
REMARK  4 active torsions:
REMARK  status: ('A' for Active; 'I' for Inactive)
REMARK    1  A    between atoms: C_3  and  O_12 
REMARK    2  A    between atoms: C_4  and  O_11 
REMARK    3  A    between atoms: C_6  and  C_7 
REMARK       I    between atoms: C_7  and  N_9 
REMARK    4  A    between atoms: N_9  and  O_10 
ROOT
HETATM    1  C   UNK N   1      31.536  17.932   8.518  0.00  0.00     0.020 A 
HETATM    2  C   UNK N   1      32.884  17.979   8.145  0.00  0.00     0.040 A 
HETATM    3  C   UNK N   1      33.269  17.610   6.851  0.00  0.00     0.098 A 
HETATM    4  C   UNK N   1      32.302  17.192   5.928  0.00  0.00     0.099 A 
HETATM    5  C   UNK N   1      30.961  17.146   6.302  0.00  0.00     0.056 A 
HETATM    6  C   UNK N   1      30.565  17.514   7.594  0.00  0.00     0.036 A 
ENDROOT
BRANCH   6   7
HETATM    7  C   UNK N   1      29.135  17.455   7.953  0.00  0.00     0.275 C 
HETATM    8  O   UNK N   1      28.347  16.830   7.254  0.00  0.00    -0.265 OA
HETATM    9  N   UNK N   1      28.698  18.093   9.065  0.00  0.00    -0.233 N 
HETATM   10  H   UNK N   1      29.340  18.591   9.619  0.00  0.00     0.197 HD
BRANCH   9  11
HETATM   11  O   UNK N   1      27.408  18.059   9.424  0.00  0.00    -0.287 OA
HETATM   12  H   UNK N   1      26.979  18.857   9.766  0.00  0.00     0.244 HD
ENDBRANCH   9  11
ENDBRANCH   6   7
BRANCH   4  13
HETATM   13  O   UNK N   1      32.656  16.834   4.683  0.00  0.00    -0.358 OA
HETATM   14  H   UNK N   1      33.465  17.135   4.321  0.00  0.00     0.217 HD
ENDBRANCH   4  13
BRANCH   3  15
HETATM   15  O   UNK N   1      34.565  17.658   6.498  0.00  0.00    -0.358 OA
HETATM   16  H   UNK N   1      35.230  17.447   7.124  0.00  0.00     0.217 HD
ENDBRANCH   3  15
TORSDOF 4
ENDMDL
MODEL 9
REMARK VINA RESULT:      -5.0     11.678     13.085
REMARK  4 active torsions:
REMARK  status: ('A' for Active; 'I' for Inactive)
REMARK    1  A    between atoms: C_3  and  O_12 
REMARK    2  A    between atoms: C_4  and  O_11 
REMARK    3  A    between atoms: C_6  and  C_7 
REMARK       I    between atoms: C_7  and  N_9 
REMARK    4  A    between atoms: N_9  and  O_10 
ROOT
HETATM    1  C   UNK N   1      32.880  15.967   8.172  0.00  0.00     0.020 A 
HETATM    2  C   UNK N   1      33.821  16.036   9.206  0.00  0.00     0.040 A 
HETATM    3  C   UNK N   1      34.664  17.148   9.316  0.00  0.00     0.098 A 
HETATM    4  C   UNK N   1      34.564  18.193   8.389  0.00  0.00     0.099 A 
HETATM    5  C   UNK N   1      33.627  18.122   7.361  0.00  0.00     0.056 A 
HETATM    6  C   UNK N   1      32.778  17.014   7.243  0.00  0.00     0.036 A 
ENDROOT
BRANCH   6   7
HETATM    7  C   UNK N   1      31.796  16.974   6.143  0.00  0.00     0.275 C 
HETATM    8  O   UNK N   1      30.715  16.418   6.298  0.00  0.00    -0.265 OA
HETATM    9  N   UNK N   1      32.094  17.558   4.958  0.00  0.00    -0.233 N 
HETATM   10  H   UNK N   1      32.964  18.002   4.845  0.00  0.00     0.197 HD
BRANCH   9  11
HETATM   11  O   UNK N   1      31.226  17.544   3.938  0.00  0.00    -0.287 OA
HETATM   12  H   UNK N   1      30.419  17.010   3.996  0.00  0.00     0.244 HD
ENDBRANCH   9  11
ENDBRANCH   6   7
BRANCH   4  13
HETATM   13  O   UNK N   1      35.366  19.267   8.481  0.00  0.00    -0.358 OA
HETATM   14  H   UNK N   1      35.821  19.577   7.723  0.00  0.00     0.217 HD
ENDBRANCH   4  13
BRANCH   3  15
HETATM   15  O   UNK N   1      35.566  17.210  10.310  0.00  0.00    -0.358 OA
HETATM   16  H   UNK N   1      36.095  16.463  10.511  0.00  0.00     0.217 HD
ENDBRANCH   3  15
TORSDOF 4
ENDMDL
