REMARK  7 active torsions:
REMARK  status: ('A' for Active; 'I' for Inactive)
REMARK    1  A    between atoms: C_2  and  C_3 
REMARK    2  A    between atoms: C_2  and  N_19 
REMARK    3  A    between atoms: C_3  and  N_4 
REMARK    4  A    between atoms: C_7  and  C_10 
REMARK       I    between atoms: N_19  and  C_20 
REMARK    5  A    between atoms: C_20  and  C_22 
REMARK    6  A    between atoms: C_24  and  C_28 
REMARK    7  A    between atoms: C_28  and  O_30 
ROOT
HETATM    1  C   UNK N   1      -1.153  -1.495   0.697  0.00  0.00    -0.006 A 
HETATM    2  C   UNK N   1      -2.499  -1.165   0.712  0.00  0.00     0.015 A 
HETATM    3  C   UNK N   1      -2.900   0.138   0.495  0.00  0.00     0.025 A 
HETATM    4  C   UNK N   1      -1.964   1.120   0.193  0.00  0.00     0.066 A 
HETATM    5  C   UNK N   1      -0.585   0.818   0.218  0.00  0.00     0.055 A 
HETATM    6  C   UNK N   1      -0.180  -0.501   0.477  0.00  0.00     0.039 A 
HETATM    7 Cl   UNK N   1       0.626   2.020  -0.217  0.00  0.00    -0.083 Cl
HETATM    8  C   UNK N   1      -2.475   2.391  -0.228  0.00  0.00     0.101 C 
HETATM    9  N   UNK N   1      -2.937   3.397  -0.560  0.00  0.00    -0.191 NA
ENDROOT
BRANCH   1  10
HETATM   10  C   UNK N   1      -0.803  -2.889   0.502  0.00  0.00     0.059 A 
HETATM   11  C   UNK N   1      -1.459  -3.701  -0.413  0.00  0.00     0.050 A 
HETATM   12  C   UNK N   1      -0.598  -4.756  -0.618  0.00  0.00     0.112 A 
HETATM   13  N   UNK N   1       0.478  -4.557   0.160  0.00  0.00    -0.301 N 
HETATM   14  N   UNK N   1       0.371  -3.419   0.814  0.00  0.00    -0.298 N 
ATOM     15  HN  UNK N   1       1.066  -3.019   1.445  1.00  0.00     0.187 HD
BRANCH  13  16
HETATM   16  C   UNK N   1       1.755  -5.169  -0.076  0.00  0.00     0.172 C 
BRANCH  16  17
HETATM   17  C   UNK N   1       2.592  -4.108  -0.787  0.00  0.00     0.100 C 
HETATM   18  C   UNK N   1       1.940  -3.581  -2.059  0.00  0.00     0.034 C 
BRANCH  17  19
HETATM   19  N   UNK N   1       2.841  -2.982   0.083  0.00  0.00    -0.350 N 
HETATM   20  C   UNK N   1       4.093  -2.652   0.425  0.00  0.00     0.270 C 
HETATM   21  O   UNK N   1       4.313  -1.582   0.971  0.00  0.00    -0.266 OA
HETATM   22  H   UNK N   1       2.085  -2.454   0.428  0.00  0.00     0.163 HD
BRANCH  20  23
HETATM   23  C   UNK N   1       5.195  -3.538   0.082  0.00  0.00     0.117 A 
HETATM   24  C   UNK N   1       6.463  -3.129  -0.178  0.00  0.00     0.065 A 
HETATM   25  C   UNK N   1       7.136  -4.302  -0.405  0.00  0.00     0.056 A 
HETATM   26  N   UNK N   1       6.308  -5.354  -0.251  0.00  0.00    -0.302 N 
HETATM   27  N   UNK N   1       5.110  -4.883   0.028  0.00  0.00    -0.295 N 
HETATM   28  H   UNK N   1       6.555  -6.304  -0.331  0.00  0.00     0.186 HD
ATOM     29  HN  UNK N   1       4.267  -5.437   0.176  1.00  0.00     0.187 HD
BRANCH  25  30
HETATM   30  C   UNK N   1       8.606  -4.379  -0.555  0.00  0.00     0.165 C 
HETATM   31  C   UNK N   1       9.120  -5.655   0.079  0.00  0.00     0.046 C 
BRANCH  30  32
HETATM   32  O   UNK N   1       9.170  -3.294   0.121  0.00  0.00    -0.390 OA
HETATM   33  H   UNK N   1      10.018  -3.256   0.590  0.00  0.00     0.210 HD
ENDBRANCH  30  32
ENDBRANCH  25  30
ENDBRANCH  20  23
ENDBRANCH  17  19
ENDBRANCH  16  17
ENDBRANCH  13  16
ENDBRANCH   1  10
TORSDOF 7
