MODEL 1
REMARK VINA RESULT:      -8.7      0.000      0.000
REMARK  4 active torsions:
REMARK  status: ('A' for Active; 'I' for Inactive)
REMARK    1  A    between atoms: C_4  and  C_12 
REMARK    2  A    between atoms: C_12  and  N_13 
REMARK    3  A    between atoms: C_18  and  O_23 
REMARK    4  A    between atoms: O_23  and  C_24 
ROOT
HETATM    1  C   UNK N   1      35.508  13.204  12.573  0.00  0.00     0.079 C 
HETATM    2  C   UNK N   1      35.879  14.152  13.540  0.00  0.00     0.060 C 
HETATM    3  C   UNK N   1      36.678  13.767  14.641  0.00  0.00     0.049 C 
HETATM    4  C   UNK N   1      37.040  12.423  14.829  0.00  0.00     0.046 C 
HETATM    5  C   UNK N   1      36.723  11.490  13.853  0.00  0.00     0.038 C 
HETATM    6  C   UNK N   1      36.040  11.901  12.718  0.00  0.00     0.061 C 
HETATM    7 Cl   UNK N   1      37.106   9.791  14.066  0.00  0.00    -0.084 Cl
HETATM    8  C   UNK N   1      37.155  14.756  15.562  0.00  0.00     0.099 C 
HETATM    9  N   UNK N   1      37.562  15.519  16.331  0.00  0.00    -0.191 NA
ENDROOT
BRANCH   1  10
HETATM   10  O   UNK N   1      34.588  13.489  11.557  0.00  0.00    -0.308 OA
BRANCH  10  11
HETATM   11  C   UNK N   1      35.024  13.899  10.311  0.00  0.00     0.111 C 
HETATM   12  C   UNK N   1      35.027  13.028   9.187  0.00  0.00     0.069 C 
HETATM   13  C   UNK N   1      35.030  13.574   7.879  0.00  0.00     0.029 C 
HETATM   14 Cl   UNK N   1      34.863  11.293   9.358  0.00  0.00    -0.081 Cl
HETATM   15  C   UNK N   1      34.937  14.964   7.695  0.00  0.00     0.034 C 
HETATM   16  C   UNK N   1      35.062  15.767   8.823  0.00  0.00     0.065 C 
HETATM   17  N   UNK N   1      34.826  17.075   8.946  0.00  0.00    -0.286 N 
HETATM   18  C   UNK N   1      35.245  15.263  10.062  0.00  0.00     0.045 C 
HETATM   19  N   UNK N   1      35.019  17.443  10.207  0.00  0.00    -0.308 N 
HETATM   20  C   UNK N   1      35.325  16.347  10.922  0.00  0.00     0.124 C 
ATOM     21  HN  UNK N   1      34.947  18.393  10.570  1.00  0.00     0.186 HD
BRANCH  17  22
HETATM   22  C   UNK N   1      34.065  17.849   7.988  0.00  0.00     0.208 C 
BRANCH  22  23
HETATM   23  C   UNK N   1      32.658  17.453   8.021  0.00  0.00     0.059 A 
HETATM   24  C   UNK N   1      31.945  17.234   6.908  0.00  0.00     0.035 A 
HETATM   25  C   UNK N   1      32.301  17.252   5.572  0.00  0.00     0.018 A 
HETATM   26  C   UNK N   1      30.681  17.025   7.325  0.00  0.00     0.132 A 
HETATM   27  C   UNK N   1      31.272  17.048   4.649  0.00  0.00     0.018 A 
HETATM   28  C   UNK N   1      29.946  16.847   5.112  0.00  0.00     0.090 A 
HETATM   29  N   UNK N   1      29.664  16.835   6.455  0.00  0.00    -0.351 N 
ATOM     30  HN  UNK N   1      28.711  16.686   6.788  1.00  0.00     0.166 HD
HETATM   31  N   UNK N   1      30.614  17.093   8.667  0.00  0.00    -0.284 N 
HETATM   32  N   UNK N   1      31.844  17.362   9.104  0.00  0.00    -0.301 N 
HETATM   33  H   UNK N   1      29.810  16.967   9.222  0.00  0.00     0.188 HD
ATOM     34  HN  UNK N   1      32.124  17.479  10.077  1.00  0.00     0.186 HD
ENDBRANCH  22  23
ENDBRANCH  17  22
ENDBRANCH  10  11
ENDBRANCH   1  10
TORSDOF 4
ENDMDL
MODEL 2
REMARK VINA RESULT:      -8.7      2.990      4.212
REMARK  4 active torsions:
REMARK  status: ('A' for Active; 'I' for Inactive)
REMARK    1  A    between atoms: C_4  and  C_12 
REMARK    2  A    between atoms: C_12  and  N_13 
REMARK    3  A    between atoms: C_18  and  O_23 
REMARK    4  A    between atoms: O_23  and  C_24 
ROOT
HETATM    1  C   UNK N   1      34.386  11.842  15.348  0.00  0.00     0.079 C 
HETATM    2  C   UNK N   1      34.659  10.564  15.863  0.00  0.00     0.060 C 
HETATM    3  C   UNK N   1      35.112  10.418  17.194  0.00  0.00     0.049 C 
HETATM    4  C   UNK N   1      35.376  11.545  17.990  0.00  0.00     0.046 C 
HETATM    5  C   UNK N   1      35.060  12.806  17.509  0.00  0.00     0.038 C 
HETATM    6  C   UNK N   1      34.505  12.930  16.244  0.00  0.00     0.061 C 
HETATM    7 Cl   UNK N   1      35.420  14.248  18.442  0.00  0.00    -0.084 Cl
HETATM    8  C   UNK N   1      35.275   9.109  17.756  0.00  0.00     0.099 C 
HETATM    9  N   UNK N   1      35.423   8.074  18.252  0.00  0.00    -0.191 NA
ENDROOT
BRANCH   1  10
HETATM   10  O   UNK N   1      34.096  12.059  13.996  0.00  0.00    -0.308 OA
BRANCH  10  11
HETATM   11  C   UNK N   1      35.092  11.964  13.042  0.00  0.00     0.111 C 
HETATM   12  C   UNK N   1      35.221  10.830  12.194  0.00  0.00     0.069 C 
HETATM   13  C   UNK N   1      35.918  10.951  10.966  0.00  0.00     0.029 C 
HETATM   14 Cl   UNK N   1      34.405   9.319  12.537  0.00  0.00    -0.081 Cl
HETATM   15  C   UNK N   1      36.398  12.203  10.547  0.00  0.00     0.034 C 
HETATM   16  C   UNK N   1      36.352  13.244  11.468  0.00  0.00     0.065 C 
HETATM   17  N   UNK N   1      36.564  14.546  11.266  0.00  0.00    -0.286 N 
HETATM   18  C   UNK N   1      35.855  13.096  12.714  0.00  0.00     0.045 C 
HETATM   19  N   UNK N   1      36.372  15.207  12.401  0.00  0.00    -0.308 N 
HETATM   20  C   UNK N   1      35.973  14.329  13.337  0.00  0.00     0.124 C 
ATOM     21  HN  UNK N   1      36.505  16.209  12.539  1.00  0.00     0.186 HD
BRANCH  17  22
HETATM   22  C   UNK N   1      36.555  15.169   9.959  0.00  0.00     0.208 C 
BRANCH  22  23
HETATM   23  C   UNK N   1      35.263  15.808   9.712  0.00  0.00     0.059 A 
HETATM   24  C   UNK N   1      34.319  15.250   8.941  0.00  0.00     0.035 A 
HETATM   25  C   UNK N   1      34.270  14.032   8.288  0.00  0.00     0.018 A 
HETATM   26  C   UNK N   1      33.345  16.174   8.839  0.00  0.00     0.132 A 
HETATM   27  C   UNK N   1      33.145  13.794   7.495  0.00  0.00     0.018 A 
HETATM   28  C   UNK N   1      32.139  14.789   7.390  0.00  0.00     0.090 A 
HETATM   29  N   UNK N   1      32.249  15.976   8.071  0.00  0.00    -0.351 N 
ATOM     30  HN  UNK N   1      31.524  16.690   8.000  1.00  0.00     0.166 HD
HETATM   31  N   UNK N   1      33.665  17.273   9.547  0.00  0.00    -0.284 N 
HETATM   32  N   UNK N   1      34.862  17.049  10.090  0.00  0.00    -0.301 N 
HETATM   33  H   UNK N   1      33.120  18.087   9.646  0.00  0.00     0.188 HD
ATOM     34  HN  UNK N   1      35.383  17.694  10.683  1.00  0.00     0.186 HD
ENDBRANCH  22  23
ENDBRANCH  17  22
ENDBRANCH  10  11
ENDBRANCH   1  10
TORSDOF 4
ENDMDL
MODEL 3
REMARK VINA RESULT:      -8.4      2.367      3.321
REMARK  4 active torsions:
REMARK  status: ('A' for Active; 'I' for Inactive)
REMARK    1  A    between atoms: C_4  and  C_12 
REMARK    2  A    between atoms: C_12  and  N_13 
REMARK    3  A    between atoms: C_18  and  O_23 
REMARK    4  A    between atoms: O_23  and  C_24 
ROOT
HETATM    1  C   UNK N   1      34.625  11.925  14.967  0.00  0.00     0.079 C 
HETATM    2  C   UNK N   1      34.728  13.023  15.837  0.00  0.00     0.060 C 
HETATM    3  C   UNK N   1      35.026  12.819  17.204  0.00  0.00     0.049 C 
HETATM    4  C   UNK N   1      35.137  11.520  17.728  0.00  0.00     0.046 C 
HETATM    5  C   UNK N   1      35.088  10.434  16.867  0.00  0.00     0.038 C 
HETATM    6  C   UNK N   1      34.914  10.651  15.509  0.00  0.00     0.061 C 
HETATM    7 Cl   UNK N   1      35.169   8.790  17.478  0.00  0.00    -0.084 Cl
HETATM    8  C   UNK N   1      35.249  13.943  18.065  0.00  0.00     0.099 C 
HETATM    9  N   UNK N   1      35.436  14.819  18.798  0.00  0.00    -0.191 NA
ENDROOT
BRANCH   1  10
HETATM   10  O   UNK N   1      34.173  12.054  13.649  0.00  0.00    -0.308 OA
BRANCH  10  11
HETATM   11  C   UNK N   1      35.056  11.943  12.591  0.00  0.00     0.111 C 
HETATM   12  C   UNK N   1      35.049  10.822  11.716  0.00  0.00     0.069 C 
HETATM   13  C   UNK N   1      35.615  10.943  10.421  0.00  0.00     0.029 C 
HETATM   14 Cl   UNK N   1      34.218   9.335  12.119  0.00  0.00    -0.081 Cl
HETATM   15  C   UNK N   1      36.095  12.186   9.974  0.00  0.00     0.034 C 
HETATM   16  C   UNK N   1      36.188  13.209  10.912  0.00  0.00     0.065 C 
HETATM   17  N   UNK N   1      36.426  14.506  10.710  0.00  0.00    -0.286 N 
HETATM   18  C   UNK N   1      35.822  13.053  12.201  0.00  0.00     0.045 C 
HETATM   19  N   UNK N   1      36.383  15.150  11.869  0.00  0.00    -0.308 N 
HETATM   20  C   UNK N   1      36.053  14.268  12.828  0.00  0.00     0.124 C 
ATOM     21  HN  UNK N   1      36.568  16.143  12.009  1.00  0.00     0.186 HD
BRANCH  17  22
HETATM   22  C   UNK N   1      36.301  15.155   9.421  0.00  0.00     0.208 C 
BRANCH  22  23
HETATM   23  C   UNK N   1      35.024  15.862   9.333  0.00  0.00     0.059 A 
HETATM   24  C   UNK N   1      34.001  15.411   8.594  0.00  0.00     0.035 A 
HETATM   25  C   UNK N   1      33.849  14.259   7.844  0.00  0.00     0.018 A 
HETATM   26  C   UNK N   1      33.063  16.376   8.650  0.00  0.00     0.132 A 
HETATM   27  C   UNK N   1      32.657  14.136   7.124  0.00  0.00     0.018 A 
HETATM   28  C   UNK N   1      31.692  15.173   7.186  0.00  0.00     0.090 A 
HETATM   29  N   UNK N   1      31.905  16.289   7.956  0.00  0.00    -0.351 N 
ATOM     30  HN  UNK N   1      31.209  17.033   8.004  1.00  0.00     0.166 HD
HETATM   31  N   UNK N   1      33.484  17.394   9.423  0.00  0.00    -0.284 N 
HETATM   32  N   UNK N   1      34.707  17.078   9.847  0.00  0.00    -0.301 N 
HETATM   33  H   UNK N   1      32.984  18.216   9.634  0.00  0.00     0.188 HD
ATOM     34  HN  UNK N   1      35.299  17.647  10.451  1.00  0.00     0.186 HD
ENDBRANCH  22  23
ENDBRANCH  17  22
ENDBRANCH  10  11
ENDBRANCH   1  10
TORSDOF 4
ENDMDL
MODEL 4
REMARK VINA RESULT:      -8.4      1.690      2.109
REMARK  4 active torsions:
REMARK  status: ('A' for Active; 'I' for Inactive)
REMARK    1  A    between atoms: C_4  and  C_12 
REMARK    2  A    between atoms: C_12  and  N_13 
REMARK    3  A    between atoms: C_18  and  O_23 
REMARK    4  A    between atoms: O_23  and  C_24 
ROOT
HETATM    1  C   UNK N   1      35.288  12.827  12.600  0.00  0.00     0.079 C 
HETATM    2  C   UNK N   1      35.899  11.562  12.584  0.00  0.00     0.060 C 
HETATM    3  C   UNK N   1      36.849  11.221  13.573  0.00  0.00     0.049 C 
HETATM    4  C   UNK N   1      37.256  12.163  14.532  0.00  0.00     0.046 C 
HETATM    5  C   UNK N   1      36.621  13.394  14.588  0.00  0.00     0.038 C 
HETATM    6  C   UNK N   1      35.607  13.677  13.686  0.00  0.00     0.061 C 
HETATM    7 Cl   UNK N   1      37.130  14.624  15.732  0.00  0.00    -0.084 Cl
HETATM    8  C   UNK N   1      37.383   9.892  13.626  0.00  0.00     0.099 C 
HETATM    9  N   UNK N   1      37.841   8.832  13.708  0.00  0.00    -0.191 NA
ENDROOT
BRANCH   1  10
HETATM   10  O   UNK N   1      34.470  13.278  11.558  0.00  0.00    -0.308 OA
BRANCH  10  11
HETATM   11  C   UNK N   1      35.027  13.767  10.391  0.00  0.00     0.111 C 
HETATM   12  C   UNK N   1      35.119  12.980   9.210  0.00  0.00     0.069 C 
HETATM   13  C   UNK N   1      35.253  13.620   7.952  0.00  0.00     0.029 C 
HETATM   14 Cl   UNK N   1      34.909  11.242   9.235  0.00  0.00    -0.081 Cl
HETATM   15  C   UNK N   1      35.201  15.021   7.865  0.00  0.00     0.034 C 
HETATM   16  C   UNK N   1      35.235  15.736   9.057  0.00  0.00     0.065 C 
HETATM   17  N   UNK N   1      35.012  17.038   9.256  0.00  0.00    -0.286 N 
HETATM   18  C   UNK N   1      35.293  15.139  10.266  0.00  0.00     0.045 C 
HETATM   19  N   UNK N   1      35.093  17.307  10.552  0.00  0.00    -0.308 N 
HETATM   20  C   UNK N   1      35.312  16.155  11.209  0.00  0.00     0.124 C 
ATOM     21  HN  UNK N   1      35.004  18.230  10.977  1.00  0.00     0.186 HD
BRANCH  17  22
HETATM   22  C   UNK N   1      34.357  17.897   8.292  0.00  0.00     0.208 C 
BRANCH  22  23
HETATM   23  C   UNK N   1      32.967  17.482   8.106  0.00  0.00     0.059 A 
HETATM   24  C   UNK N   1      32.416  17.334   6.894  0.00  0.00     0.035 A 
HETATM   25  C   UNK N   1      32.949  17.451   5.623  0.00  0.00     0.018 A 
HETATM   26  C   UNK N   1      31.113  17.081   7.119  0.00  0.00     0.132 A 
HETATM   27  C   UNK N   1      32.059  17.299   4.557  0.00  0.00     0.018 A 
HETATM   28  C   UNK N   1      30.687  17.050   4.820  0.00  0.00     0.090 A 
HETATM   29  N   UNK N   1      30.227  16.939   6.108  0.00  0.00    -0.351 N 
ATOM     30  HN  UNK N   1      29.241  16.755   6.297  1.00  0.00     0.166 HD
HETATM   31  N   UNK N   1      30.863  17.052   8.442  0.00  0.00    -0.284 N 
HETATM   32  N   UNK N   1      32.017  17.305   9.059  0.00  0.00    -0.301 N 
HETATM   33  H   UNK N   1      29.995  16.877   8.871  0.00  0.00     0.188 HD
ATOM     34  HN  UNK N   1      32.160  17.356  10.067  1.00  0.00     0.186 HD
ENDBRANCH  22  23
ENDBRANCH  17  22
ENDBRANCH  10  11
ENDBRANCH   1  10
TORSDOF 4
ENDMDL
MODEL 5
REMARK VINA RESULT:      -8.3      7.025     12.417
REMARK  4 active torsions:
REMARK  status: ('A' for Active; 'I' for Inactive)
REMARK    1  A    between atoms: C_4  and  C_12 
REMARK    2  A    between atoms: C_12  and  N_13 
REMARK    3  A    between atoms: C_18  and  O_23 
REMARK    4  A    between atoms: O_23  and  C_24 
ROOT
HETATM    1  C   UNK N   1      22.612  15.411   4.133  0.00  0.00     0.079 C 
HETATM    2  C   UNK N   1      22.403  16.240   5.247  0.00  0.00     0.060 C 
HETATM    3  C   UNK N   1      21.461  17.292   5.182  0.00  0.00     0.049 C 
HETATM    4  C   UNK N   1      20.785  17.576   3.983  0.00  0.00     0.046 C 
HETATM    5  C   UNK N   1      20.946  16.732   2.895  0.00  0.00     0.038 C 
HETATM    6  C   UNK N   1      21.784  15.633   3.007  0.00  0.00     0.061 C 
HETATM    7 Cl   UNK N   1      20.166  17.074   1.361  0.00  0.00    -0.084 Cl
HETATM    8  C   UNK N   1      21.162  18.060   6.354  0.00  0.00     0.099 C 
HETATM    9  N   UNK N   1      20.889  18.708   7.274  0.00  0.00    -0.191 NA
ENDROOT
BRANCH   1  10
HETATM   10  O   UNK N   1      23.642  14.465   4.085  0.00  0.00    -0.308 OA
BRANCH  10  11
HETATM   11  C   UNK N   1      24.948  14.862   3.864  0.00  0.00     0.111 C 
HETATM   12  C   UNK N   1      25.457  15.095   2.557  0.00  0.00     0.069 C 
HETATM   13  C   UNK N   1      26.599  15.917   2.388  0.00  0.00     0.029 C 
HETATM   14 Cl   UNK N   1      24.623  14.534   1.124  0.00  0.00    -0.081 Cl
HETATM   15  C   UNK N   1      27.169  16.571   3.494  0.00  0.00     0.034 C 
HETATM   16  C   UNK N   1      26.709  16.208   4.755  0.00  0.00     0.065 C 
HETATM   17  N   UNK N   1      26.942  16.797   5.930  0.00  0.00    -0.286 N 
HETATM   18  C   UNK N   1      25.741  15.285   4.943  0.00  0.00     0.045 C 
HETATM   19  N   UNK N   1      26.272  16.164   6.884  0.00  0.00    -0.308 N 
HETATM   20  C   UNK N   1      25.548  15.187   6.312  0.00  0.00     0.124 C 
ATOM     21  HN  UNK N   1      26.302  16.381   7.880  1.00  0.00     0.186 HD
BRANCH  17  22
HETATM   22  C   UNK N   1      27.460  18.143   6.065  0.00  0.00     0.208 C 
BRANCH  22  23
HETATM   23  C   UNK N   1      28.184  18.282   7.327  0.00  0.00     0.059 A 
HETATM   24  C   UNK N   1      29.429  17.818   7.499  0.00  0.00     0.035 A 
HETATM   25  C   UNK N   1      30.308  17.206   6.624  0.00  0.00     0.018 A 
HETATM   26  C   UNK N   1      29.707  18.005   8.803  0.00  0.00     0.132 A 
HETATM   27  C   UNK N   1      31.523  16.773   7.161  0.00  0.00     0.018 A 
HETATM   28  C   UNK N   1      31.786  16.966   8.542  0.00  0.00     0.090 A 
HETATM   29  N   UNK N   1      30.870  17.588   9.353  0.00  0.00    -0.351 N 
ATOM     30  HN  UNK N   1      31.061  17.731  10.345  1.00  0.00     0.166 HD
HETATM   31  N   UNK N   1      28.667  18.591   9.424  0.00  0.00    -0.284 N 
HETATM   32  N   UNK N   1      27.715  18.762   8.508  0.00  0.00    -0.301 N 
HETATM   33  H   UNK N   1      28.619  18.845  10.374  0.00  0.00     0.188 HD
ATOM     34  HN  UNK N   1      26.798  19.180   8.665  1.00  0.00     0.186 HD
ENDBRANCH  22  23
ENDBRANCH  17  22
ENDBRANCH  10  11
ENDBRANCH   1  10
TORSDOF 4
ENDMDL
MODEL 6
REMARK VINA RESULT:      -8.2     15.736     19.062
REMARK  4 active torsions:
REMARK  status: ('A' for Active; 'I' for Inactive)
REMARK    1  A    between atoms: C_4  and  C_12 
REMARK    2  A    between atoms: C_12  and  N_13 
REMARK    3  A    between atoms: C_18  and  O_23 
REMARK    4  A    between atoms: O_23  and  C_24 
ROOT
HETATM    1  C   UNK N   1      31.136  22.130  -5.730  0.00  0.00     0.079 C 
HETATM    2  C   UNK N   1      30.072  22.442  -4.868  0.00  0.00     0.060 C 
HETATM    3  C   UNK N   1      30.223  22.287  -3.471  0.00  0.00     0.049 C 
HETATM    4  C   UNK N   1      31.400  21.741  -2.933  0.00  0.00     0.046 C 
HETATM    5  C   UNK N   1      32.473  21.479  -3.771  0.00  0.00     0.038 C 
HETATM    6  C   UNK N   1      32.356  21.745  -5.126  0.00  0.00     0.061 C 
HETATM    7 Cl   UNK N   1      33.945  20.747  -3.156  0.00  0.00    -0.084 Cl
HETATM    8  C   UNK N   1      29.182  22.718  -2.585  0.00  0.00     0.099 C 
HETATM    9  N   UNK N   1      28.369  23.051  -1.832  0.00  0.00    -0.191 NA
ENDROOT
BRANCH   1  10
HETATM   10  O   UNK N   1      30.990  22.106  -7.122  0.00  0.00    -0.308 OA
BRANCH  10  11
HETATM   11  C   UNK N   1      29.743  21.932  -7.694  0.00  0.00     0.111 C 
HETATM   12  C   UNK N   1      29.120  20.656  -7.772  0.00  0.00     0.069 C 
HETATM   13  C   UNK N   1      27.713  20.574  -7.924  0.00  0.00     0.029 C 
HETATM   14 Cl   UNK N   1      30.013  19.171  -7.523  0.00  0.00    -0.081 Cl
HETATM   15  C   UNK N   1      26.931  21.741  -7.905  0.00  0.00     0.034 C 
HETATM   16  C   UNK N   1      27.603  22.958  -7.951  0.00  0.00     0.065 C 
HETATM   17  N   UNK N   1      27.117  24.187  -7.757  0.00  0.00    -0.286 N 
HETATM   18  C   UNK N   1      28.948  23.050  -7.992  0.00  0.00     0.045 C 
HETATM   19  N   UNK N   1      28.103  25.071  -7.840  0.00  0.00    -0.308 N 
HETATM   20  C   UNK N   1      29.253  24.402  -8.031  0.00  0.00     0.124 C 
ATOM     21  HN  UNK N   1      28.005  26.084  -7.771  1.00  0.00     0.186 HD
BRANCH  17  22
HETATM   22  C   UNK N   1      25.842  24.456  -7.125  0.00  0.00     0.208 C 
BRANCH  22  23
HETATM   23  C   UNK N   1      26.030  24.715  -5.698  0.00  0.00     0.059 A 
HETATM   24  C   UNK N   1      25.851  25.927  -5.156  0.00  0.00     0.035 A 
HETATM   25  C   UNK N   1      25.427  27.123  -5.705  0.00  0.00     0.018 A 
HETATM   26  C   UNK N   1      26.240  25.809  -3.872  0.00  0.00     0.132 A 
HETATM   27  C   UNK N   1      25.424  28.233  -4.855  0.00  0.00     0.018 A 
HETATM   28  C   UNK N   1      25.854  28.087  -3.511  0.00  0.00     0.090 A 
HETATM   29  N   UNK N   1      26.257  26.867  -3.030  0.00  0.00    -0.351 N 
ATOM     30  HN  UNK N   1      26.562  26.760  -2.062  1.00  0.00     0.166 HD
HETATM   31  N   UNK N   1      26.632  24.547  -3.616  0.00  0.00    -0.284 N 
HETATM   32  N   UNK N   1      26.505  23.864  -4.753  0.00  0.00    -0.301 N 
HETATM   33  H   UNK N   1      26.951  24.195  -2.753  0.00  0.00     0.188 HD
ATOM     34  HN  UNK N   1      26.726  22.878  -4.889  1.00  0.00     0.186 HD
ENDBRANCH  22  23
ENDBRANCH  17  22
ENDBRANCH  10  11
ENDBRANCH   1  10
TORSDOF 4
ENDMDL
MODEL 7
REMARK VINA RESULT:      -8.0     10.618     14.174
REMARK  4 active torsions:
REMARK  status: ('A' for Active; 'I' for Inactive)
REMARK    1  A    between atoms: C_4  and  C_12 
REMARK    2  A    between atoms: C_12  and  N_13 
REMARK    3  A    between atoms: C_18  and  O_23 
REMARK    4  A    between atoms: O_23  and  C_24 
ROOT
HETATM    1  C   UNK N   1      22.830  18.052   4.986  0.00  0.00     0.079 C 
HETATM    2  C   UNK N   1      23.592  16.949   5.406  0.00  0.00     0.060 C 
HETATM    3  C   UNK N   1      24.956  16.852   5.050  0.00  0.00     0.049 C 
HETATM    4  C   UNK N   1      25.547  17.807   4.205  0.00  0.00     0.046 C 
HETATM    5  C   UNK N   1      24.818  18.925   3.829  0.00  0.00     0.038 C 
HETATM    6  C   UNK N   1      23.515  19.070   4.281  0.00  0.00     0.061 C 
HETATM    7 Cl   UNK N   1      25.491  20.118   2.732  0.00  0.00    -0.084 Cl
HETATM    8  C   UNK N   1      25.762  15.790   5.577  0.00  0.00     0.099 C 
HETATM    9  N   UNK N   1      26.450  14.951   5.978  0.00  0.00    -0.191 NA
ENDROOT
BRANCH   1  10
HETATM   10  O   UNK N   1      21.444  18.119   5.168  0.00  0.00    -0.308 OA
BRANCH  10  11
HETATM   11  C   UNK N   1      20.682  16.965   5.181  0.00  0.00     0.111 C 
HETATM   12  C   UNK N   1      20.276  16.314   3.983  0.00  0.00     0.069 C 
HETATM   13  C   UNK N   1      19.918  14.943   4.020  0.00  0.00     0.029 C 
HETATM   14 Cl   UNK N   1      20.359  17.105   2.424  0.00  0.00    -0.081 Cl
HETATM   15  C   UNK N   1      20.051  14.210   5.212  0.00  0.00     0.034 C 
HETATM   16  C   UNK N   1      20.331  14.925   6.371  0.00  0.00     0.065 C 
HETATM   17  N   UNK N   1      20.687  14.461   7.572  0.00  0.00    -0.286 N 
HETATM   18  C   UNK N   1      20.496  16.264   6.383  0.00  0.00     0.045 C 
HETATM   19  N   UNK N   1      20.912  15.480   8.392  0.00  0.00    -0.308 N 
HETATM   20  C   UNK N   1      20.758  16.620   7.697  0.00  0.00     0.124 C 
ATOM     21  HN  UNK N   1      21.158  15.409   9.378  1.00  0.00     0.186 HD
BRANCH  17  22
HETATM   22  C   UNK N   1      21.176  13.117   7.801  0.00  0.00     0.208 C 
BRANCH  22  23
HETATM   23  C   UNK N   1      22.583  13.152   8.198  0.00  0.00     0.059 A 
HETATM   24  C   UNK N   1      23.009  12.688   9.380  0.00  0.00     0.035 A 
HETATM   25  C   UNK N   1      22.340  12.059  10.414  0.00  0.00     0.018 A 
HETATM   26  C   UNK N   1      24.316  13.007   9.443  0.00  0.00     0.132 A 
HETATM   27  C   UNK N   1      23.089  11.768  11.557  0.00  0.00     0.018 A 
HETATM   28  C   UNK N   1      24.460  12.129  11.606  0.00  0.00     0.090 A 
HETATM   29  N   UNK N   1      25.064  12.746  10.539  0.00  0.00    -0.351 N 
ATOM     30  HN  UNK N   1      26.051  13.002  10.572  1.00  0.00     0.166 HD
HETATM   31  N   UNK N   1      24.699  13.637   8.317  0.00  0.00    -0.284 N 
HETATM   32  N   UNK N   1      23.619  13.732   7.540  0.00  0.00    -0.301 N 
HETATM   33  H   UNK N   1      25.603  13.965   8.106  0.00  0.00     0.188 HD
ATOM     34  HN  UNK N   1      23.580  14.162   6.617  1.00  0.00     0.186 HD
ENDBRANCH  22  23
ENDBRANCH  17  22
ENDBRANCH  10  11
ENDBRANCH   1  10
TORSDOF 4
ENDMDL
MODEL 8
REMARK VINA RESULT:      -7.9      4.400     10.123
REMARK  4 active torsions:
REMARK  status: ('A' for Active; 'I' for Inactive)
REMARK    1  A    between atoms: C_4  and  C_12 
REMARK    2  A    between atoms: C_12  and  N_13 
REMARK    3  A    between atoms: C_18  and  O_23 
REMARK    4  A    between atoms: O_23  and  C_24 
ROOT
HETATM    1  C   UNK N   1      27.917  18.349   5.224  0.00  0.00     0.079 C 
HETATM    2  C   UNK N   1      27.411  19.272   4.294  0.00  0.00     0.060 C 
HETATM    3  C   UNK N   1      26.077  19.161   3.840  0.00  0.00     0.049 C 
HETATM    4  C   UNK N   1      25.268  18.085   4.243  0.00  0.00     0.046 C 
HETATM    5  C   UNK N   1      25.742  17.200   5.199  0.00  0.00     0.038 C 
HETATM    6  C   UNK N   1      27.011  17.386   5.727  0.00  0.00     0.061 C 
HETATM    7 Cl   UNK N   1      24.793  15.810   5.697  0.00  0.00    -0.084 Cl
HETATM    8  C   UNK N   1      25.524  20.170   2.985  0.00  0.00     0.099 C 
HETATM    9  N   UNK N   1      25.036  20.959   2.294  0.00  0.00    -0.191 NA
ENDROOT
BRANCH   1  10
HETATM   10  O   UNK N   1      29.270  18.310   5.580  0.00  0.00    -0.308 OA
BRANCH  10  11
HETATM   11  C   UNK N   1      29.906  17.100   5.789  0.00  0.00     0.111 C 
HETATM   12  C   UNK N   1      30.293  16.254   4.714  0.00  0.00     0.069 C 
HETATM   13  C   UNK N   1      31.315  15.292   4.914  0.00  0.00     0.029 C 
HETATM   14 Cl   UNK N   1      29.664  16.468   3.094  0.00  0.00    -0.081 Cl
HETATM   15  C   UNK N   1      32.003  15.238   6.138  0.00  0.00     0.034 C 
HETATM   16  C   UNK N   1      31.500  16.000   7.187  0.00  0.00     0.065 C 
HETATM   17  N   UNK N   1      32.062  16.268   8.368  0.00  0.00    -0.286 N 
HETATM   18  C   UNK N   1      30.410  16.786   7.061  0.00  0.00     0.045 C 
HETATM   19  N   UNK N   1      31.270  17.076   9.061  0.00  0.00    -0.308 N 
HETATM   20  C   UNK N   1      30.209  17.385   8.296  0.00  0.00     0.124 C 
ATOM     21  HN  UNK N   1      31.438  17.406  10.011  1.00  0.00     0.186 HD
BRANCH  17  22
HETATM   22  C   UNK N   1      33.470  16.081   8.648  0.00  0.00     0.208 C 
BRANCH  22  23
HETATM   23  C   UNK N   1      33.667  14.892   9.477  0.00  0.00     0.059 A 
HETATM   24  C   UNK N   1      34.460  14.891  10.557  0.00  0.00     0.035 A 
HETATM   25  C   UNK N   1      35.183  15.902  11.166  0.00  0.00     0.018 A 
HETATM   26  C   UNK N   1      34.499  13.612  10.975  0.00  0.00     0.132 A 
HETATM   27  C   UNK N   1      35.979  15.532  12.253  0.00  0.00     0.018 A 
HETATM   28  C   UNK N   1      36.015  14.175  12.664  0.00  0.00     0.090 A 
HETATM   29  N   UNK N   1      35.267  13.223  12.018  0.00  0.00    -0.351 N 
ATOM     30  HN  UNK N   1      35.290  12.248  12.316  1.00  0.00     0.166 HD
HETATM   31  N   UNK N   1      33.731  12.838  10.186  0.00  0.00    -0.284 N 
HETATM   32  N   UNK N   1      33.213  13.633   9.250  0.00  0.00    -0.301 N 
HETATM   33  H   UNK N   1      33.579  11.870  10.282  0.00  0.00     0.188 HD
ATOM     34  HN  UNK N   1      32.588  13.347   8.497  1.00  0.00     0.186 HD
ENDBRANCH  22  23
ENDBRANCH  17  22
ENDBRANCH  10  11
ENDBRANCH   1  10
TORSDOF 4
ENDMDL
MODEL 9
REMARK VINA RESULT:      -7.8      4.334      9.939
REMARK  4 active torsions:
REMARK  status: ('A' for Active; 'I' for Inactive)
REMARK    1  A    between atoms: C_4  and  C_12 
REMARK    2  A    between atoms: C_12  and  N_13 
REMARK    3  A    between atoms: C_18  and  O_23 
REMARK    4  A    between atoms: O_23  and  C_24 
ROOT
HETATM    1  C   UNK N   1      27.986  16.935   5.350  0.00  0.00     0.079 C 
HETATM    2  C   UNK N   1      27.408  16.088   4.390  0.00  0.00     0.060 C 
HETATM    3  C   UNK N   1      26.473  16.601   3.462  0.00  0.00     0.049 C 
HETATM    4  C   UNK N   1      26.044  17.937   3.539  0.00  0.00     0.046 C 
HETATM    5  C   UNK N   1      26.647  18.792   4.449  0.00  0.00     0.038 C 
HETATM    6  C   UNK N   1      27.649  18.308   5.276  0.00  0.00     0.061 C 
HETATM    7 Cl   UNK N   1      26.111  20.455   4.621  0.00  0.00    -0.084 Cl
HETATM    8  C   UNK N   1      25.975  15.765   2.410  0.00  0.00     0.099 C 
HETATM    9  N   UNK N   1      25.545  15.129   1.544  0.00  0.00    -0.191 NA
ENDROOT
BRANCH   1  10
HETATM   10  O   UNK N   1      28.786  16.452   6.391  0.00  0.00    -0.308 OA
BRANCH  10  11
HETATM   11  C   UNK N   1      29.810  17.226   6.905  0.00  0.00     0.111 C 
HETATM   12  C   UNK N   1      29.707  17.874   8.166  0.00  0.00     0.069 C 
HETATM   13  C   UNK N   1      30.887  18.254   8.855  0.00  0.00     0.029 C 
HETATM   14 Cl   UNK N   1      28.172  18.077   8.982  0.00  0.00    -0.081 Cl
HETATM   15  C   UNK N   1      32.148  17.910   8.339  0.00  0.00     0.034 C 
HETATM   16  C   UNK N   1      32.188  17.390   7.049  0.00  0.00     0.065 C 
HETATM   17  N   UNK N   1      33.213  16.820   6.412  0.00  0.00    -0.286 N 
HETATM   18  C   UNK N   1      31.080  17.193   6.306  0.00  0.00     0.045 C 
HETATM   19  N   UNK N   1      32.817  16.413   5.212  0.00  0.00    -0.308 N 
HETATM   20  C   UNK N   1      31.503  16.670   5.094  0.00  0.00     0.124 C 
ATOM     21  HN  UNK N   1      33.408  15.981   4.503  1.00  0.00     0.186 HD
BRANCH  17  22
HETATM   22  C   UNK N   1      34.402  16.330   7.078  0.00  0.00     0.208 C 
BRANCH  22  23
HETATM   23  C   UNK N   1      34.061  15.225   7.974  0.00  0.00     0.059 A 
HETATM   24  C   UNK N   1      34.424  15.206   9.264  0.00  0.00     0.035 A 
HETATM   25  C   UNK N   1      35.087  16.135  10.044  0.00  0.00     0.018 A 
HETATM   26  C   UNK N   1      34.058  13.994   9.723  0.00  0.00     0.132 A 
HETATM   27  C   UNK N   1      35.375  15.755  11.358  0.00  0.00     0.018 A 
HETATM   28  C   UNK N   1      34.994  14.467  11.813  0.00  0.00     0.090 A 
HETATM   29  N   UNK N   1      34.331  13.596  10.986  0.00  0.00    -0.351 N 
ATOM     30  HN  UNK N   1      34.053  12.671  11.315  1.00  0.00     0.166 HD
HETATM   31  N   UNK N   1      33.461  13.284   8.747  0.00  0.00    -0.284 N 
HETATM   32  N   UNK N   1      33.465  14.048   7.655  0.00  0.00    -0.301 N 
HETATM   33  H   UNK N   1      33.092  12.375   8.825  0.00  0.00     0.188 HD
ATOM     34  HN  UNK N   1      33.087  13.794   6.743  1.00  0.00     0.186 HD
ENDBRANCH  22  23
ENDBRANCH  17  22
ENDBRANCH  10  11
ENDBRANCH   1  10
TORSDOF 4
ENDMDL
