MODEL 1
REMARK VINA RESULT:      -6.6      0.000      0.000
REMARK  10 active torsions:
REMARK  status: ('A' for Active; 'I' for Inactive)
REMARK    1  A    between atoms: C_2  and  C_3 
REMARK    2  A    between atoms: C_3  and  C_4 
REMARK    3  A    between atoms: C_4  and  C_5 
REMARK    4  A    between atoms: C_4  and  C_8 
REMARK    5  A    between atoms: C_5  and  C_6 
REMARK       I    between atoms: C_8  and  N_10 
REMARK    6  A    between atoms: N_10  and  C_11 
REMARK    7  A    between atoms: C_19  and  N_14 
REMARK    8  A    between atoms: C_21  and  O_26 
REMARK    9  A    between atoms: C_22  and  C_24 
REMARK   10  A    between atoms: C_24  and  O_25 
ROOT
HETATM    1  C   UNK N   1      33.334  16.125   8.721  0.00  0.00     0.112 A 
HETATM    2  C   UNK N   1      33.001  14.899   9.286  0.00  0.00     0.066 A 
HETATM    3  C   UNK N   1      33.793  14.390  10.313  0.00  0.00     0.102 A 
HETATM    4  N   UNK N   1      34.875  15.085  10.766  0.00  0.00    -0.276 N 
HETATM    5  C   UNK N   1      35.185  16.308  10.199  0.00  0.00     0.330 A 
HETATM    6  O   UNK N   1      36.145  16.949  10.588  0.00  0.00    -0.246 OA
HETATM    7  N   UNK N   1      34.413  16.806   9.184  0.00  0.00    -0.294 N 
ATOM      8  HN  UNK N   1      34.653  17.706   8.769  1.00  0.00     0.172 HD
ENDROOT
BRANCH   4   9
HETATM    9  C   UNK N   1      35.738  14.545  11.830  0.00  0.00     0.307 C 
HETATM   10  C   UNK N   1      36.752  13.498  11.421  0.00  0.00     0.314 C 
HETATM   11  C   UNK N   1      37.201  13.122  12.798  0.00  0.00     0.226 C 
HETATM   12  F   UNK N   1      37.784  14.005  10.651  0.00  0.00    -0.198 F 
HETATM   13  F   UNK N   1      36.134  12.428  10.789  0.00  0.00    -0.198 F 
HETATM   14  C   UNK N   1      35.907  13.200  13.601  0.00  0.00     0.182 C 
HETATM   15  O   UNK N   1      34.977  13.955  12.854  0.00  0.00    -0.350 OA
BRANCH  11  16
HETATM   16  O   UNK N   1      37.766  11.845  12.836  0.00  0.00    -0.387 OA
HETATM   17  H   UNK N   1      37.453  11.065  12.352  0.00  0.00     0.210 HD
ENDBRANCH  11  16
BRANCH  14  18
HETATM   18  C   UNK N   1      36.152  13.900  14.931  0.00  0.00     0.199 C 
BRANCH  18  19
HETATM   19  O   UNK N   1      37.511  13.922  15.234  0.00  0.00    -0.398 OA
HETATM   20  H   UNK N   1      37.822  13.619  16.102  0.00  0.00     0.209 HD
ENDBRANCH  18  19
ENDBRANCH  14  18
ENDBRANCH   4   9
BRANCH   1  21
HETATM   21  N   UNK N   1      32.560  16.620   7.638  0.00  0.00    -0.313 N 
HETATM   22  C   UNK N   1      33.066  17.206   6.516  0.00  0.00     0.227 C 
HETATM   23  O   UNK N   1      34.273  17.336   6.368  0.00  0.00    -0.273 OA
HETATM   24  H   UNK N   1      31.582  16.533   7.702  0.00  0.00     0.170 HD
BRANCH  22  25
HETATM   25  C   UNK N   1      32.145  17.602   5.392  0.00  0.00     0.078 C 
BRANCH  25  26
HETATM   26  C   UNK N   1      30.934  16.686   5.301  0.00  0.00     0.013 C 
BRANCH  26  27
HETATM   27  C   UNK N   1      29.711  17.408   5.839  0.00  0.00    -0.004 C 
HETATM   28  C   UNK N   1      28.974  18.079   4.699  0.00  0.00     0.005 C 
ENDBRANCH  26  27
ENDBRANCH  25  26
BRANCH  25  29
HETATM   29  C   UNK N   1      32.876  17.682   4.056  0.00  0.00     0.013 C 
BRANCH  29  30
HETATM   30  C   UNK N   1      32.384  16.598   3.122  0.00  0.00    -0.004 C 
HETATM   31  C   UNK N   1      33.496  15.594   2.903  0.00  0.00     0.005 C 
ENDBRANCH  29  30
ENDBRANCH  25  29
ENDBRANCH  22  25
ENDBRANCH   1  21
TORSDOF 10
ENDMDL
MODEL 2
REMARK VINA RESULT:      -6.5      2.502      9.258
REMARK  10 active torsions:
REMARK  status: ('A' for Active; 'I' for Inactive)
REMARK    1  A    between atoms: C_2  and  C_3 
REMARK    2  A    between atoms: C_3  and  C_4 
REMARK    3  A    between atoms: C_4  and  C_5 
REMARK    4  A    between atoms: C_4  and  C_8 
REMARK    5  A    between atoms: C_5  and  C_6 
REMARK       I    between atoms: C_8  and  N_10 
REMARK    6  A    between atoms: N_10  and  C_11 
REMARK    7  A    between atoms: C_19  and  N_14 
REMARK    8  A    between atoms: C_21  and  O_26 
REMARK    9  A    between atoms: C_22  and  C_24 
REMARK   10  A    between atoms: C_24  and  O_25 
ROOT
HETATM    1  C   UNK N   1      35.381  14.876  11.801  0.00  0.00     0.112 A 
HETATM    2  C   UNK N   1      35.485  16.180  11.329  0.00  0.00     0.066 A 
HETATM    3  C   UNK N   1      34.841  16.525  10.143  0.00  0.00     0.102 A 
HETATM    4  N   UNK N   1      34.111  15.601   9.455  0.00  0.00    -0.276 N 
HETATM    5  C   UNK N   1      34.010  14.311   9.944  0.00  0.00     0.330 A 
HETATM    6  O   UNK N   1      33.363  13.468   9.349  0.00  0.00    -0.246 OA
HETATM    7  N   UNK N   1      34.649  13.968  11.106  0.00  0.00    -0.294 N 
ATOM      8  HN  UNK N   1      34.573  13.013  11.455  1.00  0.00     0.172 HD
ENDROOT
BRANCH   4   9
HETATM    9  C   UNK N   1      33.450  15.943   8.184  0.00  0.00     0.307 C 
HETATM   10  C   UNK N   1      34.305  16.608   7.128  0.00  0.00     0.314 C 
HETATM   11  C   UNK N   1      33.202  16.941   6.174  0.00  0.00     0.226 C 
HETATM   12  F   UNK N   1      35.247  15.762   6.570  0.00  0.00    -0.198 F 
HETATM   13  F   UNK N   1      34.900  17.761   7.623  0.00  0.00    -0.198 F 
HETATM   14  C   UNK N   1      32.056  17.311   7.108  0.00  0.00     0.182 C 
HETATM   15  O   UNK N   1      32.363  16.809   8.392  0.00  0.00    -0.350 OA
BRANCH  11  16
HETATM   16  O   UNK N   1      33.544  17.992   5.320  0.00  0.00    -0.387 OA
HETATM   17  H   UNK N   1      34.335  18.042   4.761  0.00  0.00     0.210 HD
ENDBRANCH  11  16
BRANCH  14  18
HETATM   18  C   UNK N   1      30.757  16.675   6.631  0.00  0.00     0.199 C 
BRANCH  18  19
HETATM   19  O   UNK N   1      30.572  16.895   5.268  0.00  0.00    -0.398 OA
HETATM   20  H   UNK N   1      29.724  17.233   4.940  0.00  0.00     0.209 HD
ENDBRANCH  18  19
ENDBRANCH  14  18
ENDBRANCH   4   9
BRANCH   1  21
HETATM   21  N   UNK N   1      36.081  14.509  12.980  0.00  0.00    -0.313 N 
HETATM   22  C   UNK N   1      35.644  13.608  13.903  0.00  0.00     0.227 C 
HETATM   23  O   UNK N   1      34.578  13.028  13.756  0.00  0.00    -0.273 OA
HETATM   24  H   UNK N   1      36.950  14.941  13.145  0.00  0.00     0.170 HD
BRANCH  22  25
HETATM   25  C   UNK N   1      36.526  13.232  15.066  0.00  0.00     0.078 C 
BRANCH  25  26
HETATM   26  C   UNK N   1      36.755  11.730  15.142  0.00  0.00     0.013 C 
BRANCH  26  27
HETATM   27  C   UNK N   1      37.971  11.360  14.312  0.00  0.00    -0.004 C 
HETATM   28  C   UNK N   1      38.398   9.945  14.637  0.00  0.00     0.005 C 
ENDBRANCH  26  27
ENDBRANCH  25  26
BRANCH  25  29
HETATM   29  C   UNK N   1      35.990  13.775  16.387  0.00  0.00     0.013 C 
BRANCH  29  30
HETATM   30  C   UNK N   1      35.221  12.700  17.124  0.00  0.00    -0.004 C 
HETATM   31  C   UNK N   1      35.172  13.049  18.596  0.00  0.00     0.005 C 
ENDBRANCH  29  30
ENDBRANCH  25  29
ENDBRANCH  22  25
ENDBRANCH   1  21
TORSDOF 10
ENDMDL
MODEL 3
REMARK VINA RESULT:      -6.4      2.569      9.163
REMARK  10 active torsions:
REMARK  status: ('A' for Active; 'I' for Inactive)
REMARK    1  A    between atoms: C_2  and  C_3 
REMARK    2  A    between atoms: C_3  and  C_4 
REMARK    3  A    between atoms: C_4  and  C_5 
REMARK    4  A    between atoms: C_4  and  C_8 
REMARK    5  A    between atoms: C_5  and  C_6 
REMARK       I    between atoms: C_8  and  N_10 
REMARK    6  A    between atoms: N_10  and  C_11 
REMARK    7  A    between atoms: C_19  and  N_14 
REMARK    8  A    between atoms: C_21  and  O_26 
REMARK    9  A    between atoms: C_22  and  C_24 
REMARK   10  A    between atoms: C_24  and  O_25 
ROOT
HETATM    1  C   UNK N   1      35.845  14.985  11.651  0.00  0.00     0.112 A 
HETATM    2  C   UNK N   1      35.186  14.051  10.858  0.00  0.00     0.066 A 
HETATM    3  C   UNK N   1      34.559  14.478   9.689  0.00  0.00     0.102 A 
HETATM    4  N   UNK N   1      34.595  15.791   9.320  0.00  0.00    -0.276 N 
HETATM    5  C   UNK N   1      35.263  16.704  10.116  0.00  0.00     0.330 A 
HETATM    6  O   UNK N   1      35.311  17.881   9.808  0.00  0.00    -0.246 OA
HETATM    7  N   UNK N   1      35.874  16.288  11.269  0.00  0.00    -0.294 N 
ATOM      8  HN  UNK N   1      36.359  16.970  11.852  1.00  0.00     0.172 HD
ENDROOT
BRANCH   4   9
HETATM    9  C   UNK N   1      33.911  16.261   8.103  0.00  0.00     0.307 C 
HETATM   10  C   UNK N   1      32.472  16.702   8.258  0.00  0.00     0.314 C 
HETATM   11  C   UNK N   1      32.168  16.864   6.802  0.00  0.00     0.226 C 
HETATM   12  F   UNK N   1      32.332  17.886   8.960  0.00  0.00    -0.198 F 
HETATM   13  F   UNK N   1      31.700  15.694   8.818  0.00  0.00    -0.198 F 
HETATM   14  C   UNK N   1      32.943  15.713   6.171  0.00  0.00     0.182 C 
HETATM   15  O   UNK N   1      33.898  15.267   7.110  0.00  0.00    -0.350 OA
BRANCH  11  16
HETATM   16  O   UNK N   1      30.798  16.781   6.539  0.00  0.00    -0.387 OA
HETATM   17  H   UNK N   1      30.386  16.335   5.783  0.00  0.00     0.210 HD
ENDBRANCH  11  16
BRANCH  14  18
HETATM   18  C   UNK N   1      33.670  16.188   4.920  0.00  0.00     0.199 C 
BRANCH  18  19
HETATM   19  O   UNK N   1      33.134  17.390   4.465  0.00  0.00    -0.398 OA
HETATM   20  H   UNK N   1      33.629  17.938   3.835  0.00  0.00     0.209 HD
ENDBRANCH  18  19
ENDBRANCH  14  18
ENDBRANCH   4   9
BRANCH   1  21
HETATM   21  N   UNK N   1      36.438  14.561  12.869  0.00  0.00    -0.313 N 
HETATM   22  C   UNK N   1      35.825  13.793  13.813  0.00  0.00     0.227 C 
HETATM   23  O   UNK N   1      34.680  13.397  13.652  0.00  0.00    -0.273 OA
HETATM   24  H   UNK N   1      37.363  14.846  13.047  0.00  0.00     0.170 HD
BRANCH  22  25
HETATM   25  C   UNK N   1      36.595  13.328  15.022  0.00  0.00     0.078 C 
BRANCH  25  26
HETATM   26  C   UNK N   1      36.712  11.812  15.072  0.00  0.00     0.013 C 
BRANCH  26  27
HETATM   27  C   UNK N   1      37.864  11.364  14.191  0.00  0.00    -0.004 C 
HETATM   28  C   UNK N   1      38.404  10.041  14.693  0.00  0.00     0.005 C 
ENDBRANCH  26  27
ENDBRANCH  25  26
BRANCH  25  29
HETATM   29  C   UNK N   1      36.009  13.878  16.319  0.00  0.00     0.013 C 
BRANCH  29  30
HETATM   30  C   UNK N   1      35.087  12.859  16.952  0.00  0.00    -0.004 C 
HETATM   31  C   UNK N   1      35.211  12.951  18.457  0.00  0.00     0.005 C 
ENDBRANCH  29  30
ENDBRANCH  25  29
ENDBRANCH  22  25
ENDBRANCH   1  21
TORSDOF 10
ENDMDL
MODEL 4
REMARK VINA RESULT:      -6.1      2.822      4.756
REMARK  10 active torsions:
REMARK  status: ('A' for Active; 'I' for Inactive)
REMARK    1  A    between atoms: C_2  and  C_3 
REMARK    2  A    between atoms: C_3  and  C_4 
REMARK    3  A    between atoms: C_4  and  C_5 
REMARK    4  A    between atoms: C_4  and  C_8 
REMARK    5  A    between atoms: C_5  and  C_6 
REMARK       I    between atoms: C_8  and  N_10 
REMARK    6  A    between atoms: N_10  and  C_11 
REMARK    7  A    between atoms: C_19  and  N_14 
REMARK    8  A    between atoms: C_21  and  O_26 
REMARK    9  A    between atoms: C_22  and  C_24 
REMARK   10  A    between atoms: C_24  and  O_25 
ROOT
HETATM    1  C   UNK N   1      31.007  17.027   5.982  0.00  0.00     0.112 A 
HETATM    2  C   UNK N   1      30.852  16.072   6.982  0.00  0.00     0.066 A 
HETATM    3  C   UNK N   1      31.955  15.717   7.755  0.00  0.00     0.102 A 
HETATM    4  N   UNK N   1      33.169  16.302   7.545  0.00  0.00    -0.276 N 
HETATM    5  C   UNK N   1      33.302  17.256   6.553  0.00  0.00     0.330 A 
HETATM    6  O   UNK N   1      34.375  17.794   6.347  0.00  0.00    -0.246 OA
HETATM    7  N   UNK N   1      32.221  17.601   5.786  0.00  0.00    -0.294 N 
ATOM      8  HN  UNK N   1      32.331  18.302   5.054  1.00  0.00     0.172 HD
ENDROOT
BRANCH   4   9
HETATM    9  C   UNK N   1      34.350  15.914   8.335  0.00  0.00     0.307 C 
HETATM   10  C   UNK N   1      35.165  14.749   7.817  0.00  0.00     0.314 C 
HETATM   11  C   UNK N   1      36.065  14.606   9.004  0.00  0.00     0.226 C 
HETATM   12  F   UNK N   1      35.864  15.039   6.659  0.00  0.00    -0.198 F 
HETATM   13  F   UNK N   1      34.373  13.621   7.654  0.00  0.00    -0.198 F 
HETATM   14  C   UNK N   1      35.128  14.910  10.168  0.00  0.00     0.182 C 
HETATM   15  O   UNK N   1      33.993  15.571   9.650  0.00  0.00    -0.350 OA
BRANCH  11  16
HETATM   16  O   UNK N   1      36.615  13.325   9.094  0.00  0.00    -0.387 OA
HETATM   17  H   UNK N   1      37.210  13.005   9.790  0.00  0.00     0.210 HD
ENDBRANCH  11  16
BRANCH  14  18
HETATM   18  C   UNK N   1      35.814  15.828  11.172  0.00  0.00     0.199 C 
BRANCH  18  19
HETATM   19  O   UNK N   1      37.154  16.010  10.838  0.00  0.00    -0.398 OA
HETATM   20  H   UNK N   1      37.688  15.257  10.536  0.00  0.00     0.209 HD
ENDBRANCH  18  19
ENDBRANCH  14  18
ENDBRANCH   4   9
BRANCH   1  21
HETATM   21  N   UNK N   1      29.897  17.350   5.157  0.00  0.00    -0.313 N 
HETATM   22  C   UNK N   1      28.809  18.068   5.552  0.00  0.00     0.227 C 
HETATM   23  O   UNK N   1      28.727  18.505   6.692  0.00  0.00    -0.273 OA
HETATM   24  H   UNK N   1      29.915  17.030   4.227  0.00  0.00     0.170 HD
BRANCH  22  25
HETATM   25  C   UNK N   1      27.741  18.428   4.553  0.00  0.00     0.078 C 
BRANCH  25  26
HETATM   26  C   UNK N   1      27.641  19.932   4.345  0.00  0.00     0.013 C 
BRANCH  26  27
HETATM   27  C   UNK N   1      26.551  20.495   5.238  0.00  0.00    -0.004 C 
HETATM   28  C   UNK N   1      27.119  21.603   6.100  0.00  0.00     0.005 C 
ENDBRANCH  26  27
ENDBRANCH  25  26
BRANCH  25  29
HETATM   29  C   UNK N   1      26.386  17.833   4.928  0.00  0.00     0.013 C 
BRANCH  29  30
HETATM   30  C   UNK N   1      25.638  17.408   3.684  0.00  0.00    -0.004 C 
HETATM   31  C   UNK N   1      24.157  17.636   3.897  0.00  0.00     0.005 C 
ENDBRANCH  29  30
ENDBRANCH  25  29
ENDBRANCH  22  25
ENDBRANCH   1  21
TORSDOF 10
ENDMDL
MODEL 5
REMARK VINA RESULT:      -6.0      3.715      8.496
REMARK  10 active torsions:
REMARK  status: ('A' for Active; 'I' for Inactive)
REMARK    1  A    between atoms: C_2  and  C_3 
REMARK    2  A    between atoms: C_3  and  C_4 
REMARK    3  A    between atoms: C_4  and  C_5 
REMARK    4  A    between atoms: C_4  and  C_8 
REMARK    5  A    between atoms: C_5  and  C_6 
REMARK       I    between atoms: C_8  and  N_10 
REMARK    6  A    between atoms: N_10  and  C_11 
REMARK    7  A    between atoms: C_19  and  N_14 
REMARK    8  A    between atoms: C_21  and  O_26 
REMARK    9  A    between atoms: C_22  and  C_24 
REMARK   10  A    between atoms: C_24  and  O_25 
ROOT
HETATM    1  C   UNK N   1      34.123  15.381   8.654  0.00  0.00     0.112 A 
HETATM    2  C   UNK N   1      32.933  14.667   8.558  0.00  0.00     0.066 A 
HETATM    3  C   UNK N   1      31.747  15.359   8.322  0.00  0.00     0.102 A 
HETATM    4  N   UNK N   1      31.749  16.715   8.179  0.00  0.00    -0.276 N 
HETATM    5  C   UNK N   1      32.943  17.407   8.269  0.00  0.00     0.330 A 
HETATM    6  O   UNK N   1      32.972  18.618   8.144  0.00  0.00    -0.246 OA
HETATM    7  N   UNK N   1      34.110  16.730   8.508  0.00  0.00    -0.294 N 
ATOM      8  HN  UNK N   1      34.984  17.250   8.578  1.00  0.00     0.172 HD
ENDROOT
BRANCH   4   9
HETATM    9  C   UNK N   1      30.498  17.462   7.961  0.00  0.00     0.307 C 
HETATM   10  C   UNK N   1      29.733  17.887   9.195  0.00  0.00     0.314 C 
HETATM   11  C   UNK N   1      28.506  18.380   8.495  0.00  0.00     0.226 C 
HETATM   12  F   UNK N   1      30.364  18.884   9.916  0.00  0.00    -0.198 F 
HETATM   13  F   UNK N   1      29.442  16.795  10.000  0.00  0.00    -0.198 F 
HETATM   14  C   UNK N   1      28.355  17.385   7.350  0.00  0.00     0.182 C 
HETATM   15  O   UNK N   1      29.590  16.719   7.189  0.00  0.00    -0.350 OA
BRANCH  11  16
HETATM   16  O   UNK N   1      27.389  18.387   9.334  0.00  0.00    -0.387 OA
HETATM   17  H   UNK N   1      27.063  17.640   9.859  0.00  0.00     0.210 HD
ENDBRANCH  11  16
BRANCH  14  18
HETATM   18  C   UNK N   1      28.020  18.115   6.056  0.00  0.00     0.199 C 
BRANCH  18  19
HETATM   19  O   UNK N   1      27.049  19.089   6.277  0.00  0.00    -0.398 OA
HETATM   20  H   UNK N   1      26.800  19.332   7.183  0.00  0.00     0.209 HD
ENDBRANCH  18  19
ENDBRANCH  14  18
ENDBRANCH   4   9
BRANCH   1  21
HETATM   21  N   UNK N   1      35.325  14.684   8.948  0.00  0.00    -0.313 N 
HETATM   22  C   UNK N   1      36.255  15.076   9.863  0.00  0.00     0.227 C 
HETATM   23  O   UNK N   1      36.095  16.094  10.521  0.00  0.00    -0.273 OA
HETATM   24  H   UNK N   1      35.500  13.852   8.452  0.00  0.00     0.170 HD
BRANCH  22  25
HETATM   25  C   UNK N   1      37.444  14.197  10.153  0.00  0.00     0.078 C 
BRANCH  25  26
HETATM   26  C   UNK N   1      37.760  13.268   8.992  0.00  0.00     0.013 C 
BRANCH  26  27
HETATM   27  C   UNK N   1      39.038  12.504   9.288  0.00  0.00    -0.004 C 
HETATM   28  C   UNK N   1      39.000  11.159   8.593  0.00  0.00     0.005 C 
ENDBRANCH  26  27
ENDBRANCH  25  26
BRANCH  25  29
HETATM   29  C   UNK N   1      37.272  13.416  11.453  0.00  0.00     0.013 C 
BRANCH  29  30
HETATM   30  C   UNK N   1      36.013  12.579  11.400  0.00  0.00    -0.004 C 
HETATM   31  C   UNK N   1      35.140  12.926  12.587  0.00  0.00     0.005 C 
ENDBRANCH  29  30
ENDBRANCH  25  29
ENDBRANCH  22  25
ENDBRANCH   1  21
TORSDOF 10
ENDMDL
MODEL 6
REMARK VINA RESULT:      -5.9      1.178      2.304
REMARK  10 active torsions:
REMARK  status: ('A' for Active; 'I' for Inactive)
REMARK    1  A    between atoms: C_2  and  C_3 
REMARK    2  A    between atoms: C_3  and  C_4 
REMARK    3  A    between atoms: C_4  and  C_5 
REMARK    4  A    between atoms: C_4  and  C_8 
REMARK    5  A    between atoms: C_5  and  C_6 
REMARK       I    between atoms: C_8  and  N_10 
REMARK    6  A    between atoms: N_10  and  C_11 
REMARK    7  A    between atoms: C_19  and  N_14 
REMARK    8  A    between atoms: C_21  and  O_26 
REMARK    9  A    between atoms: C_22  and  C_24 
REMARK   10  A    between atoms: C_24  and  O_25 
ROOT
HETATM    1  C   UNK N   1      33.133  15.253   8.704  0.00  0.00     0.112 A 
HETATM    2  C   UNK N   1      33.301  13.911   9.027  0.00  0.00     0.066 A 
HETATM    3  C   UNK N   1      34.127  13.570  10.095  0.00  0.00     0.102 A 
HETATM    4  N   UNK N   1      34.759  14.536  10.821  0.00  0.00    -0.276 N 
HETATM    5  C   UNK N   1      34.573  15.866  10.492  0.00  0.00     0.330 A 
HETATM    6  O   UNK N   1      35.125  16.748  11.126  0.00  0.00    -0.246 OA
HETATM    7  N   UNK N   1      33.767  16.204   9.438  0.00  0.00    -0.294 N 
ATOM      8  HN  UNK N   1      33.641  17.187   9.200  1.00  0.00     0.172 HD
ENDROOT
BRANCH   4   9
HETATM    9  C   UNK N   1      35.660  14.188  11.934  0.00  0.00     0.307 C 
HETATM   10  C   UNK N   1      36.759  13.192  11.635  0.00  0.00     0.314 C 
HETATM   11  C   UNK N   1      37.232  13.006  13.043  0.00  0.00     0.226 C 
HETATM   12  F   UNK N   1      37.748  13.696  10.810  0.00  0.00    -0.198 F 
HETATM   13  F   UNK N   1      36.236  12.012  11.126  0.00  0.00    -0.198 F 
HETATM   14  C   UNK N   1      35.933  13.062  13.839  0.00  0.00     0.182 C 
HETATM   15  O   UNK N   1      34.946  13.652  13.019  0.00  0.00    -0.350 OA
BRANCH  11  16
HETATM   16  O   UNK N   1      37.902  11.793  13.216  0.00  0.00    -0.387 OA
HETATM   17  H   UNK N   1      37.531  10.983  13.600  0.00  0.00     0.210 HD
ENDBRANCH  11  16
BRANCH  14  18
HETATM   18  C   UNK N   1      36.113  13.921  15.084  0.00  0.00     0.199 C 
BRANCH  18  19
HETATM   19  O   UNK N   1      37.457  14.226  15.282  0.00  0.00    -0.398 OA
HETATM   20  H   UNK N   1      38.001  13.673  15.866  0.00  0.00     0.209 HD
ENDBRANCH  18  19
ENDBRANCH  14  18
ENDBRANCH   4   9
BRANCH   1  21
HETATM   21  N   UNK N   1      32.334  15.600   7.582  0.00  0.00    -0.313 N 
HETATM   22  C   UNK N   1      31.233  16.401   7.622  0.00  0.00     0.227 C 
HETATM   23  O   UNK N   1      30.858  16.898   8.674  0.00  0.00    -0.273 OA
HETATM   24  H   UNK N   1      32.596  15.233   6.708  0.00  0.00     0.170 HD
BRANCH  22  25
HETATM   25  C   UNK N   1      30.526  16.773   6.345  0.00  0.00     0.078 C 
BRANCH  25  26
HETATM   26  C   UNK N   1      31.486  17.333   5.306  0.00  0.00     0.013 C 
BRANCH  26  27
HETATM   27  C   UNK N   1      31.538  16.400   4.110  0.00  0.00    -0.004 C 
HETATM   28  C   UNK N   1      32.376  17.023   3.014  0.00  0.00     0.005 C 
ENDBRANCH  26  27
ENDBRANCH  25  26
BRANCH  25  29
HETATM   29  C   UNK N   1      29.364  17.731   6.594  0.00  0.00     0.013 C 
BRANCH  29  30
HETATM   30  C   UNK N   1      28.394  17.692   5.434  0.00  0.00    -0.004 C 
HETATM   31  C   UNK N   1      28.252  19.087   4.863  0.00  0.00     0.005 C 
ENDBRANCH  29  30
ENDBRANCH  25  29
ENDBRANCH  22  25
ENDBRANCH   1  21
TORSDOF 10
ENDMDL
MODEL 7
REMARK VINA RESULT:      -5.8      8.679     13.300
REMARK  10 active torsions:
REMARK  status: ('A' for Active; 'I' for Inactive)
REMARK    1  A    between atoms: C_2  and  C_3 
REMARK    2  A    between atoms: C_3  and  C_4 
REMARK    3  A    between atoms: C_4  and  C_5 
REMARK    4  A    between atoms: C_4  and  C_8 
REMARK    5  A    between atoms: C_5  and  C_6 
REMARK       I    between atoms: C_8  and  N_10 
REMARK    6  A    between atoms: N_10  and  C_11 
REMARK    7  A    between atoms: C_19  and  N_14 
REMARK    8  A    between atoms: C_21  and  O_26 
REMARK    9  A    between atoms: C_22  and  C_24 
REMARK   10  A    between atoms: C_24  and  O_25 
ROOT
HETATM    1  C   UNK N   1      26.100  16.968   5.426  0.00  0.00     0.112 A 
HETATM    2  C   UNK N   1      25.362  15.805   5.233  0.00  0.00     0.066 A 
HETATM    3  C   UNK N   1      24.093  15.895   4.665  0.00  0.00     0.102 A 
HETATM    4  N   UNK N   1      23.582  17.104   4.295  0.00  0.00    -0.276 N 
HETATM    5  C   UNK N   1      24.333  18.249   4.487  0.00  0.00     0.330 A 
HETATM    6  O   UNK N   1      23.899  19.340   4.164  0.00  0.00    -0.246 OA
HETATM    7  N   UNK N   1      25.578  18.163   5.052  0.00  0.00    -0.294 N 
ATOM      8  HN  UNK N   1      26.122  19.014   5.193  1.00  0.00     0.172 HD
ENDROOT
BRANCH   4   9
HETATM    9  C   UNK N   1      22.229  17.218   3.722  0.00  0.00     0.307 C 
HETATM   10  C   UNK N   1      21.074  17.245   4.700  0.00  0.00     0.314 C 
HETATM   11  C   UNK N   1      19.972  17.147   3.692  0.00  0.00     0.226 C 
HETATM   12  F   UNK N   1      21.008  18.413   5.439  0.00  0.00    -0.198 F 
HETATM   13  F   UNK N   1      21.095  16.130   5.526  0.00  0.00    -0.198 F 
HETATM   14  C   UNK N   1      20.559  16.200   2.651  0.00  0.00     0.182 C 
HETATM   15  O   UNK N   1      21.957  16.155   2.844  0.00  0.00    -0.350 OA
BRANCH  11  16
HETATM   16  O   UNK N   1      18.793  16.648   4.250  0.00  0.00    -0.387 OA
HETATM   17  H   UNK N   1      18.729  15.977   4.948  0.00  0.00     0.210 HD
ENDBRANCH  11  16
BRANCH  14  18
HETATM   18  C   UNK N   1      20.275  16.717   1.247  0.00  0.00     0.199 C 
BRANCH  18  19
HETATM   19  O   UNK N   1      19.093  17.454   1.223  0.00  0.00    -0.398 OA
HETATM   20  H   UNK N   1      19.124  18.422   1.163  0.00  0.00     0.209 HD
ENDBRANCH  18  19
ENDBRANCH  14  18
ENDBRANCH   4   9
BRANCH   1  21
HETATM   21  N   UNK N   1      27.371  16.883   6.055  0.00  0.00    -0.313 N 
HETATM   22  C   UNK N   1      28.496  17.526   5.636  0.00  0.00     0.227 C 
HETATM   23  O   UNK N   1      28.473  18.255   4.654  0.00  0.00    -0.273 OA
HETATM   24  H   UNK N   1      27.444  16.316   6.855  0.00  0.00     0.170 HD
BRANCH  22  25
HETATM   25  C   UNK N   1      29.763  17.432   6.446  0.00  0.00     0.078 C 
BRANCH  25  26
HETATM   26  C   UNK N   1      30.772  16.485   5.815  0.00  0.00     0.013 C 
BRANCH  26  27
HETATM   27  C   UNK N   1      32.062  17.233   5.533  0.00  0.00    -0.004 C 
HETATM   28  C   UNK N   1      32.103  17.648   4.078  0.00  0.00     0.005 C 
ENDBRANCH  26  27
ENDBRANCH  25  26
BRANCH  25  29
HETATM   29  C   UNK N   1      29.486  17.054   7.898  0.00  0.00     0.013 C 
BRANCH  29  30
HETATM   30  C   UNK N   1      30.516  17.682   8.810  0.00  0.00    -0.004 C 
HETATM   31  C   UNK N   1      29.864  18.802   9.592  0.00  0.00     0.005 C 
ENDBRANCH  29  30
ENDBRANCH  25  29
ENDBRANCH  22  25
ENDBRANCH   1  21
TORSDOF 10
ENDMDL
MODEL 8
REMARK VINA RESULT:      -5.7      6.900     10.222
REMARK  10 active torsions:
REMARK  status: ('A' for Active; 'I' for Inactive)
REMARK    1  A    between atoms: C_2  and  C_3 
REMARK    2  A    between atoms: C_3  and  C_4 
REMARK    3  A    between atoms: C_4  and  C_5 
REMARK    4  A    between atoms: C_4  and  C_8 
REMARK    5  A    between atoms: C_5  and  C_6 
REMARK       I    between atoms: C_8  and  N_10 
REMARK    6  A    between atoms: N_10  and  C_11 
REMARK    7  A    between atoms: C_19  and  N_14 
REMARK    8  A    between atoms: C_21  and  O_26 
REMARK    9  A    between atoms: C_22  and  C_24 
REMARK   10  A    between atoms: C_24  and  O_25 
ROOT
HETATM    1  C   UNK N   1      24.853  17.758   4.872  0.00  0.00     0.112 A 
HETATM    2  C   UNK N   1      25.941  18.612   4.730  0.00  0.00     0.066 A 
HETATM    3  C   UNK N   1      27.119  18.326   5.417  0.00  0.00     0.102 A 
HETATM    4  N   UNK N   1      27.210  17.222   6.212  0.00  0.00    -0.276 N 
HETATM    5  C   UNK N   1      26.120  16.379   6.334  0.00  0.00     0.330 A 
HETATM    6  O   UNK N   1      26.176  15.386   7.037  0.00  0.00    -0.246 OA
HETATM    7  N   UNK N   1      24.959  16.662   5.665  0.00  0.00    -0.294 N 
ATOM      8  HN  UNK N   1      24.159  16.037   5.766  1.00  0.00     0.172 HD
ENDROOT
BRANCH   4   9
HETATM    9  C   UNK N   1      28.438  16.925   6.969  0.00  0.00     0.307 C 
HETATM   10  C   UNK N   1      28.601  17.617   8.304  0.00  0.00     0.314 C 
HETATM   11  C   UNK N   1      30.014  17.196   8.563  0.00  0.00     0.226 C 
HETATM   12  F   UNK N   1      27.729  17.155   9.273  0.00  0.00    -0.198 F 
HETATM   13  F   UNK N   1      28.510  18.995   8.165  0.00  0.00    -0.198 F 
HETATM   14  C   UNK N   1      30.635  17.248   7.172  0.00  0.00     0.182 C 
HETATM   15  O   UNK N   1      29.585  17.256   6.227  0.00  0.00    -0.350 OA
BRANCH  11  16
HETATM   16  O   UNK N   1      30.661  18.051   9.459  0.00  0.00    -0.387 OA
HETATM   17  H   UNK N   1      30.235  18.701  10.039  0.00  0.00     0.210 HD
ENDBRANCH  11  16
BRANCH  14  18
HETATM   18  C   UNK N   1      31.500  16.018   6.933  0.00  0.00     0.199 C 
BRANCH  18  19
HETATM   19  O   UNK N   1      31.872  15.435   8.142  0.00  0.00    -0.398 OA
HETATM   20  H   UNK N   1      31.300  15.521   8.921  0.00  0.00     0.209 HD
ENDBRANCH  18  19
ENDBRANCH  14  18
ENDBRANCH   4   9
BRANCH   1  21
HETATM   21  N   UNK N   1      23.634  18.077   4.215  0.00  0.00    -0.313 N 
HETATM   22  C   UNK N   1      22.435  18.259   4.835  0.00  0.00     0.227 C 
HETATM   23  O   UNK N   1      22.336  18.163   6.050  0.00  0.00    -0.273 OA
HETATM   24  H   UNK N   1      23.658  18.174   3.236  0.00  0.00     0.170 HD
BRANCH  22  25
HETATM   25  C   UNK N   1      21.232  18.690   4.036  0.00  0.00     0.078 C 
BRANCH  25  26
HETATM   26  C   UNK N   1      20.285  17.531   3.765  0.00  0.00     0.013 C 
BRANCH  26  27
HETATM   27  C   UNK N   1      20.532  16.993   2.367  0.00  0.00    -0.004 C 
HETATM   28  C   UNK N   1      21.224  15.648   2.454  0.00  0.00     0.005 C 
ENDBRANCH  26  27
ENDBRANCH  25  26
BRANCH  25  29
HETATM   29  C   UNK N   1      21.629  19.392   2.740  0.00  0.00     0.013 C 
BRANCH  29  30
HETATM   30  C   UNK N   1      20.855  20.682   2.583  0.00  0.00    -0.004 C 
HETATM   31  C   UNK N   1      20.613  20.935   1.111  0.00  0.00     0.005 C 
ENDBRANCH  29  30
ENDBRANCH  25  29
ENDBRANCH  22  25
ENDBRANCH   1  21
TORSDOF 10
ENDMDL
MODEL 9
REMARK VINA RESULT:      -5.7      8.742     13.319
REMARK  10 active torsions:
REMARK  status: ('A' for Active; 'I' for Inactive)
REMARK    1  A    between atoms: C_2  and  C_3 
REMARK    2  A    between atoms: C_3  and  C_4 
REMARK    3  A    between atoms: C_4  and  C_5 
REMARK    4  A    between atoms: C_4  and  C_8 
REMARK    5  A    between atoms: C_5  and  C_6 
REMARK       I    between atoms: C_8  and  N_10 
REMARK    6  A    between atoms: N_10  and  C_11 
REMARK    7  A    between atoms: C_19  and  N_14 
REMARK    8  A    between atoms: C_21  and  O_26 
REMARK    9  A    between atoms: C_22  and  C_24 
REMARK   10  A    between atoms: C_24  and  O_25 
ROOT
HETATM    1  C   UNK N   1      25.889  16.869   5.768  0.00  0.00     0.112 A 
HETATM    2  C   UNK N   1      25.099  15.741   5.570  0.00  0.00     0.066 A 
HETATM    3  C   UNK N   1      23.917  15.862   4.843  0.00  0.00     0.102 A 
HETATM    4  N   UNK N   1      23.539  17.066   4.325  0.00  0.00    -0.276 N 
HETATM    5  C   UNK N   1      24.342  18.175   4.524  0.00  0.00     0.330 A 
HETATM    6  O   UNK N   1      24.027  19.260   4.070  0.00  0.00    -0.246 OA
HETATM    7  N   UNK N   1      25.501  18.060   5.245  0.00  0.00    -0.294 N 
ATOM      8  HN  UNK N   1      26.082  18.885   5.390  1.00  0.00     0.172 HD
ENDROOT
BRANCH   4   9
HETATM    9  C   UNK N   1      22.277  17.214   3.581  0.00  0.00     0.307 C 
HETATM   10  C   UNK N   1      21.043  17.551   4.391  0.00  0.00     0.314 C 
HETATM   11  C   UNK N   1      20.044  17.383   3.290  0.00  0.00     0.226 C 
HETATM   12  F   UNK N   1      21.055  18.837   4.900  0.00  0.00    -0.198 F 
HETATM   13  F   UNK N   1      20.838  16.616   5.397  0.00  0.00    -0.198 F 
HETATM   14  C   UNK N   1      20.605  16.199   2.511  0.00  0.00     0.182 C 
HETATM   15  O   UNK N   1      21.959  16.040   2.877  0.00  0.00    -0.350 OA
BRANCH  11  16
HETATM   16  O   UNK N   1      18.760  17.129   3.780  0.00  0.00    -0.387 OA
HETATM   17  H   UNK N   1      18.086  16.573   3.359  0.00  0.00     0.210 HD
ENDBRANCH  11  16
BRANCH  14  18
HETATM   18  C   UNK N   1      20.530  16.468   1.014  0.00  0.00     0.199 C 
BRANCH  18  19
HETATM   19  O   UNK N   1      19.796  17.623   0.757  0.00  0.00    -0.398 OA
HETATM   20  H   UNK N   1      20.088  18.244   0.071  0.00  0.00     0.209 HD
ENDBRANCH  18  19
ENDBRANCH  14  18
ENDBRANCH   4   9
BRANCH   1  21
HETATM   21  N   UNK N   1      27.066  16.759   6.555  0.00  0.00    -0.313 N 
HETATM   22  C   UNK N   1      28.282  17.274   6.221  0.00  0.00     0.227 C 
HETATM   23  O   UNK N   1      28.434  17.898   5.181  0.00  0.00    -0.273 OA
HETATM   24  H   UNK N   1      26.999  16.272   7.407  0.00  0.00     0.170 HD
BRANCH  22  25
HETATM   25  C   UNK N   1      29.434  17.174   7.187  0.00  0.00     0.078 C 
BRANCH  25  26
HETATM   26  C   UNK N   1      29.438  18.321   8.186  0.00  0.00     0.013 C 
BRANCH  26  27
HETATM   27  C   UNK N   1      28.498  17.997   9.333  0.00  0.00    -0.004 C 
HETATM   28  C   UNK N   1      29.178  17.050  10.298  0.00  0.00     0.005 C 
ENDBRANCH  26  27
ENDBRANCH  25  26
BRANCH  25  29
HETATM   29  C   UNK N   1      30.775  17.066   6.468  0.00  0.00     0.013 C 
BRANCH  29  30
HETATM   30  C   UNK N   1      31.912  17.124   7.464  0.00  0.00    -0.004 C 
HETATM   31  C   UNK N   1      32.098  15.755   8.081  0.00  0.00     0.005 C 
ENDBRANCH  29  30
ENDBRANCH  25  29
ENDBRANCH  22  25
ENDBRANCH   1  21
TORSDOF 10
ENDMDL
