MODEL 1
REMARK VINA RESULT:      -5.2      0.000      0.000
REMARK  8 active torsions:
REMARK  status: ('A' for Active; 'I' for Inactive)
REMARK    1  A    between atoms: C_3  and  C_2 
REMARK    2  A    between atoms: C_7  and  C_3 
REMARK    3  A    between atoms: O_16  and  C_7 
REMARK    4  A    between atoms: C_9  and  C_8 
REMARK    5  A    between atoms: O_16  and  C_8 
REMARK    6  A    between atoms: O_17  and  C_9 
REMARK    7  A    between atoms: C_12  and  C_11 
REMARK    8  A    between atoms: O_17  and  C_12 
ROOT
HETATM    1  C   UNK N   1      34.529  18.189   8.513  0.00  0.00     0.294 C 
HETATM    2  O   UNK N   1      35.322  19.081   8.261  0.00  0.00    -0.259 OA
ENDROOT
BRANCH   1   3
HETATM    3  C   UNK N   1      33.487  17.794   7.573  0.00  0.00     0.054 A 
HETATM    4  C   UNK N   1      33.761  17.538   6.228  0.00  0.00     0.020 A 
HETATM    5  C   UNK N   1      32.716  17.164   5.382  0.00  0.00     0.018 A 
HETATM    6  C   UNK N   1      31.419  17.053   5.894  0.00  0.00     0.087 A 
HETATM    7  N   UNK N   1      31.176  17.308   7.207  0.00  0.00    -0.374 N 
HETATM    8  C   UNK N   1      32.177  17.672   8.044  0.00  0.00     0.105 A 
ATOM      9  HN  UNK N   1      30.226  17.224   7.567  1.00  0.00     0.164 HD
ENDBRANCH   1   3
BRANCH   1  10
HETATM   10  O   UNK N   1      34.573  17.515   9.681  0.00  0.00    -0.315 OA
BRANCH  10  11
HETATM   11  C   UNK N   1      35.044  16.253   9.795  0.00  0.00     0.205 C 
BRANCH  11  12
HETATM   12  C   UNK N   1      35.317  15.996  11.249  0.00  0.00     0.194 C 
BRANCH  12  13
HETATM   13  O   UNK N   1      34.451  14.980  11.570  0.00  0.00    -0.389 OA
BRANCH  13  14
HETATM   14  C   UNK N   1      35.175  13.917  12.074  0.00  0.00     0.167 C 
BRANCH  14  15
HETATM   15  C   UNK N   1      36.095  14.607  13.036  0.00  0.00     0.026 C 
BRANCH  15  16
HETATM   16  C   UNK N   1      36.497  13.798  14.226  0.00  0.00    -0.002 C 
HETATM   17  C   UNK N   1      35.225  13.117  14.682  0.00  0.00     0.005 C 
ENDBRANCH  15  16
ENDBRANCH  14  15
ENDBRANCH  13  14
ENDBRANCH  12  13
ENDBRANCH  11  12
ENDBRANCH  10  11
ENDBRANCH   1  10
TORSDOF 8
ENDMDL
MODEL 2
REMARK VINA RESULT:      -5.0     12.541     14.860
REMARK  8 active torsions:
REMARK  status: ('A' for Active; 'I' for Inactive)
REMARK    1  A    between atoms: C_3  and  C_2 
REMARK    2  A    between atoms: C_7  and  C_3 
REMARK    3  A    between atoms: O_16  and  C_7 
REMARK    4  A    between atoms: C_9  and  C_8 
REMARK    5  A    between atoms: O_16  and  C_8 
REMARK    6  A    between atoms: O_17  and  C_9 
REMARK    7  A    between atoms: C_12  and  C_11 
REMARK    8  A    between atoms: O_17  and  C_12 
ROOT
HETATM    1  C   UNK N   1      21.133  13.954   8.495  0.00  0.00     0.294 C 
HETATM    2  O   UNK N   1      20.338  13.401   7.754  0.00  0.00    -0.259 OA
ENDROOT
BRANCH   1   3
HETATM    3  C   UNK N   1      21.844  13.230   9.542  0.00  0.00     0.054 A 
HETATM    4  C   UNK N   1      23.238  13.153   9.574  0.00  0.00     0.020 A 
HETATM    5  C   UNK N   1      23.854  12.444  10.605  0.00  0.00     0.018 A 
HETATM    6  C   UNK N   1      23.069  11.825  11.584  0.00  0.00     0.087 A 
HETATM    7  N   UNK N   1      21.713  11.914  11.532  0.00  0.00    -0.374 N 
HETATM    8  C   UNK N   1      21.097  12.598  10.539  0.00  0.00     0.105 A 
ATOM      9  HN  UNK N   1      21.153  11.458  12.252  1.00  0.00     0.164 HD
ENDBRANCH   1   3
BRANCH   1  10
HETATM   10  O   UNK N   1      21.400  15.272   8.386  0.00  0.00    -0.315 OA
BRANCH  10  11
HETATM   11  C   UNK N   1      20.884  16.059   7.416  0.00  0.00     0.205 C 
BRANCH  11  12
HETATM   12  C   UNK N   1      20.057  17.122   8.080  0.00  0.00     0.194 C 
BRANCH  12  13
HETATM   13  O   UNK N   1      18.863  16.494   8.337  0.00  0.00    -0.389 OA
BRANCH  13  14
HETATM   14  C   UNK N   1      18.221  17.157   9.364  0.00  0.00     0.167 C 
BRANCH  14  15
HETATM   15  C   UNK N   1      19.079  18.377   9.519  0.00  0.00     0.026 C 
BRANCH  15  16
HETATM   16  C   UNK N   1      18.775  19.224  10.712  0.00  0.00    -0.002 C 
HETATM   17  C   UNK N   1      17.369  18.836  11.116  0.00  0.00     0.005 C 
ENDBRANCH  15  16
ENDBRANCH  14  15
ENDBRANCH  13  14
ENDBRANCH  12  13
ENDBRANCH  11  12
ENDBRANCH  10  11
ENDBRANCH   1  10
TORSDOF 8
ENDMDL
MODEL 3
REMARK VINA RESULT:      -5.0      2.189      6.940
REMARK  8 active torsions:
REMARK  status: ('A' for Active; 'I' for Inactive)
REMARK    1  A    between atoms: C_3  and  C_2 
REMARK    2  A    between atoms: C_7  and  C_3 
REMARK    3  A    between atoms: O_16  and  C_7 
REMARK    4  A    between atoms: C_9  and  C_8 
REMARK    5  A    between atoms: O_16  and  C_8 
REMARK    6  A    between atoms: O_17  and  C_9 
REMARK    7  A    between atoms: C_12  and  C_11 
REMARK    8  A    between atoms: O_17  and  C_12 
ROOT
HETATM    1  C   UNK N   1      35.139  16.507  10.377  0.00  0.00     0.294 C 
HETATM    2  O   UNK N   1      35.923  17.434  10.493  0.00  0.00    -0.259 OA
ENDROOT
BRANCH   1   3
HETATM    3  C   UNK N   1      35.196  15.335  11.243  0.00  0.00     0.054 A 
HETATM    4  C   UNK N   1      35.991  15.300  12.391  0.00  0.00     0.020 A 
HETATM    5  C   UNK N   1      35.999  14.147  13.175  0.00  0.00     0.018 A 
HETATM    6  C   UNK N   1      35.214  13.051  12.800  0.00  0.00     0.087 A 
HETATM    7  N   UNK N   1      34.449  13.108  11.678  0.00  0.00    -0.374 N 
HETATM    8  C   UNK N   1      34.428  14.219  10.903  0.00  0.00     0.105 A 
ATOM      9  HN  UNK N   1      33.882  12.302  11.416  1.00  0.00     0.164 HD
ENDBRANCH   1   3
BRANCH   1  10
HETATM   10  O   UNK N   1      34.172  16.514   9.436  0.00  0.00    -0.315 OA
BRANCH  10  11
HETATM   11  C   UNK N   1      34.422  16.625   8.112  0.00  0.00     0.205 C 
BRANCH  11  12
HETATM   12  C   UNK N   1      34.037  18.013   7.689  0.00  0.00     0.194 C 
BRANCH  12  13
HETATM   13  O   UNK N   1      34.309  18.032   6.343  0.00  0.00    -0.389 OA
BRANCH  13  14
HETATM   14  C   UNK N   1      33.652  16.979   5.738  0.00  0.00     0.167 C 
BRANCH  14  15
HETATM   15  C   UNK N   1      33.023  17.653   4.556  0.00  0.00     0.026 C 
BRANCH  15  16
HETATM   16  C   UNK N   1      31.616  17.245   4.263  0.00  0.00    -0.002 C 
HETATM   17  C   UNK N   1      30.958  17.111   5.619  0.00  0.00     0.005 C 
ENDBRANCH  15  16
ENDBRANCH  14  15
ENDBRANCH  13  14
ENDBRANCH  12  13
ENDBRANCH  11  12
ENDBRANCH  10  11
ENDBRANCH   1  10
TORSDOF 8
ENDMDL
MODEL 4
REMARK VINA RESULT:      -5.0     14.091     17.304
REMARK  8 active torsions:
REMARK  status: ('A' for Active; 'I' for Inactive)
REMARK    1  A    between atoms: C_3  and  C_2 
REMARK    2  A    between atoms: C_7  and  C_3 
REMARK    3  A    between atoms: O_16  and  C_7 
REMARK    4  A    between atoms: C_9  and  C_8 
REMARK    5  A    between atoms: O_16  and  C_8 
REMARK    6  A    between atoms: O_17  and  C_9 
REMARK    7  A    between atoms: C_12  and  C_11 
REMARK    8  A    between atoms: O_17  and  C_12 
ROOT
HETATM    1  C   UNK N   1      30.138  22.952  -2.561  0.00  0.00     0.294 C 
HETATM    2  O   UNK N   1      30.337  23.086  -1.366  0.00  0.00    -0.259 OA
ENDROOT
BRANCH   1   3
HETATM    3  C   UNK N   1      30.849  21.956  -3.356  0.00  0.00     0.054 A 
HETATM    4  C   UNK N   1      30.347  21.481  -4.568  0.00  0.00     0.020 A 
HETATM    5  C   UNK N   1      31.078  20.527  -5.278  0.00  0.00     0.018 A 
HETATM    6  C   UNK N   1      32.295  20.067  -4.764  0.00  0.00     0.087 A 
HETATM    7  N   UNK N   1      32.764  20.545  -3.581  0.00  0.00    -0.374 N 
HETATM    8  C   UNK N   1      32.068  21.471  -2.877  0.00  0.00     0.105 A 
ATOM      9  HN  UNK N   1      33.652  20.201  -3.218  1.00  0.00     0.164 HD
ENDBRANCH   1   3
BRANCH   1  10
HETATM   10  O   UNK N   1      29.247  23.722  -3.219  0.00  0.00    -0.315 OA
BRANCH  10  11
HETATM   11  C   UNK N   1      27.925  23.739  -2.934  0.00  0.00     0.205 C 
BRANCH  11  12
HETATM   12  C   UNK N   1      27.276  24.752  -3.832  0.00  0.00     0.194 C 
BRANCH  12  13
HETATM   13  O   UNK N   1      26.337  25.349  -3.028  0.00  0.00    -0.389 OA
BRANCH  13  14
HETATM   14  C   UNK N   1      26.561  26.712  -3.014  0.00  0.00     0.167 C 
BRANCH  14  15
HETATM   15  C   UNK N   1      26.576  27.031  -4.479  0.00  0.00     0.026 C 
BRANCH  15  16
HETATM   16  C   UNK N   1      25.487  27.942  -4.944  0.00  0.00    -0.002 C 
HETATM   17  C   UNK N   1      24.594  27.075  -5.803  0.00  0.00     0.005 C 
ENDBRANCH  15  16
ENDBRANCH  14  15
ENDBRANCH  13  14
ENDBRANCH  12  13
ENDBRANCH  11  12
ENDBRANCH  10  11
ENDBRANCH   1  10
TORSDOF 8
ENDMDL
MODEL 5
REMARK VINA RESULT:      -4.9      1.586      2.727
REMARK  8 active torsions:
REMARK  status: ('A' for Active; 'I' for Inactive)
REMARK    1  A    between atoms: C_3  and  C_2 
REMARK    2  A    between atoms: C_7  and  C_3 
REMARK    3  A    between atoms: O_16  and  C_7 
REMARK    4  A    between atoms: C_9  and  C_8 
REMARK    5  A    between atoms: O_16  and  C_8 
REMARK    6  A    between atoms: O_17  and  C_9 
REMARK    7  A    between atoms: C_12  and  C_11 
REMARK    8  A    between atoms: O_17  and  C_12 
ROOT
HETATM    1  C   UNK N   1      35.249  16.295  10.504  0.00  0.00     0.294 C 
HETATM    2  O   UNK N   1      36.364  16.773  10.617  0.00  0.00    -0.259 OA
ENDROOT
BRANCH   1   3
HETATM    3  C   UNK N   1      34.367  16.648   9.397  0.00  0.00     0.054 A 
HETATM    4  C   UNK N   1      34.543  17.816   8.653  0.00  0.00     0.020 A 
HETATM    5  C   UNK N   1      33.663  18.093   7.606  0.00  0.00     0.018 A 
HETATM    6  C   UNK N   1      32.625  17.199   7.323  0.00  0.00     0.087 A 
HETATM    7  N   UNK N   1      32.473  16.067   8.060  0.00  0.00    -0.374 N 
HETATM    8  C   UNK N   1      33.317  15.782   9.081  0.00  0.00     0.105 A 
ATOM      9  HN  UNK N   1      31.712  15.425   7.843  1.00  0.00     0.164 HD
ENDBRANCH   1   3
BRANCH   1  10
HETATM   10  O   UNK N   1      34.765  15.410  11.400  0.00  0.00    -0.315 OA
BRANCH  10  11
HETATM   11  C   UNK N   1      35.388  14.251  11.713  0.00  0.00     0.205 C 
BRANCH  11  12
HETATM   12  C   UNK N   1      35.847  14.349  13.139  0.00  0.00     0.194 C 
BRANCH  12  13
HETATM   13  O   UNK N   1      34.913  13.619  13.834  0.00  0.00    -0.389 OA
BRANCH  13  14
HETATM   14  C   UNK N   1      35.563  12.650  14.572  0.00  0.00     0.167 C 
BRANCH  14  15
HETATM   15  C   UNK N   1      35.862  13.387  15.843  0.00  0.00     0.026 C 
BRANCH  15  16
HETATM   16  C   UNK N   1      34.878  13.178  16.948  0.00  0.00    -0.002 C 
HETATM   17  C   UNK N   1      35.294  11.876  17.598  0.00  0.00     0.005 C 
ENDBRANCH  15  16
ENDBRANCH  14  15
ENDBRANCH  13  14
ENDBRANCH  12  13
ENDBRANCH  11  12
ENDBRANCH  10  11
ENDBRANCH   1  10
TORSDOF 8
ENDMDL
MODEL 6
REMARK VINA RESULT:      -4.8     12.246     14.783
REMARK  8 active torsions:
REMARK  status: ('A' for Active; 'I' for Inactive)
REMARK    1  A    between atoms: C_3  and  C_2 
REMARK    2  A    between atoms: C_7  and  C_3 
REMARK    3  A    between atoms: O_16  and  C_7 
REMARK    4  A    between atoms: C_9  and  C_8 
REMARK    5  A    between atoms: O_16  and  C_8 
REMARK    6  A    between atoms: O_17  and  C_9 
REMARK    7  A    between atoms: C_12  and  C_11 
REMARK    8  A    between atoms: O_17  and  C_12 
ROOT
HETATM    1  C   UNK N   1      20.448  14.514   9.427  0.00  0.00     0.294 C 
HETATM    2  O   UNK N   1      19.265  14.377   9.684  0.00  0.00    -0.259 OA
ENDROOT
BRANCH   1   3
HETATM    3  C   UNK N   1      21.458  13.586   9.925  0.00  0.00     0.054 A 
HETATM    4  C   UNK N   1      21.167  12.625  10.894  0.00  0.00     0.020 A 
HETATM    5  C   UNK N   1      22.181  11.769  11.326  0.00  0.00     0.018 A 
HETATM    6  C   UNK N   1      23.464  11.889  10.783  0.00  0.00     0.087 A 
HETATM    7  N   UNK N   1      23.725  12.833   9.840  0.00  0.00    -0.374 N 
HETATM    8  C   UNK N   1      22.753  13.673   9.408  0.00  0.00     0.105 A 
ATOM      9  HN  UNK N   1      24.664  12.909   9.453  1.00  0.00     0.164 HD
ENDBRANCH   1   3
BRANCH   1  10
HETATM   10  O   UNK N   1      20.892  15.534   8.665  0.00  0.00    -0.315 OA
BRANCH  10  11
HETATM   11  C   UNK N   1      20.257  16.724   8.570  0.00  0.00     0.205 C 
BRANCH  11  12
HETATM   12  C   UNK N   1      20.268  17.135   7.126  0.00  0.00     0.194 C 
BRANCH  12  13
HETATM   13  O   UNK N   1      21.055  18.261   7.112  0.00  0.00    -0.389 OA
BRANCH  13  14
HETATM   14  C   UNK N   1      21.778  18.286   5.936  0.00  0.00     0.167 C 
BRANCH  14  15
HETATM   15  C   UNK N   1      20.874  17.532   5.008  0.00  0.00     0.026 C 
BRANCH  15  16
HETATM   16  C   UNK N   1      20.819  18.052   3.609  0.00  0.00    -0.002 C 
HETATM   17  C   UNK N   1      20.898  19.556   3.748  0.00  0.00     0.005 C 
ENDBRANCH  15  16
ENDBRANCH  14  15
ENDBRANCH  13  14
ENDBRANCH  12  13
ENDBRANCH  11  12
ENDBRANCH  10  11
ENDBRANCH   1  10
TORSDOF 8
ENDMDL
MODEL 7
REMARK VINA RESULT:      -4.7     15.723     19.251
REMARK  8 active torsions:
REMARK  status: ('A' for Active; 'I' for Inactive)
REMARK    1  A    between atoms: C_3  and  C_2 
REMARK    2  A    between atoms: C_7  and  C_3 
REMARK    3  A    between atoms: O_16  and  C_7 
REMARK    4  A    between atoms: C_9  and  C_8 
REMARK    5  A    between atoms: O_16  and  C_8 
REMARK    6  A    between atoms: O_17  and  C_9 
REMARK    7  A    between atoms: C_12  and  C_11 
REMARK    8  A    between atoms: O_17  and  C_12 
ROOT
HETATM    1  C   UNK N   1      25.726  26.108  -6.971  0.00  0.00     0.294 C 
HETATM    2  O   UNK N   1      25.805  26.204  -8.184  0.00  0.00    -0.259 OA
ENDROOT
BRANCH   1   3
HETATM    3  C   UNK N   1      26.063  27.217  -6.085  0.00  0.00     0.054 A 
HETATM    4  C   UNK N   1      27.127  28.081  -6.351  0.00  0.00     0.020 A 
HETATM    5  C   UNK N   1      27.393  29.122  -5.462  0.00  0.00     0.018 A 
HETATM    6  C   UNK N   1      26.594  29.281  -4.325  0.00  0.00     0.087 A 
HETATM    7  N   UNK N   1      25.563  28.427  -4.086  0.00  0.00    -0.374 N 
HETATM    8  C   UNK N   1      25.289  27.410  -4.938  0.00  0.00     0.105 A 
ATOM      9  HN  UNK N   1      24.989  28.555  -3.254  1.00  0.00     0.164 HD
ENDBRANCH   1   3
BRANCH   1  10
HETATM   10  O   UNK N   1      25.322  24.966  -6.378  0.00  0.00    -0.315 OA
BRANCH  10  11
HETATM   11  C   UNK N   1      25.959  23.783  -6.530  0.00  0.00     0.205 C 
BRANCH  11  12
HETATM   12  C   UNK N   1      27.148  23.782  -5.611  0.00  0.00     0.194 C 
BRANCH  12  13
HETATM   13  O   UNK N   1      26.600  23.976  -4.367  0.00  0.00    -0.389 OA
BRANCH  13  14
HETATM   14  C   UNK N   1      27.521  24.627  -3.570  0.00  0.00     0.167 C 
BRANCH  14  15
HETATM   15  C   UNK N   1      28.816  24.107  -4.118  0.00  0.00     0.026 C 
BRANCH  15  16
HETATM   16  C   UNK N   1      29.971  24.145  -3.170  0.00  0.00    -0.002 C 
HETATM   17  C   UNK N   1      29.755  22.967  -2.246  0.00  0.00     0.005 C 
ENDBRANCH  15  16
ENDBRANCH  14  15
ENDBRANCH  13  14
ENDBRANCH  12  13
ENDBRANCH  11  12
ENDBRANCH  10  11
ENDBRANCH   1  10
TORSDOF 8
ENDMDL
MODEL 8
REMARK VINA RESULT:      -4.6      4.895      7.135
REMARK  8 active torsions:
REMARK  status: ('A' for Active; 'I' for Inactive)
REMARK    1  A    between atoms: C_3  and  C_2 
REMARK    2  A    between atoms: C_7  and  C_3 
REMARK    3  A    between atoms: O_16  and  C_7 
REMARK    4  A    between atoms: C_9  and  C_8 
REMARK    5  A    between atoms: O_16  and  C_8 
REMARK    6  A    between atoms: O_17  and  C_9 
REMARK    7  A    between atoms: C_12  and  C_11 
REMARK    8  A    between atoms: O_17  and  C_12 
ROOT
HETATM    1  C   UNK N   1      28.685  18.400   7.573  0.00  0.00     0.294 C 
HETATM    2  O   UNK N   1      28.083  18.338   8.631  0.00  0.00    -0.259 OA
ENDROOT
BRANCH   1   3
HETATM    3  C   UNK N   1      28.122  19.061   6.401  0.00  0.00     0.054 A 
HETATM    4  C   UNK N   1      27.312  20.193   6.507  0.00  0.00     0.020 A 
HETATM    5  C   UNK N   1      26.805  20.776   5.346  0.00  0.00     0.018 A 
HETATM    6  C   UNK N   1      27.116  20.218   4.101  0.00  0.00     0.087 A 
HETATM    7  N   UNK N   1      27.907  19.115   4.022  0.00  0.00    -0.374 N 
HETATM    8  C   UNK N   1      28.408  18.535   5.139  0.00  0.00     0.105 A 
ATOM      9  HN  UNK N   1      28.126  18.719   3.108  1.00  0.00     0.164 HD
ENDBRANCH   1   3
BRANCH   1  10
HETATM   10  O   UNK N   1      29.912  17.859   7.427  0.00  0.00    -0.315 OA
BRANCH  10  11
HETATM   11  C   UNK N   1      30.641  17.376   8.458  0.00  0.00     0.205 C 
BRANCH  11  12
HETATM   12  C   UNK N   1      31.446  16.216   7.947  0.00  0.00     0.194 C 
BRANCH  12  13
HETATM   13  O   UNK N   1      31.731  16.563   6.649  0.00  0.00    -0.389 OA
BRANCH  13  14
HETATM   14  C   UNK N   1      33.102  16.646   6.499  0.00  0.00     0.167 C 
BRANCH  14  15
HETATM   15  C   UNK N   1      33.220  17.452   5.241  0.00  0.00     0.026 C 
BRANCH  15  16
HETATM   16  C   UNK N   1      31.965  17.573   4.440  0.00  0.00    -0.002 C 
HETATM   17  C   UNK N   1      32.325  17.043   3.069  0.00  0.00     0.005 C 
ENDBRANCH  15  16
ENDBRANCH  14  15
ENDBRANCH  13  14
ENDBRANCH  12  13
ENDBRANCH  11  12
ENDBRANCH  10  11
ENDBRANCH   1  10
TORSDOF 8
ENDMDL
MODEL 9
REMARK VINA RESULT:      -4.5     13.338     14.273
REMARK  8 active torsions:
REMARK  status: ('A' for Active; 'I' for Inactive)
REMARK    1  A    between atoms: C_3  and  C_2 
REMARK    2  A    between atoms: C_7  and  C_3 
REMARK    3  A    between atoms: O_16  and  C_7 
REMARK    4  A    between atoms: C_9  and  C_8 
REMARK    5  A    between atoms: O_16  and  C_8 
REMARK    6  A    between atoms: O_17  and  C_9 
REMARK    7  A    between atoms: C_12  and  C_11 
REMARK    8  A    between atoms: O_17  and  C_12 
ROOT
HETATM    1  C   UNK N   1      21.026  18.910   4.042  0.00  0.00     0.294 C 
HETATM    2  O   UNK N   1      20.669  20.066   4.192  0.00  0.00    -0.259 OA
ENDROOT
BRANCH   1   3
HETATM    3  C   UNK N   1      20.678  18.144   2.850  0.00  0.00     0.054 A 
HETATM    4  C   UNK N   1      20.562  16.752   2.872  0.00  0.00     0.020 A 
HETATM    5  C   UNK N   1      20.225  16.081   1.697  0.00  0.00     0.018 A 
HETATM    6  C   UNK N   1      20.011  16.811   0.522  0.00  0.00     0.087 A 
HETATM    7  N   UNK N   1      20.129  18.165   0.525  0.00  0.00    -0.374 N 
HETATM    8  C   UNK N   1      20.455  18.834   1.657  0.00  0.00     0.105 A 
ATOM      9  HN  UNK N   1      19.970  18.684  -0.338  1.00  0.00     0.164 HD
ENDBRANCH   1   3
BRANCH   1  10
HETATM   10  O   UNK N   1      21.767  18.273   4.972  0.00  0.00    -0.315 OA
BRANCH  10  11
HETATM   11  C   UNK N   1      21.451  18.249   6.286  0.00  0.00     0.205 C 
BRANCH  11  12
HETATM   12  C   UNK N   1      20.746  16.953   6.564  0.00  0.00     0.194 C 
BRANCH  12  13
HETATM   13  O   UNK N   1      21.290  16.532   7.753  0.00  0.00    -0.389 OA
BRANCH  13  14
HETATM   14  C   UNK N   1      20.344  15.802   8.445  0.00  0.00     0.167 C 
BRANCH  14  15
HETATM   15  C   UNK N   1      21.205  14.954   9.332  0.00  0.00     0.026 C 
BRANCH  15  16
HETATM   16  C   UNK N   1      20.587  13.673   9.786  0.00  0.00    -0.002 C 
HETATM   17  C   UNK N   1      21.531  12.593   9.303  0.00  0.00     0.005 C 
ENDBRANCH  15  16
ENDBRANCH  14  15
ENDBRANCH  13  14
ENDBRANCH  12  13
ENDBRANCH  11  12
ENDBRANCH  10  11
ENDBRANCH   1  10
TORSDOF 8
ENDMDL
