MODEL 1
REMARK VINA RESULT:      -8.9      0.000      0.000
REMARK  7 active torsions:
REMARK  status: ('A' for Active; 'I' for Inactive)
REMARK    1  A    between atoms: C_4  and  O_7 
REMARK    2  A    between atoms: O_7  and  C_8 
REMARK    3  A    between atoms: C_11  and  C_14 
REMARK    4  A    between atoms: C_14  and  N_15 
REMARK       I    between atoms: N_15  and  C_16 
REMARK    5  A    between atoms: C_16  and  C_18 
REMARK    6  A    between atoms: C_21  and  C_25 
REMARK    7  A    between atoms: C_28  and  O_32 
ROOT
HETATM    1  N   UNK N   1      35.538  14.377  10.549  0.00  0.00    -0.350 N 
HETATM    2  C   UNK N   1      35.857  15.679  10.432  0.00  0.00     0.295 C 
HETATM    3  O   UNK N   1      36.891  16.113  10.919  0.00  0.00    -0.264 OA
HETATM    4  H   UNK N   1      34.625  14.090  10.319  0.00  0.00     0.163 HD
ENDROOT
BRANCH   2   5
HETATM    5  C   UNK N   1      34.980  16.565   9.670  0.00  0.00     0.240 A 
HETATM    6  N   UNK N   1      33.761  16.211   9.251  0.00  0.00    -0.315 N 
HETATM    7  C   UNK N   1      33.317  17.322   8.640  0.00  0.00     0.138 A 
ATOM      8  HN  UNK N   1      33.283  15.317   9.370  1.00  0.00     0.169 HD
HETATM    9  N   UNK N   1      34.229  18.313   8.698  0.00  0.00    -0.242 N 
HETATM   10  O   UNK N   1      35.245  17.808   9.335  0.00  0.00    -0.212 OA
ATOM     11  HN  UNK N   1      34.142  19.258   8.322  1.00  0.00     0.196 HD
BRANCH   7  12
HETATM   12  C   UNK N   1      32.048  17.361   7.918  0.00  0.00     0.013 A 
HETATM   13  C   UNK N   1      30.892  17.612   8.658  0.00  0.00     0.037 A 
HETATM   14  C   UNK N   1      29.640  17.575   8.061  0.00  0.00     0.046 A 
HETATM   15  C   UNK N   1      29.531  17.303   6.692  0.00  0.00     0.100 A 
HETATM   16 Br   UNK N   1      28.103  17.866   9.154  0.00  0.00    -0.048 Br
HETATM   17  C   UNK N   1      30.691  17.068   5.930  0.00  0.00     0.046 A 
HETATM   18  C   UNK N   1      31.950  17.081   6.548  0.00  0.00     0.037 A 
HETATM   19 Br   UNK N   1      30.565  16.711   4.057  0.00  0.00    -0.048 Br
BRANCH  15  20
HETATM   20  O   UNK N   1      28.318  17.262   6.112  0.00  0.00    -0.358 OA
HETATM   21  H   UNK N   1      28.219  16.887   5.259  0.00  0.00     0.217 HD
ENDBRANCH  15  20
ENDBRANCH   7  12
ENDBRANCH   2   5
BRANCH   1  22
HETATM   22  C   UNK N   1      36.483  13.386  10.998  0.00  0.00     0.161 C 
BRANCH  22  23
HETATM   23  C   UNK N   1      36.125  13.124  12.414  0.00  0.00    -0.040 A 
HETATM   24  C   UNK N   1      36.697  13.879  13.441  0.00  0.00     0.011 A 
HETATM   25  C   UNK N   1      36.187  13.780  14.740  0.00  0.00     0.038 A 
HETATM   26  C   UNK N   1      35.077  12.966  15.002  0.00  0.00     0.076 A 
HETATM   27  C   UNK N   1      34.546  12.174  13.975  0.00  0.00     0.038 A 
HETATM   28  C   UNK N   1      35.068  12.250  12.693  0.00  0.00     0.011 A 
BRANCH  26  29
HETATM   29  O   UNK N   1      34.515  12.995  16.237  0.00  0.00    -0.311 OA
BRANCH  29  30
HETATM   30  C   UNK N   1      34.979  12.343  17.341  0.00  0.00     0.076 A 
HETATM   31  C   UNK N   1      35.471  11.042  17.198  0.00  0.00     0.037 A 
HETATM   32  C   UNK N   1      36.005  10.362  18.297  0.00  0.00     0.003 A 
HETATM   33  C   UNK N   1      36.058  10.981  19.549  0.00  0.00     0.000 A 
HETATM   34  C   UNK N   1      35.574  12.280  19.705  0.00  0.00     0.003 A 
HETATM   35  C   UNK N   1      35.042  12.960  18.607  0.00  0.00     0.037 A 
ENDBRANCH  29  30
ENDBRANCH  26  29
ENDBRANCH  22  23
ENDBRANCH   1  22
TORSDOF 7
ENDMDL
MODEL 2
REMARK VINA RESULT:      -8.8      0.688      2.021
REMARK  7 active torsions:
REMARK  status: ('A' for Active; 'I' for Inactive)
REMARK    1  A    between atoms: C_4  and  O_7 
REMARK    2  A    between atoms: O_7  and  C_8 
REMARK    3  A    between atoms: C_11  and  C_14 
REMARK    4  A    between atoms: C_14  and  N_15 
REMARK       I    between atoms: N_15  and  C_16 
REMARK    5  A    between atoms: C_16  and  C_18 
REMARK    6  A    between atoms: C_21  and  C_25 
REMARK    7  A    between atoms: C_28  and  O_32 
ROOT
HETATM    1  N   UNK N   1      35.648  14.409  10.417  0.00  0.00    -0.350 N 
HETATM    2  C   UNK N   1      35.904  15.726  10.331  0.00  0.00     0.295 C 
HETATM    3  O   UNK N   1      36.886  16.208  10.878  0.00  0.00    -0.264 OA
HETATM    4  H   UNK N   1      34.765  14.077  10.134  0.00  0.00     0.163 HD
ENDROOT
BRANCH   2   5
HETATM    5  C   UNK N   1      35.024  16.575   9.531  0.00  0.00     0.240 A 
HETATM    6  N   UNK N   1      33.963  16.112   8.863  0.00  0.00    -0.315 N 
HETATM    7  C   UNK N   1      33.443  17.223   8.314  0.00  0.00     0.138 A 
ATOM      8  HN  UNK N   1      33.628  15.151   8.790  1.00  0.00     0.169 HD
HETATM    9  N   UNK N   1      34.156  18.317   8.648  0.00  0.00    -0.242 N 
HETATM   10  O   UNK N   1      35.128  17.879   9.394  0.00  0.00    -0.212 OA
ATOM     11  HN  UNK N   1      33.973  19.283   8.374  1.00  0.00     0.196 HD
BRANCH   7  12
HETATM   12  C   UNK N   1      32.316  17.180   7.385  0.00  0.00     0.013 A 
HETATM   13  C   UNK N   1      32.606  17.083   6.024  0.00  0.00     0.037 A 
HETATM   14  C   UNK N   1      31.595  17.128   5.075  0.00  0.00     0.046 A 
HETATM   15  C   UNK N   1      30.262  17.252   5.484  0.00  0.00     0.100 A 
HETATM   16 Br   UNK N   1      32.077  17.052   3.229  0.00  0.00    -0.048 Br
HETATM   17  C   UNK N   1      29.955  17.331   6.855  0.00  0.00     0.046 A 
HETATM   18  C   UNK N   1      30.986  17.311   7.806  0.00  0.00     0.037 A 
HETATM   19 Br   UNK N   1      28.141  17.484   7.435  0.00  0.00    -0.048 Br
BRANCH  15  20
HETATM   20  O   UNK N   1      29.282  17.300   4.565  0.00  0.00    -0.358 OA
HETATM   21  H   UNK N   1      28.445  16.921   4.752  0.00  0.00     0.217 HD
ENDBRANCH  15  20
ENDBRANCH   7  12
ENDBRANCH   2   5
BRANCH   1  22
HETATM   22  C   UNK N   1      36.619  13.462  10.906  0.00  0.00     0.161 C 
BRANCH  22  23
HETATM   23  C   UNK N   1      36.222  13.194  12.311  0.00  0.00    -0.040 A 
HETATM   24  C   UNK N   1      36.825  13.887  13.362  0.00  0.00     0.011 A 
HETATM   25  C   UNK N   1      36.289  13.794  14.651  0.00  0.00     0.038 A 
HETATM   26  C   UNK N   1      35.125  13.048  14.879  0.00  0.00     0.076 A 
HETATM   27  C   UNK N   1      34.560  12.314  13.827  0.00  0.00     0.038 A 
HETATM   28  C   UNK N   1      35.106  12.383  12.555  0.00  0.00     0.011 A 
BRANCH  26  29
HETATM   29  O   UNK N   1      34.547  13.087  16.106  0.00  0.00    -0.311 OA
BRANCH  29  30
HETATM   30  C   UNK N   1      35.002  12.453  17.224  0.00  0.00     0.076 A 
HETATM   31  C   UNK N   1      35.016  13.152  18.435  0.00  0.00     0.037 A 
HETATM   32  C   UNK N   1      35.425  12.519  19.613  0.00  0.00     0.003 A 
HETATM   33  C   UNK N   1      35.818  11.177  19.590  0.00  0.00     0.000 A 
HETATM   34  C   UNK N   1      35.805  10.467  18.390  0.00  0.00     0.003 A 
HETATM   35  C   UNK N   1      35.395  11.099  17.213  0.00  0.00     0.037 A 
ENDBRANCH  29  30
ENDBRANCH  26  29
ENDBRANCH  22  23
ENDBRANCH   1  22
TORSDOF 7
ENDMDL
MODEL 3
REMARK VINA RESULT:      -8.6      3.672     11.014
REMARK  7 active torsions:
REMARK  status: ('A' for Active; 'I' for Inactive)
REMARK    1  A    between atoms: C_4  and  O_7 
REMARK    2  A    between atoms: O_7  and  C_8 
REMARK    3  A    between atoms: C_11  and  C_14 
REMARK    4  A    between atoms: C_14  and  N_15 
REMARK       I    between atoms: N_15  and  C_16 
REMARK    5  A    between atoms: C_16  and  C_18 
REMARK    6  A    between atoms: C_21  and  C_25 
REMARK    7  A    between atoms: C_28  and  O_32 
ROOT
HETATM    1  N   UNK N   1      34.123  17.160   9.420  0.00  0.00    -0.350 N 
HETATM    2  C   UNK N   1      34.781  15.987   9.444  0.00  0.00     0.295 C 
HETATM    3  O   UNK N   1      35.017  15.384   8.406  0.00  0.00    -0.264 OA
HETATM    4  H   UNK N   1      33.782  17.530  10.267  0.00  0.00     0.163 HD
ENDROOT
BRANCH   2   5
HETATM    5  C   UNK N   1      35.261  15.461  10.720  0.00  0.00     0.240 A 
HETATM    6  N   UNK N   1      34.889  14.275  11.212  0.00  0.00    -0.315 N 
HETATM    7  C   UNK N   1      35.588  14.192  12.357  0.00  0.00     0.138 A 
ATOM      8  HN  UNK N   1      34.238  13.598  10.815  1.00  0.00     0.169 HD
HETATM    9  N   UNK N   1      36.361  15.281  12.543  0.00  0.00    -0.242 N 
HETATM   10  O   UNK N   1      36.129  16.046  11.516  0.00  0.00    -0.212 OA
ATOM     11  HN  UNK N   1      36.994  15.466  13.322  1.00  0.00     0.196 HD
BRANCH   7  12
HETATM   12  C   UNK N   1      35.407  13.093  13.303  0.00  0.00     0.013 A 
HETATM   13  C   UNK N   1      35.290  13.419  14.655  0.00  0.00     0.037 A 
HETATM   14  C   UNK N   1      35.207  12.428  15.622  0.00  0.00     0.046 A 
HETATM   15  C   UNK N   1      35.220  11.082  15.241  0.00  0.00     0.100 A 
HETATM   16 Br   UNK N   1      35.113  12.953  17.455  0.00  0.00    -0.048 Br
HETATM   17  C   UNK N   1      35.317  10.740  13.880  0.00  0.00     0.046 A 
HETATM   18  C   UNK N   1      35.428  11.749  12.911  0.00  0.00     0.037 A 
HETATM   19 Br   UNK N   1      35.320   8.908  13.337  0.00  0.00    -0.048 Br
BRANCH  15  20
HETATM   20  O   UNK N   1      35.144  10.120  16.178  0.00  0.00    -0.358 OA
HETATM   21  H   UNK N   1      34.747   9.296  15.973  0.00  0.00     0.217 HD
ENDBRANCH  15  20
ENDBRANCH   7  12
ENDBRANCH   2   5
BRANCH   1  22
HETATM   22  C   UNK N   1      33.900  17.898   8.203  0.00  0.00     0.161 C 
BRANCH  22  23
HETATM   23  C   UNK N   1      32.498  17.599   7.822  0.00  0.00    -0.040 A 
HETATM   24  C   UNK N   1      31.445  17.922   8.681  0.00  0.00     0.011 A 
HETATM   25  C   UNK N   1      30.126  17.847   8.221  0.00  0.00     0.038 A 
HETATM   26  C   UNK N   1      29.863  17.496   6.890  0.00  0.00     0.076 A 
HETATM   27  C   UNK N   1      30.923  17.122   6.053  0.00  0.00     0.038 A 
HETATM   28  C   UNK N   1      32.229  17.169   6.516  0.00  0.00     0.011 A 
BRANCH  26  29
HETATM   29  O   UNK N   1      28.588  17.566   6.429  0.00  0.00    -0.311 OA
BRANCH  29  30
HETATM   30  C   UNK N   1      28.008  18.653   5.846  0.00  0.00     0.076 A 
HETATM   31  C   UNK N   1      27.807  18.647   4.462  0.00  0.00     0.037 A 
HETATM   32  C   UNK N   1      27.166  19.721   3.836  0.00  0.00     0.003 A 
HETATM   33  C   UNK N   1      26.713  20.807   4.590  0.00  0.00     0.000 A 
HETATM   34  C   UNK N   1      26.904  20.824   5.972  0.00  0.00     0.003 A 
HETATM   35  C   UNK N   1      27.543  19.751   6.598  0.00  0.00     0.037 A 
ENDBRANCH  29  30
ENDBRANCH  26  29
ENDBRANCH  22  23
ENDBRANCH   1  22
TORSDOF 7
ENDMDL
MODEL 4
REMARK VINA RESULT:      -8.5      3.837     11.267
REMARK  7 active torsions:
REMARK  status: ('A' for Active; 'I' for Inactive)
REMARK    1  A    between atoms: C_4  and  O_7 
REMARK    2  A    between atoms: O_7  and  C_8 
REMARK    3  A    between atoms: C_11  and  C_14 
REMARK    4  A    between atoms: C_14  and  N_15 
REMARK       I    between atoms: N_15  and  C_16 
REMARK    5  A    between atoms: C_16  and  C_18 
REMARK    6  A    between atoms: C_21  and  C_25 
REMARK    7  A    between atoms: C_28  and  O_32 
ROOT
HETATM    1  N   UNK N   1      34.429  16.639   8.760  0.00  0.00    -0.350 N 
HETATM    2  C   UNK N   1      35.184  16.532   9.868  0.00  0.00     0.295 C 
HETATM    3  O   UNK N   1      35.625  17.530  10.420  0.00  0.00    -0.264 OA
HETATM    4  H   UNK N   1      34.246  15.830   8.231  0.00  0.00     0.163 HD
ENDROOT
BRANCH   2   5
HETATM    5  C   UNK N   1      35.430  15.211  10.441  0.00  0.00     0.240 A 
HETATM    6  N   UNK N   1      35.541  14.989  11.754  0.00  0.00    -0.315 N 
HETATM    7  C   UNK N   1      35.723  13.659  11.821  0.00  0.00     0.138 A 
ATOM      8  HN  UNK N   1      35.496  15.663  12.519  1.00  0.00     0.169 HD
HETATM    9  N   UNK N   1      35.710  13.098  10.595  0.00  0.00    -0.242 N 
HETATM   10  O   UNK N   1      35.534  14.087   9.767  0.00  0.00    -0.212 OA
ATOM     11  HN  UNK N   1      35.816  12.109  10.365  1.00  0.00     0.196 HD
BRANCH   7  12
HETATM   12  C   UNK N   1      36.011  12.973  13.078  0.00  0.00     0.013 A 
HETATM   13  C   UNK N   1      36.787  11.815  13.018  0.00  0.00     0.037 A 
HETATM   14  C   UNK N   1      37.028  11.058  14.155  0.00  0.00     0.046 A 
HETATM   15  C   UNK N   1      36.505  11.468  15.387  0.00  0.00     0.100 A 
HETATM   16 Br   UNK N   1      38.046   9.453  13.980  0.00  0.00    -0.048 Br
HETATM   17  C   UNK N   1      35.737  12.645  15.465  0.00  0.00     0.046 A 
HETATM   18  C   UNK N   1      35.477  13.389  14.305  0.00  0.00     0.037 A 
HETATM   19 Br   UNK N   1      35.028  13.231  17.139  0.00  0.00    -0.048 Br
BRANCH  15  20
HETATM   20  O   UNK N   1      36.733  10.733  16.490  0.00  0.00    -0.358 OA
HETATM   21  H   UNK N   1      36.359   9.878  16.569  0.00  0.00     0.217 HD
ENDBRANCH  15  20
ENDBRANCH   7  12
ENDBRANCH   2   5
BRANCH   1  22
HETATM   22  C   UNK N   1      33.878  17.895   8.317  0.00  0.00     0.161 C 
BRANCH  22  23
HETATM   23  C   UNK N   1      32.503  17.575   7.863  0.00  0.00    -0.040 A 
HETATM   24  C   UNK N   1      31.405  17.850   8.681  0.00  0.00     0.011 A 
HETATM   25  C   UNK N   1      30.110  17.758   8.158  0.00  0.00     0.038 A 
HETATM   26  C   UNK N   1      29.917  17.438   6.807  0.00  0.00     0.076 A 
HETATM   27  C   UNK N   1      31.023  17.113   6.010  0.00  0.00     0.038 A 
HETATM   28  C   UNK N   1      32.304  17.177   6.535  0.00  0.00     0.011 A 
BRANCH  26  29
HETATM   29  O   UNK N   1      28.663  17.492   6.290  0.00  0.00    -0.311 OA
BRANCH  29  30
HETATM   30  C   UNK N   1      28.061  18.597   5.766  0.00  0.00     0.076 A 
HETATM   31  C   UNK N   1      27.813  18.641   4.391  0.00  0.00     0.037 A 
HETATM   32  C   UNK N   1      27.149  19.734   3.826  0.00  0.00     0.003 A 
HETATM   33  C   UNK N   1      26.721  20.792   4.634  0.00  0.00     0.000 A 
HETATM   34  C   UNK N   1      26.960  20.760   6.008  0.00  0.00     0.003 A 
HETATM   35  C   UNK N   1      27.621  19.667   6.573  0.00  0.00     0.037 A 
ENDBRANCH  29  30
ENDBRANCH  26  29
ENDBRANCH  22  23
ENDBRANCH   1  22
TORSDOF 7
ENDMDL
MODEL 5
REMARK VINA RESULT:      -8.5      3.845     10.671
REMARK  7 active torsions:
REMARK  status: ('A' for Active; 'I' for Inactive)
REMARK    1  A    between atoms: C_4  and  O_7 
REMARK    2  A    between atoms: O_7  and  C_8 
REMARK    3  A    between atoms: C_11  and  C_14 
REMARK    4  A    between atoms: C_14  and  N_15 
REMARK       I    between atoms: N_15  and  C_16 
REMARK    5  A    between atoms: C_16  and  C_18 
REMARK    6  A    between atoms: C_21  and  C_25 
REMARK    7  A    between atoms: C_28  and  O_32 
ROOT
HETATM    1  N   UNK N   1      34.397  15.786   6.407  0.00  0.00    -0.350 N 
HETATM    2  C   UNK N   1      34.585  16.818   7.248  0.00  0.00     0.295 C 
HETATM    3  O   UNK N   1      34.611  17.967   6.829  0.00  0.00    -0.264 OA
HETATM    4  H   UNK N   1      34.566  14.872   6.732  0.00  0.00     0.163 HD
ENDROOT
BRANCH   2   5
HETATM    5  C   UNK N   1      34.705  16.561   8.682  0.00  0.00     0.240 A 
HETATM    6  N   UNK N   1      34.948  15.350   9.193  0.00  0.00    -0.315 N 
HETATM    7  C   UNK N   1      35.011  15.588  10.514  0.00  0.00     0.138 A 
ATOM      8  HN  UNK N   1      35.061  14.463   8.701  1.00  0.00     0.169 HD
HETATM    9  N   UNK N   1      34.825  16.894  10.789  0.00  0.00    -0.242 N 
HETATM   10  O   UNK N   1      34.633  17.464   9.634  0.00  0.00    -0.212 OA
ATOM     11  HN  UNK N   1      34.833  17.342  11.706  1.00  0.00     0.196 HD
BRANCH   7  12
HETATM   12  C   UNK N   1      35.148  14.513  11.494  0.00  0.00     0.013 A 
HETATM   13  C   UNK N   1      35.763  14.821  12.708  0.00  0.00     0.037 A 
HETATM   14  C   UNK N   1      36.012  13.836  13.652  0.00  0.00     0.046 A 
HETATM   15  C   UNK N   1      35.623  12.516  13.398  0.00  0.00     0.100 A 
HETATM   16 Br   UNK N   1      36.915  14.326  15.261  0.00  0.00    -0.048 Br
HETATM   17  C   UNK N   1      34.983  12.195  12.187  0.00  0.00     0.046 A 
HETATM   18  C   UNK N   1      34.760  13.193  11.227  0.00  0.00     0.037 A 
HETATM   19 Br   UNK N   1      34.430  10.402  11.827  0.00  0.00    -0.048 Br
BRANCH  15  20
HETATM   20  O   UNK N   1      35.867  11.558  14.310  0.00  0.00    -0.358 OA
HETATM   21  H   UNK N   1      36.521  11.694  14.968  0.00  0.00     0.217 HD
ENDBRANCH  15  20
ENDBRANCH   7  12
ENDBRANCH   2   5
BRANCH   1  22
HETATM   22  C   UNK N   1      33.956  15.967   5.046  0.00  0.00     0.161 C 
BRANCH  22  23
HETATM   23  C   UNK N   1      32.488  16.161   5.139  0.00  0.00    -0.040 A 
HETATM   24  C   UNK N   1      31.720  15.366   5.993  0.00  0.00     0.011 A 
HETATM   25  C   UNK N   1      30.386  15.705   6.242  0.00  0.00     0.038 A 
HETATM   26  C   UNK N   1      29.835  16.862   5.676  0.00  0.00     0.076 A 
HETATM   27  C   UNK N   1      30.598  17.622   4.779  0.00  0.00     0.038 A 
HETATM   28  C   UNK N   1      31.912  17.271   4.509  0.00  0.00     0.011 A 
BRANCH  26  29
HETATM   29  O   UNK N   1      28.585  17.245   6.043  0.00  0.00    -0.311 OA
BRANCH  29  30
HETATM   30  C   UNK N   1      28.010  18.453   5.780  0.00  0.00     0.076 A 
HETATM   31  C   UNK N   1      27.961  19.411   6.797  0.00  0.00     0.037 A 
HETATM   32  C   UNK N   1      27.428  20.680   6.549  0.00  0.00     0.003 A 
HETATM   33  C   UNK N   1      26.945  21.003   5.278  0.00  0.00     0.000 A 
HETATM   34  C   UNK N   1      26.990  20.058   4.253  0.00  0.00     0.003 A 
HETATM   35  C   UNK N   1      27.525  18.791   4.500  0.00  0.00     0.037 A 
ENDBRANCH  29  30
ENDBRANCH  26  29
ENDBRANCH  22  23
ENDBRANCH   1  22
TORSDOF 7
ENDMDL
MODEL 6
REMARK VINA RESULT:      -8.2      3.773     10.896
REMARK  7 active torsions:
REMARK  status: ('A' for Active; 'I' for Inactive)
REMARK    1  A    between atoms: C_4  and  O_7 
REMARK    2  A    between atoms: O_7  and  C_8 
REMARK    3  A    between atoms: C_11  and  C_14 
REMARK    4  A    between atoms: C_14  and  N_15 
REMARK       I    between atoms: N_15  and  C_16 
REMARK    5  A    between atoms: C_16  and  C_18 
REMARK    6  A    between atoms: C_21  and  C_25 
REMARK    7  A    between atoms: C_28  and  O_32 
ROOT
HETATM    1  N   UNK N   1      33.466  17.018   9.047  0.00  0.00    -0.350 N 
HETATM    2  C   UNK N   1      34.707  17.233   9.518  0.00  0.00     0.295 C 
HETATM    3  O   UNK N   1      35.314  18.256   9.233  0.00  0.00    -0.264 OA
HETATM    4  H   UNK N   1      33.076  16.118   9.132  0.00  0.00     0.163 HD
ENDROOT
BRANCH   2   5
HETATM    5  C   UNK N   1      35.310  16.255  10.421  0.00  0.00     0.240 A 
HETATM    6  N   UNK N   1      34.648  15.202  10.912  0.00  0.00    -0.315 N 
HETATM    7  C   UNK N   1      35.583  14.575  11.647  0.00  0.00     0.138 A 
ATOM      8  HN  UNK N   1      33.674  14.938  10.762  1.00  0.00     0.169 HD
HETATM    9  N   UNK N   1      36.766  15.218  11.592  0.00  0.00    -0.242 N 
HETATM   10  O   UNK N   1      36.559  16.254  10.832  0.00  0.00    -0.212 OA
ATOM     11  HN  UNK N   1      37.638  14.950  12.049  1.00  0.00     0.196 HD
BRANCH   7  12
HETATM   12  C   UNK N   1      35.272  13.412  12.475  0.00  0.00     0.013 A 
HETATM   13  C   UNK N   1      35.330  13.573  13.859  0.00  0.00     0.037 A 
HETATM   14  C   UNK N   1      35.137  12.495  14.711  0.00  0.00     0.046 A 
HETATM   15  C   UNK N   1      34.860  11.230  14.180  0.00  0.00     0.100 A 
HETATM   16 Br   UNK N   1      35.295  12.783  16.592  0.00  0.00    -0.048 Br
HETATM   17  C   UNK N   1      34.779  11.059  12.786  0.00  0.00     0.046 A 
HETATM   18  C   UNK N   1      35.002  12.149  11.932  0.00  0.00     0.037 A 
HETATM   19 Br   UNK N   1      34.386   9.344  12.041  0.00  0.00    -0.048 Br
BRANCH  15  20
HETATM   20  O   UNK N   1      34.678  10.183  15.004  0.00  0.00    -0.358 OA
HETATM   21  H   UNK N   1      35.344   9.951  15.622  0.00  0.00     0.217 HD
ENDBRANCH  15  20
ENDBRANCH   7  12
ENDBRANCH   2   5
BRANCH   1  22
HETATM   22  C   UNK N   1      32.684  18.056   8.423  0.00  0.00     0.161 C 
BRANCH  22  23
HETATM   23  C   UNK N   1      32.205  17.466   7.149  0.00  0.00    -0.040 A 
HETATM   24  C   UNK N   1      30.876  17.060   7.011  0.00  0.00     0.011 A 
HETATM   25  C   UNK N   1      30.383  16.721   5.747  0.00  0.00     0.038 A 
HETATM   26  C   UNK N   1      31.203  16.834   4.616  0.00  0.00     0.076 A 
HETATM   27  C   UNK N   1      32.549  17.191   4.774  0.00  0.00     0.038 A 
HETATM   28  C   UNK N   1      33.047  17.500   6.030  0.00  0.00     0.011 A 
BRANCH  26  29
HETATM   29  O   UNK N   1      30.662  16.635   3.387  0.00  0.00    -0.311 OA
BRANCH  29  30
HETATM   30  C   UNK N   1      30.077  15.484   2.949  0.00  0.00     0.076 A 
HETATM   31  C   UNK N   1      28.788  15.547   2.410  0.00  0.00     0.037 A 
HETATM   32  C   UNK N   1      28.177  14.397   1.900  0.00  0.00     0.003 A 
HETATM   33  C   UNK N   1      28.853  13.173   1.920  0.00  0.00     0.000 A 
HETATM   34  C   UNK N   1      30.141  13.097   2.452  0.00  0.00     0.003 A 
HETATM   35  C   UNK N   1      30.752  14.246   2.959  0.00  0.00     0.037 A 
ENDBRANCH  29  30
ENDBRANCH  26  29
ENDBRANCH  22  23
ENDBRANCH   1  22
TORSDOF 7
ENDMDL
MODEL 7
REMARK VINA RESULT:      -8.1      9.182     13.996
REMARK  7 active torsions:
REMARK  status: ('A' for Active; 'I' for Inactive)
REMARK    1  A    between atoms: C_4  and  O_7 
REMARK    2  A    between atoms: O_7  and  C_8 
REMARK    3  A    between atoms: C_11  and  C_14 
REMARK    4  A    between atoms: C_14  and  N_15 
REMARK       I    between atoms: N_15  and  C_16 
REMARK    5  A    between atoms: C_16  and  C_18 
REMARK    6  A    between atoms: C_21  and  C_25 
REMARK    7  A    between atoms: C_28  and  O_32 
ROOT
HETATM    1  N   UNK N   1      23.399  19.730   3.318  0.00  0.00    -0.350 N 
HETATM    2  C   UNK N   1      22.135  20.058   2.994  0.00  0.00     0.295 C 
HETATM    3  O   UNK N   1      21.843  21.212   2.714  0.00  0.00    -0.264 OA
HETATM    4  H   UNK N   1      23.572  18.848   3.718  0.00  0.00     0.163 HD
ENDROOT
BRANCH   2   5
HETATM    5  C   UNK N   1      21.119  19.010   2.926  0.00  0.00     0.240 A 
HETATM    6  N   UNK N   1      21.385  17.715   3.119  0.00  0.00    -0.315 N 
HETATM    7  C   UNK N   1      20.176  17.138   3.000  0.00  0.00     0.138 A 
ATOM      8  HN  UNK N   1      22.284  17.273   3.311  1.00  0.00     0.169 HD
HETATM    9  N   UNK N   1      19.216  18.052   2.758  0.00  0.00    -0.242 N 
HETATM   10  O   UNK N   1      19.835  19.197   2.712  0.00  0.00    -0.212 OA
ATOM     11  HN  UNK N   1      18.217  17.884   2.636  1.00  0.00     0.196 HD
BRANCH   7  12
HETATM   12  C   UNK N   1      19.999  15.688   3.024  0.00  0.00     0.013 A 
HETATM   13  C   UNK N   1      20.254  15.026   4.225  0.00  0.00     0.037 A 
HETATM   14  C   UNK N   1      20.196  13.643   4.303  0.00  0.00     0.046 A 
HETATM   15  C   UNK N   1      19.857  12.896   3.169  0.00  0.00     0.100 A 
HETATM   16 Br   UNK N   1      20.620  12.807   5.967  0.00  0.00    -0.048 Br
HETATM   17  C   UNK N   1      19.578  13.552   1.956  0.00  0.00     0.046 A 
HETATM   18  C   UNK N   1      19.665  14.950   1.880  0.00  0.00     0.037 A 
HETATM   19 Br   UNK N   1      19.097  12.553   0.400  0.00  0.00    -0.048 Br
BRANCH  15  20
HETATM   20  O   UNK N   1      19.805  11.554   3.242  0.00  0.00    -0.358 OA
HETATM   21  H   UNK N   1      19.785  11.042   2.457  0.00  0.00     0.217 HD
ENDBRANCH  15  20
ENDBRANCH   7  12
ENDBRANCH   2   5
BRANCH   1  22
HETATM   22  C   UNK N   1      24.510  20.623   3.102  0.00  0.00     0.161 C 
BRANCH  22  23
HETATM   23  C   UNK N   1      25.713  19.838   3.473  0.00  0.00    -0.040 A 
HETATM   24  C   UNK N   1      26.863  20.481   3.937  0.00  0.00     0.011 A 
HETATM   25  C   UNK N   1      27.901  19.727   4.495  0.00  0.00     0.038 A 
HETATM   26  C   UNK N   1      27.769  18.339   4.633  0.00  0.00     0.076 A 
HETATM   27  C   UNK N   1      26.635  17.699   4.115  0.00  0.00     0.038 A 
HETATM   28  C   UNK N   1      25.617  18.443   3.537  0.00  0.00     0.011 A 
BRANCH  26  29
HETATM   29  O   UNK N   1      28.727  17.649   5.303  0.00  0.00    -0.311 OA
BRANCH  29  30
HETATM   30  C   UNK N   1      29.014  17.765   6.630  0.00  0.00     0.076 A 
HETATM   31  C   UNK N   1      30.283  17.388   7.080  0.00  0.00     0.037 A 
HETATM   32  C   UNK N   1      30.633  17.544   8.425  0.00  0.00     0.003 A 
HETATM   33  C   UNK N   1      29.716  18.086   9.332  0.00  0.00     0.000 A 
HETATM   34  C   UNK N   1      28.448  18.470   8.896  0.00  0.00     0.003 A 
HETATM   35  C   UNK N   1      28.100  18.316   7.552  0.00  0.00     0.037 A 
ENDBRANCH  29  30
ENDBRANCH  26  29
ENDBRANCH  22  23
ENDBRANCH   1  22
TORSDOF 7
ENDMDL
MODEL 8
REMARK VINA RESULT:      -7.9      7.209     11.441
REMARK  7 active torsions:
REMARK  status: ('A' for Active; 'I' for Inactive)
REMARK    1  A    between atoms: C_4  and  O_7 
REMARK    2  A    between atoms: O_7  and  C_8 
REMARK    3  A    between atoms: C_11  and  C_14 
REMARK    4  A    between atoms: C_14  and  N_15 
REMARK       I    between atoms: N_15  and  C_16 
REMARK    5  A    between atoms: C_16  and  C_18 
REMARK    6  A    between atoms: C_21  and  C_25 
REMARK    7  A    between atoms: C_28  and  O_32 
ROOT
HETATM    1  N   UNK N   1      26.079  18.315   4.779  0.00  0.00    -0.350 N 
HETATM    2  C   UNK N   1      24.905  18.697   4.246  0.00  0.00     0.295 C 
HETATM    3  O   UNK N   1      24.853  19.628   3.455  0.00  0.00    -0.264 OA
HETATM    4  H   UNK N   1      26.074  17.698   5.546  0.00  0.00     0.163 HD
ENDROOT
BRANCH   2   5
HETATM    5  C   UNK N   1      23.692  17.955   4.581  0.00  0.00     0.240 A 
HETATM    6  N   UNK N   1      23.331  17.662   5.834  0.00  0.00    -0.315 N 
HETATM    7  C   UNK N   1      22.162  17.020   5.669  0.00  0.00     0.138 A 
ATOM      8  HN  UNK N   1      23.822  17.876   6.703  1.00  0.00     0.169 HD
HETATM    9  N   UNK N   1      21.824  16.939   4.367  0.00  0.00    -0.242 N 
HETATM   10  O   UNK N   1      22.794  17.521   3.724  0.00  0.00    -0.212 OA
ATOM     11  HN  UNK N   1      20.986  16.512   3.970  1.00  0.00     0.196 HD
BRANCH   7  12
HETATM   12  C   UNK N   1      21.447  16.403   6.785  0.00  0.00     0.013 A 
HETATM   13  C   UNK N   1      21.882  15.150   7.215  0.00  0.00     0.037 A 
HETATM   14  C   UNK N   1      21.200  14.460   8.207  0.00  0.00     0.046 A 
HETATM   15  C   UNK N   1      20.070  15.034   8.801  0.00  0.00     0.100 A 
HETATM   16 Br   UNK N   1      21.820  12.722   8.697  0.00  0.00    -0.048 Br
HETATM   17  C   UNK N   1      19.633  16.307   8.390  0.00  0.00     0.046 A 
HETATM   18  C   UNK N   1      20.314  16.984   7.368  0.00  0.00     0.037 A 
HETATM   19 Br   UNK N   1      18.104  17.115   9.201  0.00  0.00    -0.048 Br
BRANCH  15  20
HETATM   20  O   UNK N   1      19.405  14.365   9.760  0.00  0.00    -0.358 OA
HETATM   21  H   UNK N   1      19.641  13.481   9.964  0.00  0.00     0.217 HD
ENDBRANCH  15  20
ENDBRANCH   7  12
ENDBRANCH   2   5
BRANCH   1  22
HETATM   22  C   UNK N   1      27.347  18.774   4.269  0.00  0.00     0.161 C 
BRANCH  22  23
HETATM   23  C   UNK N   1      28.330  18.456   5.333  0.00  0.00    -0.040 A 
HETATM   24  C   UNK N   1      28.043  18.739   6.670  0.00  0.00     0.011 A 
HETATM   25  C   UNK N   1      28.869  18.231   7.679  0.00  0.00     0.038 A 
HETATM   26  C   UNK N   1      29.952  17.404   7.353  0.00  0.00     0.076 A 
HETATM   27  C   UNK N   1      30.262  17.171   6.007  0.00  0.00     0.038 A 
HETATM   28  C   UNK N   1      29.459  17.696   5.005  0.00  0.00     0.011 A 
BRANCH  26  29
HETATM   29  O   UNK N   1      30.653  16.812   8.354  0.00  0.00    -0.311 OA
BRANCH  29  30
HETATM   30  C   UNK N   1      32.012  16.732   8.438  0.00  0.00     0.076 A 
HETATM   31  C   UNK N   1      32.612  15.469   8.460  0.00  0.00     0.037 A 
HETATM   32  C   UNK N   1      34.004  15.347   8.491  0.00  0.00     0.003 A 
HETATM   33  C   UNK N   1      34.810  16.490   8.494  0.00  0.00     0.000 A 
HETATM   34  C   UNK N   1      34.225  17.756   8.469  0.00  0.00     0.003 A 
HETATM   35  C   UNK N   1      32.834  17.878   8.436  0.00  0.00     0.037 A 
ENDBRANCH  29  30
ENDBRANCH  26  29
ENDBRANCH  22  23
ENDBRANCH   1  22
TORSDOF 7
ENDMDL
MODEL 9
REMARK VINA RESULT:      -7.8      2.558      4.094
REMARK  7 active torsions:
REMARK  status: ('A' for Active; 'I' for Inactive)
REMARK    1  A    between atoms: C_4  and  O_7 
REMARK    2  A    between atoms: O_7  and  C_8 
REMARK    3  A    between atoms: C_11  and  C_14 
REMARK    4  A    between atoms: C_14  and  N_15 
REMARK       I    between atoms: N_15  and  C_16 
REMARK    5  A    between atoms: C_16  and  C_18 
REMARK    6  A    between atoms: C_21  and  C_25 
REMARK    7  A    between atoms: C_28  and  O_32 
ROOT
HETATM    1  N   UNK N   1      33.769  16.990   8.994  0.00  0.00    -0.350 N 
HETATM    2  C   UNK N   1      33.732  17.478   7.742  0.00  0.00     0.295 C 
HETATM    3  O   UNK N   1      34.621  18.211   7.332  0.00  0.00    -0.264 OA
HETATM    4  H   UNK N   1      32.961  16.563   9.361  0.00  0.00     0.163 HD
ENDROOT
BRANCH   2   5
HETATM    5  C   UNK N   1      32.645  17.081   6.850  0.00  0.00     0.240 A 
HETATM    6  N   UNK N   1      31.395  17.542   6.964  0.00  0.00    -0.315 N 
HETATM    7  C   UNK N   1      30.761  16.950   5.937  0.00  0.00     0.138 A 
ATOM      8  HN  UNK N   1      31.017  18.187   7.658  1.00  0.00     0.169 HD
HETATM    9  N   UNK N   1      31.599  16.171   5.224  0.00  0.00    -0.242 N 
HETATM   10  O   UNK N   1      32.751  16.271   5.820  0.00  0.00    -0.212 OA
ATOM     11  HN  UNK N   1      31.377  15.621   4.394  1.00  0.00     0.196 HD
BRANCH   7  12
HETATM   12  C   UNK N   1      29.319  17.076   5.735  0.00  0.00     0.013 A 
HETATM   13  C   UNK N   1      28.864  18.179   5.012  0.00  0.00     0.037 A 
HETATM   14  C   UNK N   1      27.506  18.417   4.854  0.00  0.00     0.046 A 
HETATM   15  C   UNK N   1      26.576  17.530   5.410  0.00  0.00     0.100 A 
HETATM   16 Br   UNK N   1      26.962  19.982   3.906  0.00  0.00    -0.048 Br
HETATM   17  C   UNK N   1      27.023  16.403   6.124  0.00  0.00     0.046 A 
HETATM   18  C   UNK N   1      28.397  16.186   6.300  0.00  0.00     0.037 A 
HETATM   19 Br   UNK N   1      25.770  15.172   6.875  0.00  0.00    -0.048 Br
BRANCH  15  20
HETATM   20  O   UNK N   1      25.260  17.762   5.262  0.00  0.00    -0.358 OA
HETATM   21  H   UNK N   1      24.966  18.545   4.837  0.00  0.00     0.217 HD
ENDBRANCH  15  20
ENDBRANCH   7  12
ENDBRANCH   2   5
BRANCH   1  22
HETATM   22  C   UNK N   1      34.946  17.068   9.822  0.00  0.00     0.161 C 
BRANCH  22  23
HETATM   23  C   UNK N   1      34.990  15.779  10.555  0.00  0.00    -0.040 A 
HETATM   24  C   UNK N   1      34.527  14.607   9.954  0.00  0.00     0.011 A 
HETATM   25  C   UNK N   1      34.781  13.371  10.559  0.00  0.00     0.038 A 
HETATM   26  C   UNK N   1      35.536  13.305  11.738  0.00  0.00     0.076 A 
HETATM   27  C   UNK N   1      35.949  14.491  12.359  0.00  0.00     0.038 A 
HETATM   28  C   UNK N   1      35.675  15.718  11.775  0.00  0.00     0.011 A 
BRANCH  26  29
HETATM   29  O   UNK N   1      35.887  12.089  12.229  0.00  0.00    -0.311 OA
BRANCH  29  30
HETATM   30  C   UNK N   1      35.475  11.557  13.414  0.00  0.00     0.076 A 
HETATM   31  C   UNK N   1      36.376  11.514  14.483  0.00  0.00     0.037 A 
HETATM   32  C   UNK N   1      35.973  11.026  15.729  0.00  0.00     0.003 A 
HETATM   33  C   UNK N   1      34.660  10.581  15.920  0.00  0.00     0.000 A 
HETATM   34  C   UNK N   1      33.750  10.622  14.863  0.00  0.00     0.003 A 
HETATM   35  C   UNK N   1      34.153  11.112  13.619  0.00  0.00     0.037 A 
ENDBRANCH  29  30
ENDBRANCH  26  29
ENDBRANCH  22  23
ENDBRANCH   1  22
TORSDOF 7
ENDMDL
