MODEL 1
REMARK VINA RESULT:      -8.3      0.000      0.000
REMARK  5 active torsions:
REMARK  status: ('A' for Active; 'I' for Inactive)
REMARK       I    between atoms: N_9  and  C_12 
REMARK       I    between atoms: C_12  and  N_14 
REMARK    1  A    between atoms: N_14  and  C_15 
REMARK    2  A    between atoms: C_15  and  C_16 
REMARK    3  A    between atoms: N_19  and  C_22 
REMARK    4  A    between atoms: C_22  and  C_23 
REMARK    5  A    between atoms: C_23  and  O_29 
ROOT
HETATM    1  C   UNK N   1      28.165  17.296   9.347  0.00  0.00     0.030 C 
HETATM    2  C   UNK N   1      29.188  18.042   8.507  0.00  0.00     0.064 A 
HETATM    3  C   UNK N   1      28.566  18.685   7.304  0.00  0.00    -0.013 A 
HETATM    4  C   UNK N   1      27.597  19.690   7.273  0.00  0.00     0.014 A 
HETATM    5  C   UNK N   1      27.162  20.163   6.027  0.00  0.00     0.043 A 
HETATM    6  C   UNK N   1      27.694  19.627   4.839  0.00  0.00     0.118 A 
HETATM    7  C   UNK N   1      28.664  18.615   4.894  0.00  0.00     0.073 A 
HETATM    8  C   UNK N   1      29.089  18.158   6.147  0.00  0.00     0.057 A 
HETATM    9  N   UNK N   1      30.052  17.162   6.433  0.00  0.00    -0.232 N 
HETATM   10  C   UNK N   1      30.131  17.091   7.798  0.00  0.00     0.245 A 
HETATM   11  O   UNK N   1      30.900  16.385   8.421  0.00  0.00    -0.271 OA
HETATM   12  C   UNK N   1      30.739  16.474   5.431  0.00  0.00     0.329 C 
HETATM   13  O   UNK N   1      30.540  16.786   4.269  0.00  0.00    -0.246 OA
HETATM   14  N   UNK N   1      31.631  15.456   5.636  0.00  0.00    -0.342 N 
HETATM   15  F   UNK N   1      27.271  20.092   3.640  0.00  0.00    -0.206 F 
HETATM   16  C   UNK N   1      29.946  19.053   9.349  0.00  0.00     0.030 C 
HETATM   17  H   UNK N   1      32.107  15.152   4.830  0.00  0.00     0.164 HD
ENDROOT
BRANCH  14  18
HETATM   18  C   UNK N   1      31.979  14.763   6.843  0.00  0.00     0.129 C 
BRANCH  18  19
HETATM   19  C   UNK N   1      33.442  14.337   6.787  0.00  0.00     0.007 C 
HETATM   20  C   UNK N   1      34.358  15.507   7.150  0.00  0.00     0.036 C 
HETATM   21  C   UNK N   1      34.264  15.789   8.645  0.00  0.00     0.273 C 
HETATM   22  N   UNK N   1      34.674  14.598   9.388  0.00  0.00     0.091 N 
HETATM   23  C   UNK N   1      33.674  13.555   9.176  0.00  0.00     0.273 C 
HETATM   24  C   UNK N   1      33.700  13.135   7.703  0.00  0.00     0.036 C 
BRANCH  22  25
HETATM   25  C   UNK N   1      34.703  14.957  10.800  0.00  0.00     0.310 C 
BRANCH  25  26
HETATM   26  C   UNK N   1      36.144  14.964  11.352  0.00  0.00     0.088 C 
HETATM   27  C   UNK N   1      36.102  15.020  12.882  0.00  0.00     0.066 C 
HETATM   28  C   UNK N   1      35.695  13.661  13.451  0.00  0.00     0.170 C 
HETATM   29  O   UNK N   1      36.635  12.697  13.049  0.00  0.00    -0.391 OA
HETATM   30  C   UNK N   1      36.418  12.486  11.676  0.00  0.00     0.170 C 
HETATM   31  C   UNK N   1      36.898  13.710  10.890  0.00  0.00     0.066 C 
BRANCH  26  32
HETATM   32  O   UNK N   1      36.843  16.086  10.900  0.00  0.00    -0.388 OA
HETATM   33  H   UNK N   1      37.355  16.845  11.220  0.00  0.00     0.210 HD
ENDBRANCH  26  32
ENDBRANCH  25  26
ENDBRANCH  22  25
ENDBRANCH  18  19
ENDBRANCH  14  18
TORSDOF 5
ENDMDL
MODEL 2
REMARK VINA RESULT:      -7.9      4.425     10.167
REMARK  5 active torsions:
REMARK  status: ('A' for Active; 'I' for Inactive)
REMARK       I    between atoms: N_9  and  C_12 
REMARK       I    between atoms: C_12  and  N_14 
REMARK    1  A    between atoms: N_14  and  C_15 
REMARK    2  A    between atoms: C_15  and  C_16 
REMARK    3  A    between atoms: N_19  and  C_22 
REMARK    4  A    between atoms: C_22  and  C_23 
REMARK    5  A    between atoms: C_23  and  O_29 
ROOT
HETATM    1  C   UNK N   1      33.816  10.055  13.514  0.00  0.00     0.030 C 
HETATM    2  C   UNK N   1      35.213  10.419  13.989  0.00  0.00     0.064 A 
HETATM    3  C   UNK N   1      35.210  10.942  15.393  0.00  0.00    -0.013 A 
HETATM    4  C   UNK N   1      34.835  10.271  16.559  0.00  0.00     0.014 A 
HETATM    5  C   UNK N   1      34.926  10.951  17.782  0.00  0.00     0.043 A 
HETATM    6  C   UNK N   1      35.384  12.281  17.823  0.00  0.00     0.118 A 
HETATM    7  C   UNK N   1      35.752  12.937  16.639  0.00  0.00     0.073 A 
HETATM    8  C   UNK N   1      35.658  12.242  15.428  0.00  0.00     0.057 A 
HETATM    9  N   UNK N   1      35.981  12.702  14.129  0.00  0.00    -0.232 N 
HETATM   10  C   UNK N   1      35.741  11.652  13.284  0.00  0.00     0.245 A 
HETATM   11  O   UNK N   1      35.958  11.650  12.088  0.00  0.00    -0.271 OA
HETATM   12  C   UNK N   1      36.466  13.988  13.889  0.00  0.00     0.329 C 
HETATM   13  O   UNK N   1      36.671  14.721  14.842  0.00  0.00    -0.246 OA
HETATM   14  N   UNK N   1      36.733  14.519  12.655  0.00  0.00    -0.342 N 
HETATM   15  F   UNK N   1      35.472  12.928  19.009  0.00  0.00    -0.206 F 
HETATM   16  C   UNK N   1      36.160   9.242  13.836  0.00  0.00     0.030 C 
HETATM   17  H   UNK N   1      37.170  15.400  12.667  0.00  0.00     0.164 HD
ENDROOT
BRANCH  14  18
HETATM   18  C   UNK N   1      36.475  13.988  11.347  0.00  0.00     0.129 C 
BRANCH  18  19
HETATM   19  C   UNK N   1      36.729  15.064  10.298  0.00  0.00     0.007 C 
HETATM   20  C   UNK N   1      36.352  14.559   8.904  0.00  0.00     0.036 C 
HETATM   21  C   UNK N   1      34.835  14.478   8.780  0.00  0.00     0.273 C 
HETATM   22  N   UNK N   1      34.261  15.807   8.989  0.00  0.00     0.091 N 
HETATM   23  C   UNK N   1      34.468  16.183  10.385  0.00  0.00     0.273 C 
HETATM   24  C   UNK N   1      35.969  16.352  10.637  0.00  0.00     0.036 C 
BRANCH  22  25
HETATM   25  C   UNK N   1      32.832  15.709   8.723  0.00  0.00     0.310 C 
BRANCH  25  26
HETATM   26  C   UNK N   1      32.281  17.011   8.107  0.00  0.00     0.088 C 
HETATM   27  C   UNK N   1      33.424  17.779   7.434  0.00  0.00     0.066 C 
HETATM   28  C   UNK N   1      33.812  17.104   6.119  0.00  0.00     0.170 C 
HETATM   29  O   UNK N   1      32.697  17.092   5.264  0.00  0.00    -0.391 OA
HETATM   30  C   UNK N   1      31.806  16.143   5.795  0.00  0.00     0.170 C 
HETATM   31  C   UNK N   1      31.184  16.694   7.083  0.00  0.00     0.066 C 
BRANCH  26  32
HETATM   32  O   UNK N   1      31.734  17.835   9.094  0.00  0.00    -0.388 OA
HETATM   33  H   UNK N   1      30.948  17.933   9.655  0.00  0.00     0.210 HD
ENDBRANCH  26  32
ENDBRANCH  25  26
ENDBRANCH  22  25
ENDBRANCH  18  19
ENDBRANCH  14  18
TORSDOF 5
ENDMDL
MODEL 3
REMARK VINA RESULT:      -7.9      8.372     11.601
REMARK  5 active torsions:
REMARK  status: ('A' for Active; 'I' for Inactive)
REMARK       I    between atoms: N_9  and  C_12 
REMARK       I    between atoms: C_12  and  N_14 
REMARK    1  A    between atoms: N_14  and  C_15 
REMARK    2  A    between atoms: C_15  and  C_16 
REMARK    3  A    between atoms: N_19  and  C_22 
REMARK    4  A    between atoms: C_22  and  C_23 
REMARK    5  A    between atoms: C_23  and  O_29 
ROOT
HETATM    1  C   UNK N   1      24.167  11.766   6.764  0.00  0.00     0.030 C 
HETATM    2  C   UNK N   1      23.904  12.989   7.627  0.00  0.00     0.064 A 
HETATM    3  C   UNK N   1      23.172  12.641   8.887  0.00  0.00    -0.013 A 
HETATM    4  C   UNK N   1      23.604  11.822   9.932  0.00  0.00     0.014 A 
HETATM    5  C   UNK N   1      22.758  11.641  11.036  0.00  0.00     0.043 A 
HETATM    6  C   UNK N   1      21.502  12.276  11.079  0.00  0.00     0.118 A 
HETATM    7  C   UNK N   1      21.088  13.092  10.016  0.00  0.00     0.073 A 
HETATM    8  C   UNK N   1      21.946  13.262   8.924  0.00  0.00     0.057 A 
HETATM    9  N   UNK N   1      21.736  14.040   7.761  0.00  0.00    -0.232 N 
HETATM   10  C   UNK N   1      22.868  13.903   7.003  0.00  0.00     0.245 A 
HETATM   11  O   UNK N   1      23.083  14.474   5.951  0.00  0.00    -0.271 OA
HETATM   12  C   UNK N   1      20.570  14.779   7.553  0.00  0.00     0.329 C 
HETATM   13  O   UNK N   1      19.728  14.797   8.436  0.00  0.00    -0.246 OA
HETATM   14  N   UNK N   1      20.274  15.495   6.425  0.00  0.00    -0.342 N 
HETATM   15  F   UNK N   1      20.694  12.101  12.151  0.00  0.00    -0.206 F 
HETATM   16  C   UNK N   1      25.196  13.732   7.920  0.00  0.00     0.030 C 
HETATM   17  H   UNK N   1      19.460  16.045   6.483  0.00  0.00     0.164 HD
ENDROOT
BRANCH  14  18
HETATM   18  C   UNK N   1      20.967  15.568   5.170  0.00  0.00     0.129 C 
BRANCH  18  19
HETATM   19  C   UNK N   1      20.798  16.959   4.571  0.00  0.00     0.007 C 
HETATM   20  C   UNK N   1      21.214  18.033   5.577  0.00  0.00     0.036 C 
HETATM   21  C   UNK N   1      22.731  18.036   5.729  0.00  0.00     0.273 C 
HETATM   22  N   UNK N   1      23.346  18.317   4.432  0.00  0.00     0.091 N 
HETATM   23  C   UNK N   1      23.095  17.183   3.547  0.00  0.00     0.273 C 
HETATM   24  C   UNK N   1      21.592  17.095   3.266  0.00  0.00     0.036 C 
BRANCH  22  25
HETATM   25  C   UNK N   1      24.780  18.449   4.652  0.00  0.00     0.310 C 
BRANCH  25  26
HETATM   26  C   UNK N   1      25.273  19.874   4.327  0.00  0.00     0.088 C 
HETATM   27  C   UNK N   1      25.700  20.572   5.623  0.00  0.00     0.066 C 
HETATM   28  C   UNK N   1      27.042  20.019   6.103  0.00  0.00     0.170 C 
HETATM   29  O   UNK N   1      28.012  20.248   5.113  0.00  0.00    -0.391 OA
HETATM   30  C   UNK N   1      27.720  19.359   4.064  0.00  0.00     0.170 C 
HETATM   31  C   UNK N   1      26.449  19.821   3.344  0.00  0.00     0.066 C 
BRANCH  26  32
HETATM   32  O   UNK N   1      24.252  20.632   3.748  0.00  0.00    -0.388 OA
HETATM   33  H   UNK N   1      23.687  21.403   3.915  0.00  0.00     0.210 HD
ENDBRANCH  26  32
ENDBRANCH  25  26
ENDBRANCH  22  25
ENDBRANCH  18  19
ENDBRANCH  14  18
TORSDOF 5
ENDMDL
MODEL 4
REMARK VINA RESULT:      -7.8      4.621     10.398
REMARK  5 active torsions:
REMARK  status: ('A' for Active; 'I' for Inactive)
REMARK       I    between atoms: N_9  and  C_12 
REMARK       I    between atoms: C_12  and  N_14 
REMARK    1  A    between atoms: N_14  and  C_15 
REMARK    2  A    between atoms: C_15  and  C_16 
REMARK    3  A    between atoms: N_19  and  C_22 
REMARK    4  A    between atoms: C_22  and  C_23 
REMARK    5  A    between atoms: C_23  and  O_29 
ROOT
HETATM    1  C   UNK N   1      35.290   9.157  14.825  0.00  0.00     0.030 C 
HETATM    2  C   UNK N   1      36.411  10.113  15.201  0.00  0.00     0.064 A 
HETATM    3  C   UNK N   1      35.984  11.097  16.246  0.00  0.00    -0.013 A 
HETATM    4  C   UNK N   1      35.578  10.836  17.556  0.00  0.00     0.014 A 
HETATM    5  C   UNK N   1      35.232  11.917  18.379  0.00  0.00     0.043 A 
HETATM    6  C   UNK N   1      35.295  13.234  17.885  0.00  0.00     0.118 A 
HETATM    7  C   UNK N   1      35.703  13.473  16.564  0.00  0.00     0.073 A 
HETATM    8  C   UNK N   1      36.047  12.381  15.758  0.00  0.00     0.057 A 
HETATM    9  N   UNK N   1      36.489  12.392  14.414  0.00  0.00    -0.232 N 
HETATM   10  C   UNK N   1      36.717  11.085  14.079  0.00  0.00     0.245 A 
HETATM   11  O   UNK N   1      37.164  10.701  13.016  0.00  0.00    -0.271 OA
HETATM   12  C   UNK N   1      36.646  13.573  13.687  0.00  0.00     0.329 C 
HETATM   13  O   UNK N   1      36.448  14.636  14.252  0.00  0.00    -0.246 OA
HETATM   14  N   UNK N   1      37.002  13.652  12.367  0.00  0.00    -0.342 N 
HETATM   15  F   UNK N   1      34.965  14.273  18.688  0.00  0.00    -0.206 F 
HETATM   16  C   UNK N   1      37.652   9.349  15.628  0.00  0.00     0.030 C 
HETATM   17  H   UNK N   1      37.173  14.562  12.036  0.00  0.00     0.164 HD
ENDROOT
BRANCH  14  18
HETATM   18  C   UNK N   1      37.166  12.611  11.392  0.00  0.00     0.129 C 
BRANCH  18  19
HETATM   19  C   UNK N   1      37.784  13.189  10.124  0.00  0.00     0.007 C 
HETATM   20  C   UNK N   1      37.217  12.496   8.884  0.00  0.00     0.036 C 
HETATM   21  C   UNK N   1      35.777  12.943   8.657  0.00  0.00     0.273 C 
HETATM   22  N   UNK N   1      35.746  14.392   8.464  0.00  0.00     0.091 N 
HETATM   23  C   UNK N   1      36.107  15.034   9.725  0.00  0.00     0.273 C 
HETATM   24  C   UNK N   1      37.567  14.706  10.050  0.00  0.00     0.036 C 
BRANCH  22  25
HETATM   25  C   UNK N   1      34.379  14.753   8.113  0.00  0.00     0.310 C 
BRANCH  25  26
HETATM   26  C   UNK N   1      34.344  15.779   6.961  0.00  0.00     0.088 C 
HETATM   27  C   UNK N   1      33.115  15.517   6.084  0.00  0.00     0.066 C 
HETATM   28  C   UNK N   1      31.848  15.994   6.793  0.00  0.00     0.170 C 
HETATM   29  O   UNK N   1      31.953  17.374   7.041  0.00  0.00    -0.391 OA
HETATM   30  C   UNK N   1      32.901  17.515   8.070  0.00  0.00     0.170 C 
HETATM   31  C   UNK N   1      34.298  17.207   7.521  0.00  0.00     0.066 C 
BRANCH  26  32
HETATM   32  O   UNK N   1      35.480  15.661   6.156  0.00  0.00    -0.388 OA
HETATM   33  H   UNK N   1      36.255  16.159   5.854  0.00  0.00     0.210 HD
ENDBRANCH  26  32
ENDBRANCH  25  26
ENDBRANCH  22  25
ENDBRANCH  18  19
ENDBRANCH  14  18
TORSDOF 5
ENDMDL
MODEL 5
REMARK VINA RESULT:      -7.6      3.638      9.364
REMARK  5 active torsions:
REMARK  status: ('A' for Active; 'I' for Inactive)
REMARK       I    between atoms: N_9  and  C_12 
REMARK       I    between atoms: C_12  and  N_14 
REMARK    1  A    between atoms: N_14  and  C_15 
REMARK    2  A    between atoms: C_15  and  C_16 
REMARK    3  A    between atoms: N_19  and  C_22 
REMARK    4  A    between atoms: C_22  and  C_23 
REMARK    5  A    between atoms: C_23  and  O_29 
ROOT
HETATM    1  C   UNK N   1      35.299  11.787   9.471  0.00  0.00     0.030 C 
HETATM    2  C   UNK N   1      36.316  12.855   9.834  0.00  0.00     0.064 A 
HETATM    3  C   UNK N   1      36.400  13.071  11.314  0.00  0.00    -0.013 A 
HETATM    4  C   UNK N   1      36.799  12.158  12.293  0.00  0.00     0.014 A 
HETATM    5  C   UNK N   1      36.820  12.578  13.631  0.00  0.00     0.043 A 
HETATM    6  C   UNK N   1      36.443  13.891  13.970  0.00  0.00     0.118 A 
HETATM    7  C   UNK N   1      36.043  14.790  12.970  0.00  0.00     0.073 A 
HETATM    8  C   UNK N   1      36.031  14.355  11.639  0.00  0.00     0.057 A 
HETATM    9  N   UNK N   1      35.674  15.088  10.483  0.00  0.00    -0.232 N 
HETATM   10  C   UNK N   1      35.847  14.237   9.425  0.00  0.00     0.245 A 
HETATM   11  O   UNK N   1      35.695  14.531   8.256  0.00  0.00    -0.271 OA
HETATM   12  C   UNK N   1      35.267  16.422  10.538  0.00  0.00     0.329 C 
HETATM   13  O   UNK N   1      35.274  16.990  11.618  0.00  0.00    -0.246 OA
HETATM   14  N   UNK N   1      34.845  17.168   9.471  0.00  0.00    -0.342 N 
HETATM   15  F   UNK N   1      36.470  14.289  15.263  0.00  0.00    -0.206 F 
HETATM   16  C   UNK N   1      37.676  12.532   9.240  0.00  0.00     0.030 C 
HETATM   17  H   UNK N   1      34.696  18.122   9.663  0.00  0.00     0.164 HD
ENDROOT
BRANCH  14  18
HETATM   18  C   UNK N   1      34.586  16.775   8.115  0.00  0.00     0.129 C 
BRANCH  18  19
HETATM   19  C   UNK N   1      33.832  17.887   7.394  0.00  0.00     0.007 C 
HETATM   20  C   UNK N   1      33.540  17.489   5.946  0.00  0.00     0.036 C 
HETATM   21  C   UNK N   1      32.452  16.422   5.915  0.00  0.00     0.273 C 
HETATM   22  N   UNK N   1      31.236  16.954   6.530  0.00  0.00     0.091 N 
HETATM   23  C   UNK N   1      31.486  17.143   7.956  0.00  0.00     0.273 C 
HETATM   24  C   UNK N   1      32.537  18.242   8.135  0.00  0.00     0.036 C 
BRANCH  22  25
HETATM   25  C   UNK N   1      30.189  15.957   6.352  0.00  0.00     0.310 C 
BRANCH  25  26
HETATM   26  C   UNK N   1      28.874  16.599   5.864  0.00  0.00     0.088 C 
HETATM   27  C   UNK N   1      29.161  17.480   4.644  0.00  0.00     0.066 C 
HETATM   28  C   UNK N   1      29.408  16.611   3.411  0.00  0.00     0.170 C 
HETATM   29  O   UNK N   1      28.264  15.833   3.162  0.00  0.00    -0.391 OA
HETATM   30  C   UNK N   1      28.227  14.856   4.172  0.00  0.00     0.170 C 
HETATM   31  C   UNK N   1      27.851  15.513   5.504  0.00  0.00     0.066 C 
BRANCH  26  32
HETATM   32  O   UNK N   1      28.319  17.410   6.858  0.00  0.00    -0.388 OA
HETATM   33  H   UNK N   1      27.501  17.547   7.361  0.00  0.00     0.210 HD
ENDBRANCH  26  32
ENDBRANCH  25  26
ENDBRANCH  22  25
ENDBRANCH  18  19
ENDBRANCH  14  18
TORSDOF 5
ENDMDL
MODEL 6
REMARK VINA RESULT:      -7.6      1.566      2.653
REMARK  5 active torsions:
REMARK  status: ('A' for Active; 'I' for Inactive)
REMARK       I    between atoms: N_9  and  C_12 
REMARK       I    between atoms: C_12  and  N_14 
REMARK    1  A    between atoms: N_14  and  C_15 
REMARK    2  A    between atoms: C_15  and  C_16 
REMARK    3  A    between atoms: N_19  and  C_22 
REMARK    4  A    between atoms: C_22  and  C_23 
REMARK    5  A    between atoms: C_23  and  O_29 
ROOT
HETATM    1  C   UNK N   1      29.299  16.834   3.431  0.00  0.00     0.030 C 
HETATM    2  C   UNK N   1      28.508  16.725   4.724  0.00  0.00     0.064 A 
HETATM    3  C   UNK N   1      27.837  18.015   5.083  0.00  0.00    -0.013 A 
HETATM    4  C   UNK N   1      26.849  18.697   4.370  0.00  0.00     0.014 A 
HETATM    5  C   UNK N   1      26.344  19.892   4.900  0.00  0.00     0.043 A 
HETATM    6  C   UNK N   1      26.831  20.388   6.125  0.00  0.00     0.118 A 
HETATM    7  C   UNK N   1      27.826  19.688   6.823  0.00  0.00     0.073 A 
HETATM    8  C   UNK N   1      28.316  18.495   6.279  0.00  0.00     0.057 A 
HETATM    9  N   UNK N   1      29.304  17.633   6.812  0.00  0.00    -0.232 N 
HETATM   10  C   UNK N   1      29.418  16.594   5.929  0.00  0.00     0.245 A 
HETATM   11  O   UNK N   1      30.131  15.620   6.077  0.00  0.00    -0.271 OA
HETATM   12  C   UNK N   1      29.946  17.888   8.025  0.00  0.00     0.329 C 
HETATM   13  O   UNK N   1      29.600  18.862   8.674  0.00  0.00    -0.246 OA
HETATM   14  N   UNK N   1      30.954  17.135   8.564  0.00  0.00    -0.342 N 
HETATM   15  F   UNK N   1      26.334  21.540   6.632  0.00  0.00    -0.206 F 
HETATM   16  C   UNK N   1      27.511  15.581   4.653  0.00  0.00     0.030 C 
HETATM   17  H   UNK N   1      31.223  17.391   9.475  0.00  0.00     0.164 HD
ENDROOT
BRANCH  14  18
HETATM   18  C   UNK N   1      31.681  16.030   8.005  0.00  0.00     0.129 C 
BRANCH  18  19
HETATM   19  C   UNK N   1      33.122  16.446   7.738  0.00  0.00     0.007 C 
HETATM   20  C   UNK N   1      33.768  16.999   9.010  0.00  0.00     0.036 C 
HETATM   21  C   UNK N   1      34.040  15.860   9.986  0.00  0.00     0.273 C 
HETATM   22  N   UNK N   1      34.941  14.893   9.361  0.00  0.00     0.091 N 
HETATM   23  C   UNK N   1      34.229  14.240   8.266  0.00  0.00     0.273 C 
HETATM   24  C   UNK N   1      33.937  15.275   7.176  0.00  0.00     0.036 C 
BRANCH  22  25
HETATM   25  C   UNK N   1      35.283  13.902  10.373  0.00  0.00     0.310 C 
BRANCH  25  26
HETATM   26  C   UNK N   1      36.563  14.294  11.139  0.00  0.00     0.088 C 
HETATM   27  C   UNK N   1      36.187  14.784  12.541  0.00  0.00     0.066 C 
HETATM   28  C   UNK N   1      35.799  13.601  13.428  0.00  0.00     0.170 C 
HETATM   29  O   UNK N   1      36.891  12.722  13.522  0.00  0.00    -0.391 OA
HETATM   30  C   UNK N   1      36.996  12.091  12.270  0.00  0.00     0.170 C 
HETATM   31  C   UNK N   1      37.515  13.095  11.236  0.00  0.00     0.066 C 
BRANCH  26  32
HETATM   32  O   UNK N   1      37.233  15.333  10.486  0.00  0.00    -0.388 OA
HETATM   33  H   UNK N   1      38.103  15.575  10.133  0.00  0.00     0.210 HD
ENDBRANCH  26  32
ENDBRANCH  25  26
ENDBRANCH  22  25
ENDBRANCH  18  19
ENDBRANCH  14  18
TORSDOF 5
ENDMDL
MODEL 7
REMARK VINA RESULT:      -7.5      4.945      7.424
REMARK  5 active torsions:
REMARK  status: ('A' for Active; 'I' for Inactive)
REMARK       I    between atoms: N_9  and  C_12 
REMARK       I    between atoms: C_12  and  N_14 
REMARK    1  A    between atoms: N_14  and  C_15 
REMARK    2  A    between atoms: C_15  and  C_16 
REMARK    3  A    between atoms: N_19  and  C_22 
REMARK    4  A    between atoms: C_22  and  C_23 
REMARK    5  A    between atoms: C_23  and  O_29 
ROOT
HETATM    1  C   UNK N   1      21.750  15.611   3.752  0.00  0.00     0.030 C 
HETATM    2  C   UNK N   1      21.804  16.911   4.536  0.00  0.00     0.064 A 
HETATM    3  C   UNK N   1      21.330  18.077   3.724  0.00  0.00    -0.013 A 
HETATM    4  C   UNK N   1      20.057  18.289   3.188  0.00  0.00     0.014 A 
HETATM    5  C   UNK N   1      19.822  19.468   2.466  0.00  0.00     0.043 A 
HETATM    6  C   UNK N   1      20.853  20.410   2.290  0.00  0.00     0.118 A 
HETATM    7  C   UNK N   1      22.124  20.175   2.835  0.00  0.00     0.073 A 
HETATM    8  C   UNK N   1      22.340  18.994   3.554  0.00  0.00     0.057 A 
HETATM    9  N   UNK N   1      23.528  18.563   4.189  0.00  0.00    -0.232 N 
HETATM   10  C   UNK N   1      23.231  17.362   4.775  0.00  0.00     0.245 A 
HETATM   11  O   UNK N   1      23.991  16.710   5.465  0.00  0.00    -0.271 OA
HETATM   12  C   UNK N   1      24.703  19.317   4.173  0.00  0.00     0.329 C 
HETATM   13  O   UNK N   1      24.684  20.413   3.639  0.00  0.00    -0.246 OA
HETATM   14  N   UNK N   1      25.902  18.930   4.707  0.00  0.00    -0.342 N 
HETATM   15  F   UNK N   1      20.615  21.548   1.596  0.00  0.00    -0.206 F 
HETATM   16  C   UNK N   1      21.034  16.789   5.839  0.00  0.00     0.030 C 
HETATM   17  H   UNK N   1      26.601  19.622   4.705  0.00  0.00     0.164 HD
ENDROOT
BRANCH  14  18
HETATM   18  C   UNK N   1      26.299  17.670   5.269  0.00  0.00     0.129 C 
BRANCH  18  19
HETATM   19  C   UNK N   1      27.343  17.014   4.373  0.00  0.00     0.007 C 
HETATM   20  C   UNK N   1      28.542  17.944   4.173  0.00  0.00     0.036 C 
HETATM   21  C   UNK N   1      29.359  18.013   5.458  0.00  0.00     0.273 C 
HETATM   22  N   UNK N   1      29.832  16.673   5.803  0.00  0.00     0.091 N 
HETATM   23  C   UNK N   1      28.680  15.859   6.177  0.00  0.00     0.273 C 
HETATM   24  C   UNK N   1      27.789  15.664   4.947  0.00  0.00     0.036 C 
BRANCH  22  25
HETATM   25  C   UNK N   1      30.720  16.809   6.950  0.00  0.00     0.310 C 
BRANCH  25  26
HETATM   26  C   UNK N   1      31.997  15.961   6.780  0.00  0.00     0.088 C 
HETATM   27  C   UNK N   1      32.552  16.154   5.365  0.00  0.00     0.066 C 
HETATM   28  C   UNK N   1      33.224  17.522   5.244  0.00  0.00     0.170 C 
HETATM   29  O   UNK N   1      34.279  17.598   6.169  0.00  0.00    -0.391 OA
HETATM   30  C   UNK N   1      33.681  17.709   7.437  0.00  0.00     0.170 C 
HETATM   31  C   UNK N   1      33.049  16.367   7.821  0.00  0.00     0.066 C 
BRANCH  26  32
HETATM   32  O   UNK N   1      31.716  14.602   6.949  0.00  0.00    -0.388 OA
HETATM   33  H   UNK N   1      31.105  14.001   7.404  0.00  0.00     0.210 HD
ENDBRANCH  26  32
ENDBRANCH  25  26
ENDBRANCH  22  25
ENDBRANCH  18  19
ENDBRANCH  14  18
TORSDOF 5
ENDMDL
MODEL 8
REMARK VINA RESULT:      -7.5     13.996     16.483
REMARK  5 active torsions:
REMARK  status: ('A' for Active; 'I' for Inactive)
REMARK       I    between atoms: N_9  and  C_12 
REMARK       I    between atoms: C_12  and  N_14 
REMARK    1  A    between atoms: N_14  and  C_15 
REMARK    2  A    between atoms: C_15  and  C_16 
REMARK    3  A    between atoms: N_19  and  C_22 
REMARK    4  A    between atoms: C_22  and  C_23 
REMARK    5  A    between atoms: C_23  and  O_29 
ROOT
HETATM    1  C   UNK N   1      31.293  27.415  -4.130  0.00  0.00     0.030 C 
HETATM    2  C   UNK N   1      30.163  28.380  -4.446  0.00  0.00     0.064 A 
HETATM    3  C   UNK N   1      29.739  29.163  -3.241  0.00  0.00    -0.013 A 
HETATM    4  C   UNK N   1      30.497  30.071  -2.498  0.00  0.00     0.014 A 
HETATM    5  C   UNK N   1      29.894  30.711  -1.405  0.00  0.00     0.043 A 
HETATM    6  C   UNK N   1      28.554  30.435  -1.072  0.00  0.00     0.118 A 
HETATM    7  C   UNK N   1      27.813  29.517  -1.830  0.00  0.00     0.073 A 
HETATM    8  C   UNK N   1      28.431  28.890  -2.919  0.00  0.00     0.057 A 
HETATM    9  N   UNK N   1      27.874  27.947  -3.815  0.00  0.00    -0.232 N 
HETATM   10  C   UNK N   1      28.862  27.650  -4.715  0.00  0.00     0.245 A 
HETATM   11  O   UNK N   1      28.738  26.916  -5.676  0.00  0.00    -0.271 OA
HETATM   12  C   UNK N   1      26.555  27.504  -3.712  0.00  0.00     0.329 C 
HETATM   13  O   UNK N   1      25.842  27.992  -2.851  0.00  0.00    -0.246 OA
HETATM   14  N   UNK N   1      25.975  26.546  -4.500  0.00  0.00    -0.342 N 
HETATM   15  F   UNK N   1      27.979  31.061  -0.018  0.00  0.00    -0.206 F 
HETATM   16  C   UNK N   1      30.537  29.293  -5.600  0.00  0.00     0.030 C 
HETATM   17  H   UNK N   1      25.008  26.427  -4.366  0.00  0.00     0.164 HD
ENDROOT
BRANCH  14  18
HETATM   18  C   UNK N   1      26.560  25.689  -5.492  0.00  0.00     0.129 C 
BRANCH  18  19
HETATM   19  C   UNK N   1      26.516  24.243  -5.010  0.00  0.00     0.007 C 
HETATM   20  C   UNK N   1      27.318  23.338  -5.947  0.00  0.00     0.036 C 
HETATM   21  C   UNK N   1      28.809  23.593  -5.758  0.00  0.00     0.273 C 
HETATM   22  N   UNK N   1      29.176  23.309  -4.371  0.00  0.00     0.091 N 
HETATM   23  C   UNK N   1      28.548  24.309  -3.513  0.00  0.00     0.273 C 
HETATM   24  C   UNK N   1      27.029  24.129  -3.569  0.00  0.00     0.036 C 
BRANCH  22  25
HETATM   25  C   UNK N   1      30.624  23.429  -4.273  0.00  0.00     0.310 C 
BRANCH  25  26
HETATM   26  C   UNK N   1      31.239  22.241  -3.504  0.00  0.00     0.088 C 
HETATM   27  C   UNK N   1      30.461  20.964  -3.835  0.00  0.00     0.066 C 
HETATM   28  C   UNK N   1      30.817  20.476  -5.239  0.00  0.00     0.170 C 
HETATM   29  O   UNK N   1      32.195  20.206  -5.294  0.00  0.00    -0.391 OA
HETATM   30  C   UNK N   1      32.840  21.455  -5.276  0.00  0.00     0.170 C 
HETATM   31  C   UNK N   1      32.717  22.071  -3.879  0.00  0.00     0.066 C 
BRANCH  26  32
HETATM   32  O   UNK N   1      31.159  22.449  -2.124  0.00  0.00    -0.388 OA
HETATM   33  H   UNK N   1      31.106  23.155  -1.462  0.00  0.00     0.210 HD
ENDBRANCH  26  32
ENDBRANCH  25  26
ENDBRANCH  22  25
ENDBRANCH  18  19
ENDBRANCH  14  18
TORSDOF 5
ENDMDL
MODEL 9
REMARK VINA RESULT:      -7.5      9.357     13.585
REMARK  5 active torsions:
REMARK  status: ('A' for Active; 'I' for Inactive)
REMARK       I    between atoms: N_9  and  C_12 
REMARK       I    between atoms: C_12  and  N_14 
REMARK    1  A    between atoms: N_14  and  C_15 
REMARK    2  A    between atoms: C_15  and  C_16 
REMARK    3  A    between atoms: N_19  and  C_22 
REMARK    4  A    between atoms: C_22  and  C_23 
REMARK    5  A    between atoms: C_23  and  O_29 
ROOT
HETATM    1  C   UNK N   1      23.870  12.497   6.447  0.00  0.00     0.030 C 
HETATM    2  C   UNK N   1      23.856  13.482   7.604  0.00  0.00     0.064 A 
HETATM    3  C   UNK N   1      23.064  12.971   8.768  0.00  0.00    -0.013 A 
HETATM    4  C   UNK N   1      23.317  11.841   9.549  0.00  0.00     0.014 A 
HETATM    5  C   UNK N   1      22.448  11.551  10.610  0.00  0.00     0.043 A 
HETATM    6  C   UNK N   1      21.346  12.386  10.874  0.00  0.00     0.118 A 
HETATM    7  C   UNK N   1      21.109  13.514  10.075  0.00  0.00     0.073 A 
HETATM    8  C   UNK N   1      21.989  13.789   9.021  0.00  0.00     0.057 A 
HETATM    9  N   UNK N   1      21.944  14.867   8.105  0.00  0.00    -0.232 N 
HETATM   10  C   UNK N   1      23.028  14.711   7.284  0.00  0.00     0.245 A 
HETATM   11  O   UNK N   1      23.358  15.481   6.403  0.00  0.00    -0.271 OA
HETATM   12  C   UNK N   1      20.953  15.848   8.149  0.00  0.00     0.329 C 
HETATM   13  O   UNK N   1      20.128  15.803   9.047  0.00  0.00    -0.246 OA
HETATM   14  N   UNK N   1      20.812  16.875   7.255  0.00  0.00    -0.342 N 
HETATM   15  F   UNK N   1      20.514  12.101  11.903  0.00  0.00    -0.206 F 
HETATM   16  C   UNK N   1      25.270  13.856   8.014  0.00  0.00     0.030 C 
HETATM   17  H   UNK N   1      20.126  17.540   7.490  0.00  0.00     0.164 HD
ENDROOT
BRANCH  14  18
HETATM   18  C   UNK N   1      21.510  17.133   6.028  0.00  0.00     0.129 C 
BRANCH  18  19
HETATM   19  C   UNK N   1      20.512  17.218   4.878  0.00  0.00     0.007 C 
HETATM   20  C   UNK N   1      21.241  17.347   3.540  0.00  0.00     0.036 C 
HETATM   21  C   UNK N   1      21.890  16.016   3.177  0.00  0.00     0.273 C 
HETATM   22  N   UNK N   1      20.855  14.987   3.073  0.00  0.00     0.091 N 
HETATM   23  C   UNK N   1      20.308  14.747   4.405  0.00  0.00     0.273 C 
HETATM   24  C   UNK N   1      19.574  16.005   4.875  0.00  0.00     0.036 C 
BRANCH  22  25
HETATM   25  C   UNK N   1      21.499  13.773   2.590  0.00  0.00     0.310 C 
BRANCH  25  26
HETATM   26  C   UNK N   1      21.372  13.637   1.058  0.00  0.00     0.088 C 
HETATM   27  C   UNK N   1      21.507  12.162   0.665  0.00  0.00     0.066 C 
HETATM   28  C   UNK N   1      20.230  11.401   1.022  0.00  0.00     0.170 C 
HETATM   29  O   UNK N   1      19.149  11.968   0.326  0.00  0.00    -0.391 OA
HETATM   30  C   UNK N   1      18.897  13.209   0.937  0.00  0.00     0.170 C 
HETATM   31  C   UNK N   1      20.021  14.189   0.584  0.00  0.00     0.066 C 
BRANCH  26  32
HETATM   32  O   UNK N   1      22.387  14.349   0.411  0.00  0.00    -0.388 OA
HETATM   33  H   UNK N   1      22.852  14.410  -0.437  0.00  0.00     0.210 HD
ENDBRANCH  26  32
ENDBRANCH  25  26
ENDBRANCH  22  25
ENDBRANCH  18  19
ENDBRANCH  14  18
TORSDOF 5
ENDMDL
