REMARK  8 active torsions:
REMARK  status: ('A' for Active; 'I' for Inactive)
REMARK    1  A    between atoms: O_2  and  C_3 
REMARK    2  A    between atoms: C_10  and  N_20 
REMARK    3  A    between atoms: N_20  and  C_21 
REMARK    4  A    between atoms: C_23  and  C_34 
REMARK    5  A    between atoms: C_24  and  O_33 
REMARK    6  A    between atoms: C_25  and  C_27 
REMARK    7  A    between atoms: C_27  and  N_28 
REMARK    8  A    between atoms: C_34  and  N_35 
ROOT
HETATM    1  N   UNK N   1       1.986  -1.104  -0.616  0.00  0.00    -0.354 N 
HETATM    2  H   UNK N   1       1.210  -1.483  -1.090  0.00  0.00     0.166 HD
ENDROOT
BRANCH   1   3
HETATM    3  C   UNK N   1       1.905   0.320  -0.433  0.00  0.00     0.074 A 
HETATM    4  C   UNK N   1       3.018   1.195  -0.286  0.00  0.00     0.089 A 
HETATM    5  C   UNK N   1       2.792   2.567  -0.027  0.00  0.00     0.062 A 
HETATM    6  N   UNK N   1       4.294   0.758  -0.404  0.00  0.00    -0.333 N 
HETATM    7  C   UNK N   1       3.880   3.425   0.133  0.00  0.00     0.036 A 
HETATM    8  N   UNK N   1       1.533   3.056   0.067  0.00  0.00    -0.354 N 
HETATM    9  C   UNK N   1       5.177   2.931   0.020  0.00  0.00     0.058 A 
HETATM   10  C   UNK N   1       5.374   1.571  -0.262  0.00  0.00     0.142 A 
HETATM   11  C   UNK N   1       0.448   2.260  -0.094  0.00  0.00     0.046 A 
ATOM     12  HN  UNK N   1       1.397   4.048   0.265  1.00  0.00     0.166 HD
HETATM   13  C   UNK N   1      -0.833   2.809   0.008  0.00  0.00     0.054 A 
HETATM   14  C   UNK N   1       0.612   0.880  -0.352  0.00  0.00     0.020 A 
HETATM   15  C   UNK N   1      -1.960   1.998  -0.148  0.00  0.00     0.036 A 
HETATM   16  C   UNK N   1      -1.809   0.633  -0.404  0.00  0.00     0.025 A 
HETATM   17 Cl   UNK N   1      -3.561   2.693  -0.016  0.00  0.00    -0.084 Cl
HETATM   18  C   UNK N   1      -0.532   0.076  -0.502  0.00  0.00     0.018 A 
ATOM     19  HN  UNK N   1       4.453  -0.229  -0.609  1.00  0.00     0.168 HD
BRANCH  10  20
HETATM   20  O   UNK N   1       6.613   1.045  -0.396  0.00  0.00    -0.341 OA
HETATM   21  C   UNK N   1       7.767   1.785  -0.273  0.00  0.00     0.211 C 
ENDBRANCH  10  20
ENDBRANCH   1   3
BRANCH   1  22
HETATM   22  C   UNK N   1       2.962  -2.080  -0.250  0.00  0.00     0.033 A 
HETATM   23  C   UNK N   1       4.324  -1.810  -0.080  0.00  0.00     0.041 A 
HETATM   24  C   UNK N   1       5.207  -2.794   0.380  0.00  0.00     0.006 A 
HETATM   25  C   UNK N   1       4.719  -4.069   0.700  0.00  0.00     0.082 A 
HETATM   26  C   UNK N   1       3.357  -4.355   0.522  0.00  0.00     0.006 A 
HETATM   27  C   UNK N   1       2.498  -3.359   0.049  0.00  0.00     0.041 A 
BRANCH  24  28
HETATM   28  C   UNK N   1       6.653  -2.459   0.585  0.00  0.00     0.313 C 
BRANCH  28  29
HETATM   29  N   UNK N   1       7.365  -2.389  -0.687  0.00  0.00     0.092 N 
HETATM   30  C   UNK N   1       8.550  -1.563  -0.484  0.00  0.00     0.273 C 
HETATM   31  C   UNK N   1       9.733  -2.465  -0.180  0.00  0.00     0.032 C 
HETATM   32  C   UNK N   1       9.215  -3.874  -0.313  0.00  0.00     0.032 C 
HETATM   33  C   UNK N   1       7.872  -3.722  -0.994  0.00  0.00     0.273 C 
ENDBRANCH  28  29
ENDBRANCH  24  28
BRANCH  25  34
HETATM   34  O   UNK N   1       5.552  -5.011   1.181  0.00  0.00    -0.359 OA
HETATM   35  H   UNK N   1       5.274  -5.841   1.515  0.00  0.00     0.217 HD
ENDBRANCH  25  34
BRANCH  26  36
HETATM   36  C   UNK N   1       2.794  -5.692   0.908  0.00  0.00     0.313 C 
BRANCH  36  37
HETATM   37  N   UNK N   1       2.314  -6.468  -0.238  0.00  0.00     0.092 N 
HETATM   38  C   UNK N   1       1.814  -7.730   0.294  0.00  0.00     0.273 C 
HETATM   39  C   UNK N   1       0.311  -7.613   0.492  0.00  0.00     0.032 C 
HETATM   40  C   UNK N   1      -0.074  -6.276  -0.088  0.00  0.00     0.032 C 
HETATM   41  C   UNK N   1       1.151  -5.832  -0.849  0.00  0.00     0.273 C 
ENDBRANCH  36  37
ENDBRANCH  26  36
ENDBRANCH   1  22
TORSDOF 8
