MODEL 1
REMARK VINA RESULT:      -4.1      0.000      0.000
REMARK  5 active torsions:
REMARK  status: ('A' for Active; 'I' for Inactive)
REMARK    1  A    between atoms: C_2  and  C_4 
REMARK    2  A    between atoms: C_4  and  C_5 
REMARK    3  A    between atoms: C_4  and  O_10 
REMARK    4  A    between atoms: C_6  and  C_5 
REMARK    5  A    between atoms: C_5  and  O_9 
ROOT
HETATM    1  C   UNK N   1      35.574  15.722  10.264  0.00  0.00     0.180 C 
ENDROOT
BRANCH   1   2
HETATM    2  C   UNK N   1      34.634  16.892  10.010  0.00  0.00     0.176 A 
HETATM    3  C   UNK N   1      34.589  17.185   8.561  0.00  0.00     0.203 A 
HETATM    4  O   UNK N   1      35.358  17.959   9.449  0.00  0.00    -0.378 OA
ENDBRANCH   1   2
BRANCH   1   5
HETATM    5  C   UNK N   1      34.932  14.611  11.102  0.00  0.00     0.180 C 
BRANCH   5   6
HETATM    6  C   UNK N   1      35.633  14.390  12.435  0.00  0.00     0.176 A 
HETATM    7  C   UNK N   1      35.742  12.942  12.715  0.00  0.00     0.203 A 
HETATM    8  O   UNK N   1      36.832  13.686  12.216  0.00  0.00    -0.378 OA
ENDBRANCH   5   6
BRANCH   5   9
HETATM    9  O   UNK N   1      33.577  14.881  11.314  0.00  0.00    -0.390 OA
HETATM   10  H   UNK N   1      33.245  15.790  11.258  0.00  0.00     0.210 HD
ENDBRANCH   5   9
ENDBRANCH   1   5
BRANCH   1  11
HETATM   11  O   UNK N   1      36.749  16.172  10.870  0.00  0.00    -0.390 OA
HETATM   12  H   UNK N   1      37.590  15.717  10.704  0.00  0.00     0.210 HD
ENDBRANCH   1  11
TORSDOF 5
ENDMDL
MODEL 2
REMARK VINA RESULT:      -4.0      1.486      2.399
REMARK  5 active torsions:
REMARK  status: ('A' for Active; 'I' for Inactive)
REMARK    1  A    between atoms: C_2  and  C_4 
REMARK    2  A    between atoms: C_4  and  C_5 
REMARK    3  A    between atoms: C_4  and  O_10 
REMARK    4  A    between atoms: C_6  and  C_5 
REMARK    5  A    between atoms: C_5  and  O_9 
ROOT
HETATM    1  C   UNK N   1      34.587  15.519  10.585  0.00  0.00     0.180 C 
ENDROOT
BRANCH   1   2
HETATM    2  C   UNK N   1      34.905  14.716   9.330  0.00  0.00     0.176 A 
HETATM    3  C   UNK N   1      34.763  15.582   8.140  0.00  0.00     0.203 A 
HETATM    4  O   UNK N   1      33.765  14.663   8.508  0.00  0.00    -0.378 OA
ENDBRANCH   1   2
BRANCH   1   5
HETATM    5  C   UNK N   1      35.756  15.571  11.573  0.00  0.00     0.180 C 
BRANCH   5   6
HETATM    6  C   UNK N   1      36.081  14.214  12.183  0.00  0.00     0.176 A 
HETATM    7  C   UNK N   1      36.230  14.342  13.649  0.00  0.00     0.203 A 
HETATM    8  O   UNK N   1      35.046  13.845  13.064  0.00  0.00    -0.378 OA
ENDBRANCH   5   6
BRANCH   5   9
HETATM    9  O   UNK N   1      36.893  16.100  10.957  0.00  0.00    -0.390 OA
HETATM   10  H   UNK N   1      37.683  15.551  10.834  0.00  0.00     0.210 HD
ENDBRANCH   5   9
ENDBRANCH   1   5
BRANCH   1  11
HETATM   11  O   UNK N   1      33.445  15.007  11.206  0.00  0.00    -0.390 OA
HETATM   12  H   UNK N   1      33.429  14.089  11.519  0.00  0.00     0.210 HD
ENDBRANCH   1  11
TORSDOF 5
ENDMDL
MODEL 3
REMARK VINA RESULT:      -4.0      1.064      4.337
REMARK  5 active torsions:
REMARK  status: ('A' for Active; 'I' for Inactive)
REMARK    1  A    between atoms: C_2  and  C_4 
REMARK    2  A    between atoms: C_4  and  C_5 
REMARK    3  A    between atoms: C_4  and  O_10 
REMARK    4  A    between atoms: C_6  and  C_5 
REMARK    5  A    between atoms: C_5  and  O_9 
ROOT
HETATM    1  C   UNK N   1      34.968  14.626  11.175  0.00  0.00     0.180 C 
ENDROOT
BRANCH   1   2
HETATM    2  C   UNK N   1      35.666  14.546  12.526  0.00  0.00     0.176 A 
HETATM    3  C   UNK N   1      36.134  13.162  12.759  0.00  0.00     0.203 A 
HETATM    4  O   UNK N   1      34.964  13.658  13.362  0.00  0.00    -0.378 OA
ENDBRANCH   1   2
BRANCH   1   5
HETATM    5  C   UNK N   1      35.601  15.658  10.236  0.00  0.00     0.180 C 
BRANCH   5   6
HETATM    6  C   UNK N   1      34.641  16.769   9.837  0.00  0.00     0.176 A 
HETATM    7  C   UNK N   1      34.670  16.962   8.371  0.00  0.00     0.203 A 
HETATM    8  O   UNK N   1      33.639  16.236   9.003  0.00  0.00    -0.378 OA
ENDBRANCH   5   6
BRANCH   5   9
HETATM    9  O   UNK N   1      36.749  16.206  10.816  0.00  0.00    -0.390 OA
HETATM   10  H   UNK N   1      37.628  15.894  10.551  0.00  0.00     0.210 HD
ENDBRANCH   5   9
ENDBRANCH   1   5
BRANCH   1  11
HETATM   11  O   UNK N   1      33.609  14.898  11.351  0.00  0.00    -0.390 OA
HETATM   12  H   UNK N   1      33.326  15.726  11.770  0.00  0.00     0.210 HD
ENDBRANCH   1  11
TORSDOF 5
ENDMDL
MODEL 4
REMARK VINA RESULT:      -3.9     15.157     15.874
REMARK  5 active torsions:
REMARK  status: ('A' for Active; 'I' for Inactive)
REMARK    1  A    between atoms: C_2  and  C_4 
REMARK    2  A    between atoms: C_4  and  C_5 
REMARK    3  A    between atoms: C_4  and  O_10 
REMARK    4  A    between atoms: C_6  and  C_5 
REMARK    5  A    between atoms: C_5  and  O_9 
ROOT
HETATM    1  C   UNK N   1      32.404  21.630  -3.057  0.00  0.00     0.180 C 
ENDROOT
BRANCH   1   2
HETATM    2  C   UNK N   1      30.941  22.020  -2.887  0.00  0.00     0.176 A 
HETATM    3  C   UNK N   1      30.803  23.486  -3.015  0.00  0.00     0.203 A 
HETATM    4  O   UNK N   1      30.808  22.851  -1.761  0.00  0.00    -0.378 OA
ENDBRANCH   1   2
BRANCH   1   5
HETATM    5  C   UNK N   1      32.622  20.600  -4.170  0.00  0.00     0.180 C 
BRANCH   5   6
HETATM    6  C   UNK N   1      33.933  19.839  -4.029  0.00  0.00     0.176 A 
HETATM    7  C   UNK N   1      34.835  20.173  -5.152  0.00  0.00     0.203 A 
HETATM    8  O   UNK N   1      34.987  20.760  -3.878  0.00  0.00    -0.378 OA
ENDBRANCH   5   6
BRANCH   5   9
HETATM    9  O   UNK N   1      31.553  19.702  -4.221  0.00  0.00    -0.390 OA
HETATM   10  H   UNK N   1      30.725  19.951  -4.660  0.00  0.00     0.210 HD
ENDBRANCH   5   9
ENDBRANCH   1   5
BRANCH   1  11
HETATM   11  O   UNK N   1      32.918  21.156  -1.847  0.00  0.00    -0.390 OA
HETATM   12  H   UNK N   1      33.676  21.597  -1.433  0.00  0.00     0.210 HD
ENDBRANCH   1  11
TORSDOF 5
ENDMDL
MODEL 5
REMARK VINA RESULT:      -3.9      1.473      4.466
REMARK  5 active torsions:
REMARK  status: ('A' for Active; 'I' for Inactive)
REMARK    1  A    between atoms: C_2  and  C_4 
REMARK    2  A    between atoms: C_4  and  C_5 
REMARK    3  A    between atoms: C_4  and  O_10 
REMARK    4  A    between atoms: C_6  and  C_5 
REMARK    5  A    between atoms: C_5  and  O_9 
ROOT
HETATM    1  C   UNK N   1      36.380  14.344  12.913  0.00  0.00     0.180 C 
ENDROOT
BRANCH   1   2
HETATM    2  C   UNK N   1      35.929  13.471  14.076  0.00  0.00     0.176 A 
HETATM    3  C   UNK N   1      36.598  13.917  15.317  0.00  0.00     0.203 A 
HETATM    4  O   UNK N   1      37.039  12.787  14.604  0.00  0.00    -0.378 OA
ENDBRANCH   1   2
BRANCH   1   5
HETATM    5  C   UNK N   1      35.215  14.834  12.047  0.00  0.00     0.180 C 
BRANCH   5   6
HETATM    6  C   UNK N   1      35.650  15.266  10.653  0.00  0.00     0.176 A 
HETATM    7  C   UNK N   1      35.291  16.683  10.427  0.00  0.00     0.203 A 
HETATM    8  O   UNK N   1      36.604  16.295  10.765  0.00  0.00    -0.378 OA
ENDBRANCH   5   6
BRANCH   5   9
HETATM    9  O   UNK N   1      34.228  13.850  11.955  0.00  0.00    -0.390 OA
HETATM   10  H   UNK N   1      33.439  13.998  11.410  0.00  0.00     0.210 HD
ENDBRANCH   5   9
ENDBRANCH   1   5
BRANCH   1  11
HETATM   11  O   UNK N   1      37.314  13.659  12.131  0.00  0.00    -0.390 OA
HETATM   12  H   UNK N   1      37.441  13.899  11.200  0.00  0.00     0.210 HD
ENDBRANCH   1  11
TORSDOF 5
ENDMDL
MODEL 6
REMARK VINA RESULT:      -3.8      1.688      2.251
REMARK  5 active torsions:
REMARK  status: ('A' for Active; 'I' for Inactive)
REMARK    1  A    between atoms: C_2  and  C_4 
REMARK    2  A    between atoms: C_4  and  C_5 
REMARK    3  A    between atoms: C_4  and  O_10 
REMARK    4  A    between atoms: C_6  and  C_5 
REMARK    5  A    between atoms: C_5  and  O_9 
ROOT
HETATM    1  C   UNK N   1      34.343  16.038   8.656  0.00  0.00     0.180 C 
ENDROOT
BRANCH   1   2
HETATM    2  C   UNK N   1      34.439  17.558   8.636  0.00  0.00     0.176 A 
HETATM    3  C   UNK N   1      33.312  18.114   7.856  0.00  0.00     0.203 A 
HETATM    4  O   UNK N   1      34.603  17.998   7.310  0.00  0.00    -0.378 OA
ENDBRANCH   1   2
BRANCH   1   5
HETATM    5  C   UNK N   1      34.405  15.455  10.072  0.00  0.00     0.180 C 
BRANCH   5   6
HETATM    6  C   UNK N   1      35.222  16.307  11.032  0.00  0.00     0.176 A 
HETATM    7  C   UNK N   1      36.118  15.446  11.834  0.00  0.00     0.203 A 
HETATM    8  O   UNK N   1      36.589  16.172  10.720  0.00  0.00    -0.378 OA
ENDBRANCH   5   6
BRANCH   5   9
HETATM    9  O   UNK N   1      33.116  15.269  10.579  0.00  0.00    -0.390 OA
HETATM   10  H   UNK N   1      32.363  15.162   9.977  0.00  0.00     0.210 HD
ENDBRANCH   5   9
ENDBRANCH   1   5
BRANCH   1  11
HETATM   11  O   UNK N   1      35.344  15.483   7.856  0.00  0.00    -0.390 OA
HETATM   12  H   UNK N   1      35.111  14.984   7.058  0.00  0.00     0.210 HD
ENDBRANCH   1  11
TORSDOF 5
ENDMDL
MODEL 7
REMARK VINA RESULT:      -3.8     14.038     15.959
REMARK  5 active torsions:
REMARK  status: ('A' for Active; 'I' for Inactive)
REMARK    1  A    between atoms: C_2  and  C_4 
REMARK    2  A    between atoms: C_4  and  C_5 
REMARK    3  A    between atoms: C_4  and  O_10 
REMARK    4  A    between atoms: C_6  and  C_5 
REMARK    5  A    between atoms: C_5  and  O_9 
ROOT
HETATM    1  C   UNK N   1      21.924  20.033   2.820  0.00  0.00     0.180 C 
ENDROOT
BRANCH   1   2
HETATM    2  C   UNK N   1      20.729  19.509   3.606  0.00  0.00     0.176 A 
HETATM    3  C   UNK N   1      20.027  18.480   2.809  0.00  0.00     0.203 A 
HETATM    4  O   UNK N   1      19.545  19.797   2.903  0.00  0.00    -0.378 OA
ENDBRANCH   1   2
BRANCH   1   5
HETATM    5  C   UNK N   1      23.261  19.495   3.338  0.00  0.00     0.180 C 
BRANCH   5   6
HETATM    6  C   UNK N   1      24.341  20.565   3.424  0.00  0.00     0.176 A 
HETATM    7  C   UNK N   1      25.600  20.061   2.835  0.00  0.00     0.203 A 
HETATM    8  O   UNK N   1      24.740  20.923   2.122  0.00  0.00    -0.378 OA
ENDBRANCH   5   6
BRANCH   5   9
HETATM    9  O   UNK N   1      23.093  18.887   4.586  0.00  0.00    -0.390 OA
HETATM   10  H   UNK N   1      22.419  19.214   5.202  0.00  0.00     0.210 HD
ENDBRANCH   5   9
ENDBRANCH   1   5
BRANCH   1  11
HETATM   11  O   UNK N   1      21.926  21.430   2.823  0.00  0.00    -0.390 OA
HETATM   12  H   UNK N   1      22.560  21.916   3.374  0.00  0.00     0.210 HD
ENDBRANCH   1  11
TORSDOF 5
ENDMDL
MODEL 8
REMARK VINA RESULT:      -3.7     16.282     17.665
REMARK  5 active torsions:
REMARK  status: ('A' for Active; 'I' for Inactive)
REMARK    1  A    between atoms: C_2  and  C_4 
REMARK    2  A    between atoms: C_4  and  C_5 
REMARK    3  A    between atoms: C_4  and  O_10 
REMARK    4  A    between atoms: C_6  and  C_5 
REMARK    5  A    between atoms: C_5  and  O_9 
ROOT
HETATM    1  C   UNK N   1      19.585  18.403   2.643  0.00  0.00     0.180 C 
ENDROOT
BRANCH   1   2
HETATM    2  C   UNK N   1      20.557  19.576   2.649  0.00  0.00     0.176 A 
HETATM    3  C   UNK N   1      21.441  19.479   3.830  0.00  0.00     0.203 A 
HETATM    4  O   UNK N   1      20.342  20.355   3.799  0.00  0.00    -0.378 OA
ENDBRANCH   1   2
BRANCH   1   5
HETATM    5  C   UNK N   1      19.957  17.324   1.621  0.00  0.00     0.180 C 
BRANCH   5   6
HETATM    6  C   UNK N   1      20.176  15.956   2.253  0.00  0.00     0.176 A 
HETATM    7  C   UNK N   1      21.488  15.413   1.839  0.00  0.00     0.203 A 
HETATM    8  O   UNK N   1      21.298  16.014   3.101  0.00  0.00    -0.378 OA
ENDBRANCH   5   6
BRANCH   5   9
HETATM    9  O   UNK N   1      18.981  17.238   0.625  0.00  0.00    -0.390 OA
HETATM   10  H   UNK N   1      19.155  17.587  -0.263  0.00  0.00     0.210 HD
ENDBRANCH   5   9
ENDBRANCH   1   5
BRANCH   1  11
HETATM   11  O   UNK N   1      18.284  18.858   2.418  0.00  0.00    -0.390 OA
HETATM   12  H   UNK N   1      17.736  19.159   3.160  0.00  0.00     0.210 HD
ENDBRANCH   1  11
TORSDOF 5
ENDMDL
MODEL 9
REMARK VINA RESULT:      -3.7      2.542      5.110
REMARK  5 active torsions:
REMARK  status: ('A' for Active; 'I' for Inactive)
REMARK    1  A    between atoms: C_2  and  C_4 
REMARK    2  A    between atoms: C_4  and  C_5 
REMARK    3  A    between atoms: C_4  and  O_10 
REMARK    4  A    between atoms: C_6  and  C_5 
REMARK    5  A    between atoms: C_5  and  O_9 
ROOT
HETATM    1  C   UNK N   1      34.074  17.997   8.813  0.00  0.00     0.180 C 
ENDROOT
BRANCH   1   2
HETATM    2  C   UNK N   1      34.969  16.823   9.188  0.00  0.00     0.176 A 
HETATM    3  C   UNK N   1      34.680  16.406  10.577  0.00  0.00     0.203 A 
HETATM    4  O   UNK N   1      35.801  17.193  10.259  0.00  0.00    -0.378 OA
ENDBRANCH   1   2
BRANCH   1   5
HETATM    5  C   UNK N   1      32.976  17.617   7.816  0.00  0.00     0.180 C 
BRANCH   5   6
HETATM    6  C   UNK N   1      33.496  16.805   6.638  0.00  0.00     0.176 A 
HETATM    7  C   UNK N   1      33.014  17.390   5.368  0.00  0.00     0.203 A 
HETATM    8  O   UNK N   1      34.322  17.621   5.843  0.00  0.00    -0.378 OA
ENDBRANCH   5   6
BRANCH   5   9
HETATM    9  O   UNK N   1      31.951  16.919   8.461  0.00  0.00    -0.390 OA
HETATM   10  H   UNK N   1      32.026  15.962   8.604  0.00  0.00     0.210 HD
ENDBRANCH   5   9
ENDBRANCH   1   5
BRANCH   1  11
HETATM   11  O   UNK N   1      34.846  19.048   8.311  0.00  0.00    -0.390 OA
HETATM   12  H   UNK N   1      35.401  18.916   7.527  0.00  0.00     0.210 HD
ENDBRANCH   1  11
TORSDOF 5
ENDMDL
