REMARK  3 active torsions:
REMARK  status: ('A' for Active; 'I' for Inactive)
REMARK    1  A    between atoms: O_2  and  C_3 
REMARK    2  A    between atoms: C_5  and  C_13 
REMARK    3  A    between atoms: C_8  and  O_11 
ROOT
HETATM    1  C   UNK N   1       0.243   1.834  -0.050  0.00  0.00     0.118 A 
HETATM    2  C   UNK N   1       1.531   1.219  -0.179  0.00  0.00     0.096 A 
HETATM    3  C   UNK N   1       1.618  -0.211  -0.121  0.00  0.00     0.090 A 
HETATM    4  N   UNK N   1       0.473  -0.922   0.081  0.00  0.00    -0.334 N 
ATOM      5  HN  UNK N   1       0.543  -1.937   0.158  1.00  0.00     0.168 HD
HETATM    6  C   UNK N   1      -0.754  -0.358   0.185  0.00  0.00     0.167 A 
HETATM    7  C   UNK N   1      -0.889   1.024   0.109  0.00  0.00     0.119 A 
HETATM    8 Cl   UNK N   1      -2.488   1.754   0.236  0.00  0.00    -0.077 Cl
HETATM    9 Cl   UNK N   1       2.971   2.222  -0.390  0.00  0.00    -0.079 Cl
ENDROOT
BRANCH   3  10
HETATM   10  C   UNK N   1       2.894  -1.051  -0.265  0.00  0.00     0.232 C 
HETATM   11 Cl   UNK N   1       3.274  -1.775   1.317  0.00  0.00    -0.077 Cl
HETATM   12 Cl   UNK N   1       2.560  -2.388  -1.401  0.00  0.00    -0.077 Cl
HETATM   13 Cl   UNK N   1       4.395  -0.306  -0.882  0.00  0.00    -0.077 Cl
ENDBRANCH   3  10
BRANCH   1  14
HETATM   14  O   UNK N   1       0.025   3.181  -0.065  0.00  0.00    -0.352 OA
HETATM   15  C   UNK N   1       0.952   4.185   0.077  0.00  0.00     0.210 C 
ENDBRANCH   1  14
BRANCH   6  16
HETATM   16  O   UNK N   1      -1.854  -1.129   0.362  0.00  0.00    -0.339 OA
HETATM   17  C   UNK N   1      -1.788  -2.499   0.453  0.00  0.00     0.211 C 
ENDBRANCH   6  16
TORSDOF 3
