REMARK  4 active torsions:
REMARK  status: ('A' for Active; 'I' for Inactive)
REMARK    1  A    between atoms: C_6  and  N_12 
REMARK    2  A    between atoms: C_13  and  N_29 
REMARK    3  A    between atoms: C_14  and  C_18 
REMARK    4  A    between atoms: C_18  and  C_20 
ROOT
HETATM    1  N   UNK N   1      -1.893  -2.430  -0.045  0.00  0.00    -0.240 N 
HETATM    2  C   UNK N   1      -1.625  -1.121  -0.245  0.00  0.00     0.137 A 
HETATM    3  C   UNK N   1      -0.308  -0.903   0.039  0.00  0.00     0.079 A 
HETATM    4  C   UNK N   1       0.197  -2.144   0.410  0.00  0.00     0.127 A 
HETATM    5  N   UNK N   1      -0.797  -3.045   0.352  0.00  0.00    -0.302 N 
ATOM      6  HN  UNK N   1      -0.717  -4.037   0.576  1.00  0.00     0.186 HD
ENDROOT
BRANCH   1   7
HETATM    7  C   UNK N   1      -3.159  -3.084  -0.113  0.00  0.00     0.060 A 
HETATM    8  C   UNK N   1      -4.313  -2.330  -0.369  0.00  0.00     0.063 A 
HETATM    9  C   UNK N   1      -5.530  -2.941  -0.181  0.00  0.00     0.062 A 
HETATM   10  N   UNK N   1      -6.737  -2.375  -0.259  0.00  0.00    -0.344 N 
HETATM   11  C   UNK N   1      -5.643  -4.231   0.228  0.00  0.00     0.060 A 
HETATM   12  C   UNK N   1      -7.576  -3.366   0.122  0.00  0.00     0.078 A 
HETATM   13  H   UNK N   1      -6.963  -1.456  -0.530  0.00  0.00     0.167 HD
HETATM   14  C   UNK N   1      -9.040  -3.172   0.270  0.00  0.00     0.089 C 
HETATM   15  N   UNK N   1      -6.935  -4.525   0.425  0.00  0.00    -0.344 N 
ATOM     16  HN  UNK N   1      -7.341  -5.409   0.731  1.00  0.00     0.167 HD
HETATM   17  C   UNK N   1      -4.533  -5.040   0.444  0.00  0.00     0.034 A 
HETATM   18  C   UNK N   1      -3.269  -4.447   0.278  0.00  0.00     0.034 A 
ENDBRANCH   1   7
BRANCH   2  19
HETATM   19  N   UNK N   1      -2.552  -0.148  -0.673  0.00  0.00    -0.383 N 
HETATM   20  H   UNK N   1      -2.287   0.752  -0.973  0.00  0.00     0.157 HD
HETATM   21  H   UNK N   1      -3.508  -0.379  -0.673  0.00  0.00     0.157 HD
ENDBRANCH   2  19
BRANCH   3  22
HETATM   22  C   UNK N   1       0.470   0.351   0.014  0.00  0.00     0.213 C 
HETATM   23  O   UNK N   1      -0.078   1.443   0.035  0.00  0.00    -0.285 OA
BRANCH  22  24
HETATM   24  C   UNK N   1       1.931   0.226  -0.020  0.00  0.00     0.085 A 
HETATM   25  C   UNK N   1       2.892   1.194   0.272  0.00  0.00     0.047 A 
HETATM   26  C   UNK N   1       4.093   0.522   0.115  0.00  0.00    -0.007 A 
HETATM   27  C   UNK N   1       5.406   0.941   0.300  0.00  0.00     0.014 A 
HETATM   28  C   UNK N   1       3.813  -0.755  -0.275  0.00  0.00     0.043 A 
HETATM   29  C   UNK N   1       6.432   0.001   0.065  0.00  0.00     0.001 A 
HETATM   30  C   UNK N   1       6.125  -1.315  -0.352  0.00  0.00     0.002 A 
HETATM   31  C   UNK N   1       4.791  -1.705  -0.525  0.00  0.00     0.030 A 
HETATM   32  N   UNK N   1       2.507  -0.948  -0.360  0.00  0.00    -0.352 N 
HETATM   33  H   UNK N   1       2.047  -1.780  -0.618  0.00  0.00     0.166 HD
ENDBRANCH  22  24
ENDBRANCH   3  22
TORSDOF 4
