MODEL 1
REMARK VINA RESULT:      -5.5      0.000      0.000
REMARK  18 active torsions:
REMARK  status: ('A' for Active; 'I' for Inactive)
REMARK    1  A    between atoms: C_2  and  C_3 
REMARK    2  A    between atoms: C_4  and  C_5 
REMARK    3  A    between atoms: C_5  and  C_6 
REMARK    4  A    between atoms: C_7  and  C_8 
REMARK    5  A    between atoms: C_8  and  C_9 
REMARK    6  A    between atoms: C_10  and  C_11 
REMARK    7  A    between atoms: C_11  and  C_12 
REMARK    8  A    between atoms: C_13  and  C_14 
REMARK    9  A    between atoms: C_14  and  C_15 
REMARK   10  A    between atoms: C_16  and  C_17 
REMARK   11  A    between atoms: C_17  and  C_18 
REMARK   12  A    between atoms: C_18  and  C_19 
REMARK   13  A    between atoms: C_19  and  C_20 
REMARK   14  A    between atoms: C_20  and  O_21 
REMARK   15  A    between atoms: O_21  and  C_22 
REMARK   16  A    between atoms: C_22  and  C_23 
REMARK   17  A    between atoms: C_22  and  C_25 
REMARK   18  A    between atoms: C_25  and  O_27 
ROOT
HETATM    1  C   UNK N   1      25.868  27.989  -4.014  0.00  0.00     0.053 C 
ENDROOT
BRANCH   1   2
HETATM    2  C   UNK N   1      26.119  29.459  -4.121  0.00  0.00    -0.027 C 
HETATM    3  C   UNK N   1      27.153  29.979  -4.798  0.00  0.00    -0.027 C 
BRANCH   3   4
HETATM    4  C   UNK N   1      28.250  29.174  -5.445  0.00  0.00     0.053 C 
BRANCH   4   5
HETATM    5  C   UNK N   1      27.869  28.615  -6.776  0.00  0.00    -0.027 C 
HETATM    6  C   UNK N   1      28.831  28.235  -7.621  0.00  0.00    -0.027 C 
BRANCH   6   7
HETATM    7  C   UNK N   1      28.524  27.631  -8.959  0.00  0.00     0.053 C 
BRANCH   7   8
HETATM    8  C   UNK N   1      27.328  26.748  -8.867  0.00  0.00    -0.027 C 
HETATM    9  C   UNK N   1      26.734  26.287  -9.963  0.00  0.00    -0.027 C 
BRANCH   9  10
HETATM   10  C   UNK N   1      25.460  25.504  -9.854  0.00  0.00     0.053 C 
BRANCH  10  11
HETATM   11  C   UNK N   1      25.745  24.046  -9.626  0.00  0.00    -0.027 C 
HETATM   12  C   UNK N   1      25.190  23.392  -8.603  0.00  0.00    -0.031 C 
BRANCH  12  13
HETATM   13  C   UNK N   1      25.513  21.961  -8.358  0.00  0.00     0.022 C 
HETATM   14  C   UNK N   1      24.686  21.450  -7.198  0.00  0.00     0.009 C 
ENDBRANCH  12  13
ENDBRANCH  10  11
ENDBRANCH   9  10
ENDBRANCH   7   8
ENDBRANCH   6   7
ENDBRANCH   4   5
ENDBRANCH   3   4
ENDBRANCH   1   2
BRANCH   1  15
HETATM   15  C   UNK N   1      25.081  27.472  -5.176  0.00  0.00    -0.027 C 
HETATM   16  C   UNK N   1      25.199  26.202  -5.582  0.00  0.00    -0.030 C 
BRANCH  16  17
HETATM   17  C   UNK N   1      26.156  25.262  -4.920  0.00  0.00     0.027 C 
BRANCH  17  18
HETATM   18  C   UNK N   1      27.366  24.990  -5.790  0.00  0.00     0.006 C 
BRANCH  18  19
HETATM   19  C   UNK N   1      27.642  23.495  -5.810  0.00  0.00     0.027 C 
BRANCH  19  20
HETATM   20  C   UNK N   1      29.014  23.183  -5.234  0.00  0.00     0.168 C 
BRANCH  20  21
HETATM   21  O   UNK N   1      29.069  23.633  -3.911  0.00  0.00    -0.375 OA
BRANCH  21  22
HETATM   22  C   UNK N   1      30.429  23.773  -3.610  0.00  0.00     0.218 C 
BRANCH  22  23
HETATM   23  C   UNK N   1      30.740  25.256  -3.418  0.00  0.00     0.038 C 
HETATM   24  C   UNK N   1      30.841  25.975  -4.752  0.00  0.00     0.008 C 
ENDBRANCH  22  23
BRANCH  22  25
HETATM   25  C   UNK N   1      30.784  22.936  -2.404  0.00  0.00     0.170 C 
HETATM   26  O   UNK N   1      30.147  23.065  -1.373  0.00  0.00    -0.648 OA
BRANCH  25  27
HETATM   27  O   UNK N   1      31.782  22.032  -2.455  0.00  0.00    -0.774 OA
HETATM   28  H   UNK N   1      31.981  21.218  -2.035  0.00  0.00     0.167 HD
ENDBRANCH  25  27
ENDBRANCH  22  25
ENDBRANCH  21  22
ENDBRANCH  20  21
ENDBRANCH  19  20
ENDBRANCH  18  19
ENDBRANCH  17  18
ENDBRANCH  16  17
ENDBRANCH   1  15
TORSDOF 18
ENDMDL
MODEL 2
REMARK VINA RESULT:      -5.3      1.777      5.349
REMARK  18 active torsions:
REMARK  status: ('A' for Active; 'I' for Inactive)
REMARK    1  A    between atoms: C_2  and  C_3 
REMARK    2  A    between atoms: C_4  and  C_5 
REMARK    3  A    between atoms: C_5  and  C_6 
REMARK    4  A    between atoms: C_7  and  C_8 
REMARK    5  A    between atoms: C_8  and  C_9 
REMARK    6  A    between atoms: C_10  and  C_11 
REMARK    7  A    between atoms: C_11  and  C_12 
REMARK    8  A    between atoms: C_13  and  C_14 
REMARK    9  A    between atoms: C_14  and  C_15 
REMARK   10  A    between atoms: C_16  and  C_17 
REMARK   11  A    between atoms: C_17  and  C_18 
REMARK   12  A    between atoms: C_18  and  C_19 
REMARK   13  A    between atoms: C_19  and  C_20 
REMARK   14  A    between atoms: C_20  and  O_21 
REMARK   15  A    between atoms: O_21  and  C_22 
REMARK   16  A    between atoms: C_22  and  C_23 
REMARK   17  A    between atoms: C_22  and  C_25 
REMARK   18  A    between atoms: C_25  and  O_27 
ROOT
HETATM    1  C   UNK N   1      28.766  22.006  -6.414  0.00  0.00     0.053 C 
ENDROOT
BRANCH   1   2
HETATM    2  C   UNK N   1      28.767  21.365  -7.764  0.00  0.00    -0.027 C 
HETATM    3  C   UNK N   1      27.671  21.275  -8.533  0.00  0.00    -0.027 C 
BRANCH   3   4
HETATM    4  C   UNK N   1      26.289  21.702  -8.115  0.00  0.00     0.053 C 
BRANCH   4   5
HETATM    5  C   UNK N   1      25.886  23.030  -8.665  0.00  0.00    -0.027 C 
HETATM    6  C   UNK N   1      25.948  24.106  -7.877  0.00  0.00    -0.027 C 
BRANCH   6   7
HETATM    7  C   UNK N   1      25.594  25.477  -8.370  0.00  0.00     0.053 C 
BRANCH   7   8
HETATM    8  C   UNK N   1      25.959  26.504  -7.355  0.00  0.00    -0.027 C 
HETATM    9  C   UNK N   1      25.318  26.574  -6.193  0.00  0.00    -0.027 C 
BRANCH   9  10
HETATM   10  C   UNK N   1      25.614  27.690  -5.238  0.00  0.00     0.053 C 
BRANCH  10  11
HETATM   11  C   UNK N   1      27.049  28.124  -5.349  0.00  0.00    -0.027 C 
HETATM   12  C   UNK N   1      27.961  27.705  -4.469  0.00  0.00    -0.031 C 
BRANCH  12  13
HETATM   13  C   UNK N   1      29.369  28.175  -4.558  0.00  0.00     0.022 C 
HETATM   14  C   UNK N   1      30.262  27.248  -3.762  0.00  0.00     0.009 C 
ENDBRANCH  12  13
ENDBRANCH  10  11
ENDBRANCH   9  10
ENDBRANCH   7   8
ENDBRANCH   6   7
ENDBRANCH   4   5
ENDBRANCH   3   4
ENDBRANCH   1   2
BRANCH   1  15
HETATM   15  C   UNK N   1      29.196  23.438  -6.477  0.00  0.00    -0.027 C 
HETATM   16  C   UNK N   1      28.669  24.356  -5.658  0.00  0.00    -0.030 C 
BRANCH  16  17
HETATM   17  C   UNK N   1      27.597  23.996  -4.677  0.00  0.00     0.027 C 
BRANCH  17  18
HETATM   18  C   UNK N   1      27.976  24.392  -3.265  0.00  0.00     0.006 C 
BRANCH  18  19
HETATM   19  C   UNK N   1      28.346  23.145  -2.478  0.00  0.00     0.027 C 
BRANCH  19  20
HETATM   20  C   UNK N   1      29.855  22.981  -2.387  0.00  0.00     0.168 C 
BRANCH  20  21
HETATM   21  O   UNK N   1      30.232  21.819  -3.066  0.00  0.00    -0.375 OA
BRANCH  21  22
HETATM   22  C   UNK N   1      31.401  22.144  -3.764  0.00  0.00     0.218 C 
BRANCH  22  23
HETATM   23  C   UNK N   1      31.642  23.648  -3.645  0.00  0.00     0.038 C 
HETATM   24  C   UNK N   1      32.504  24.159  -4.786  0.00  0.00     0.008 C 
ENDBRANCH  22  23
BRANCH  22  25
HETATM   25  C   UNK N   1      32.559  21.320  -3.253  0.00  0.00     0.170 C 
HETATM   26  O   UNK N   1      33.301  20.768  -4.045  0.00  0.00    -0.648 OA
BRANCH  25  27
HETATM   27  O   UNK N   1      32.797  21.201  -1.932  0.00  0.00    -0.774 OA
HETATM   28  H   UNK N   1      33.311  21.655  -1.293  0.00  0.00     0.167 HD
ENDBRANCH  25  27
ENDBRANCH  22  25
ENDBRANCH  21  22
ENDBRANCH  20  21
ENDBRANCH  19  20
ENDBRANCH  18  19
ENDBRANCH  17  18
ENDBRANCH  16  17
ENDBRANCH   1  15
TORSDOF 18
ENDMDL
MODEL 3
REMARK VINA RESULT:      -5.2      1.555      4.932
REMARK  18 active torsions:
REMARK  status: ('A' for Active; 'I' for Inactive)
REMARK    1  A    between atoms: C_2  and  C_3 
REMARK    2  A    between atoms: C_4  and  C_5 
REMARK    3  A    between atoms: C_5  and  C_6 
REMARK    4  A    between atoms: C_7  and  C_8 
REMARK    5  A    between atoms: C_8  and  C_9 
REMARK    6  A    between atoms: C_10  and  C_11 
REMARK    7  A    between atoms: C_11  and  C_12 
REMARK    8  A    between atoms: C_13  and  C_14 
REMARK    9  A    between atoms: C_14  and  C_15 
REMARK   10  A    between atoms: C_16  and  C_17 
REMARK   11  A    between atoms: C_17  and  C_18 
REMARK   12  A    between atoms: C_18  and  C_19 
REMARK   13  A    between atoms: C_19  and  C_20 
REMARK   14  A    between atoms: C_20  and  O_21 
REMARK   15  A    between atoms: O_21  and  C_22 
REMARK   16  A    between atoms: C_22  and  C_23 
REMARK   17  A    between atoms: C_22  and  C_25 
REMARK   18  A    between atoms: C_25  and  O_27 
ROOT
HETATM    1  C   UNK N   1      25.562  24.469  -5.230  0.00  0.00     0.053 C 
ENDROOT
BRANCH   1   2
HETATM    2  C   UNK N   1      25.947  23.247  -5.999  0.00  0.00    -0.027 C 
HETATM    3  C   UNK N   1      26.117  23.241  -7.330  0.00  0.00    -0.027 C 
BRANCH   3   4
HETATM    4  C   UNK N   1      25.847  24.413  -8.236  0.00  0.00     0.053 C 
BRANCH   4   5
HETATM    5  C   UNK N   1      27.045  25.273  -8.468  0.00  0.00    -0.027 C 
HETATM    6  C   UNK N   1      26.977  26.575  -8.179  0.00  0.00    -0.027 C 
BRANCH   6   7
HETATM    7  C   UNK N   1      28.150  27.492  -8.351  0.00  0.00     0.053 C 
BRANCH   7   8
HETATM    8  C   UNK N   1      28.041  28.654  -7.425  0.00  0.00    -0.027 C 
HETATM    9  C   UNK N   1      29.079  29.456  -7.209  0.00  0.00    -0.027 C 
BRANCH   9  10
HETATM   10  C   UNK N   1      28.988  30.542  -6.181  0.00  0.00     0.053 C 
BRANCH  10  11
HETATM   11  C   UNK N   1      28.425  30.013  -4.891  0.00  0.00    -0.027 C 
HETATM   12  C   UNK N   1      27.129  30.155  -4.601  0.00  0.00    -0.031 C 
BRANCH  12  13
HETATM   13  C   UNK N   1      26.589  29.670  -3.303  0.00  0.00     0.022 C 
HETATM   14  C   UNK N   1      27.730  29.209  -2.423  0.00  0.00     0.009 C 
ENDBRANCH  12  13
ENDBRANCH  10  11
ENDBRANCH   9  10
ENDBRANCH   7   8
ENDBRANCH   6   7
ENDBRANCH   4   5
ENDBRANCH   3   4
ENDBRANCH   1   2
BRANCH   1  15
HETATM   15  C   UNK N   1      26.224  24.514  -3.888  0.00  0.00    -0.027 C 
HETATM   16  C   UNK N   1      27.230  25.361  -3.641  0.00  0.00    -0.030 C 
BRANCH  16  17
HETATM   17  C   UNK N   1      27.763  26.265  -4.707  0.00  0.00     0.027 C 
BRANCH  17  18
HETATM   18  C   UNK N   1      29.257  26.090  -4.894  0.00  0.00     0.006 C 
BRANCH  18  19
HETATM   19  C   UNK N   1      29.509  24.931  -5.845  0.00  0.00     0.027 C 
BRANCH  19  20
HETATM   20  C   UNK N   1      30.363  23.858  -5.189  0.00  0.00     0.168 C 
BRANCH  20  21
HETATM   21  O   UNK N   1      29.550  23.050  -4.389  0.00  0.00    -0.375 OA
BRANCH  21  22
HETATM   22  C   UNK N   1      30.368  22.005  -3.942  0.00  0.00     0.218 C 
BRANCH  22  23
HETATM   23  C   UNK N   1      31.399  21.690  -5.024  0.00  0.00     0.038 C 
HETATM   24  C   UNK N   1      31.140  20.333  -5.654  0.00  0.00     0.008 C 
ENDBRANCH  22  23
BRANCH  22  25
HETATM   25  C   UNK N   1      30.997  22.366  -2.617  0.00  0.00     0.170 C 
HETATM   26  O   UNK N   1      32.049  21.849  -2.289  0.00  0.00    -0.648 OA
BRANCH  25  27
HETATM   27  O   UNK N   1      30.422  23.271  -1.800  0.00  0.00    -0.774 OA
HETATM   28  H   UNK N   1      29.765  23.934  -1.879  0.00  0.00     0.167 HD
ENDBRANCH  25  27
ENDBRANCH  22  25
ENDBRANCH  21  22
ENDBRANCH  20  21
ENDBRANCH  19  20
ENDBRANCH  18  19
ENDBRANCH  17  18
ENDBRANCH  16  17
ENDBRANCH   1  15
TORSDOF 18
ENDMDL
MODEL 4
REMARK VINA RESULT:      -5.1      1.901      5.717
REMARK  18 active torsions:
REMARK  status: ('A' for Active; 'I' for Inactive)
REMARK    1  A    between atoms: C_2  and  C_3 
REMARK    2  A    between atoms: C_4  and  C_5 
REMARK    3  A    between atoms: C_5  and  C_6 
REMARK    4  A    between atoms: C_7  and  C_8 
REMARK    5  A    between atoms: C_8  and  C_9 
REMARK    6  A    between atoms: C_10  and  C_11 
REMARK    7  A    between atoms: C_11  and  C_12 
REMARK    8  A    between atoms: C_13  and  C_14 
REMARK    9  A    between atoms: C_14  and  C_15 
REMARK   10  A    between atoms: C_16  and  C_17 
REMARK   11  A    between atoms: C_17  and  C_18 
REMARK   12  A    between atoms: C_18  and  C_19 
REMARK   13  A    between atoms: C_19  and  C_20 
REMARK   14  A    between atoms: C_20  and  O_21 
REMARK   15  A    between atoms: O_21  and  C_22 
REMARK   16  A    between atoms: C_22  and  C_23 
REMARK   17  A    between atoms: C_22  and  C_25 
REMARK   18  A    between atoms: C_25  and  O_27 
ROOT
HETATM    1  C   UNK N   1      27.885  22.479  -7.940  0.00  0.00     0.053 C 
ENDROOT
BRANCH   1   2
HETATM    2  C   UNK N   1      26.481  22.091  -7.608  0.00  0.00    -0.027 C 
HETATM    3  C   UNK N   1      25.801  22.612  -6.576  0.00  0.00    -0.027 C 
BRANCH   3   4
HETATM    4  C   UNK N   1      26.376  23.562  -5.559  0.00  0.00     0.053 C 
BRANCH   4   5
HETATM    5  C   UNK N   1      25.484  24.721  -5.259  0.00  0.00    -0.027 C 
HETATM    6  C   UNK N   1      25.720  25.894  -5.852  0.00  0.00    -0.027 C 
BRANCH   6   7
HETATM    7  C   UNK N   1      24.845  27.091  -5.627  0.00  0.00     0.053 C 
BRANCH   7   8
HETATM    8  C   UNK N   1      25.582  28.137  -4.865  0.00  0.00    -0.027 C 
HETATM    9  C   UNK N   1      26.415  27.806  -3.883  0.00  0.00    -0.027 C 
BRANCH   9  10
HETATM   10  C   UNK N   1      27.050  28.874  -3.046  0.00  0.00     0.053 C 
BRANCH  10  11
HETATM   11  C   UNK N   1      28.546  28.726  -3.032  0.00  0.00    -0.027 C 
HETATM   12  C   UNK N   1      29.248  28.773  -4.166  0.00  0.00    -0.031 C 
BRANCH  12  13
HETATM   13  C   UNK N   1      30.723  28.580  -4.149  0.00  0.00     0.022 C 
HETATM   14  C   UNK N   1      31.153  28.100  -2.779  0.00  0.00     0.009 C 
ENDBRANCH  12  13
ENDBRANCH  10  11
ENDBRANCH   9  10
ENDBRANCH   7   8
ENDBRANCH   6   7
ENDBRANCH   4   5
ENDBRANCH   3   4
ENDBRANCH   1   2
BRANCH   1  15
HETATM   15  C   UNK N   1      27.940  23.739  -8.746  0.00  0.00    -0.027 C 
HETATM   16  C   UNK N   1      28.798  24.720  -8.440  0.00  0.00    -0.030 C 
BRANCH  16  17
HETATM   17  C   UNK N   1      29.706  24.614  -7.255  0.00  0.00     0.027 C 
BRANCH  17  18
HETATM   18  C   UNK N   1      29.368  25.645  -6.198  0.00  0.00     0.006 C 
BRANCH  18  19
HETATM   19  C   UNK N   1      29.646  25.060  -4.822  0.00  0.00     0.027 C 
BRANCH  19  20
HETATM   20  C   UNK N   1      31.133  24.824  -4.616  0.00  0.00     0.168 C 
BRANCH  20  21
HETATM   21  O   UNK N   1      31.393  23.452  -4.683  0.00  0.00    -0.375 OA
BRANCH  21  22
HETATM   22  C   UNK N   1      30.400  22.835  -3.913  0.00  0.00     0.218 C 
BRANCH  22  23
HETATM   23  C   UNK N   1      29.944  21.563  -4.625  0.00  0.00     0.038 C 
HETATM   24  C   UNK N   1      30.791  21.288  -5.856  0.00  0.00     0.008 C 
ENDBRANCH  22  23
BRANCH  22  25
HETATM   25  C   UNK N   1      30.910  22.576  -2.516  0.00  0.00     0.170 C 
HETATM   26  O   UNK N   1      31.933  21.935  -2.357  0.00  0.00    -0.648 OA
BRANCH  25  27
HETATM   27  O   UNK N   1      30.263  23.063  -1.438  0.00  0.00    -0.774 OA
HETATM   28  H   UNK N   1      29.674  22.725  -0.792  0.00  0.00     0.167 HD
ENDBRANCH  25  27
ENDBRANCH  22  25
ENDBRANCH  21  22
ENDBRANCH  20  21
ENDBRANCH  19  20
ENDBRANCH  18  19
ENDBRANCH  17  18
ENDBRANCH  16  17
ENDBRANCH   1  15
TORSDOF 18
ENDMDL
MODEL 5
REMARK VINA RESULT:      -5.1      2.707      6.314
REMARK  18 active torsions:
REMARK  status: ('A' for Active; 'I' for Inactive)
REMARK    1  A    between atoms: C_2  and  C_3 
REMARK    2  A    between atoms: C_4  and  C_5 
REMARK    3  A    between atoms: C_5  and  C_6 
REMARK    4  A    between atoms: C_7  and  C_8 
REMARK    5  A    between atoms: C_8  and  C_9 
REMARK    6  A    between atoms: C_10  and  C_11 
REMARK    7  A    between atoms: C_11  and  C_12 
REMARK    8  A    between atoms: C_13  and  C_14 
REMARK    9  A    between atoms: C_14  and  C_15 
REMARK   10  A    between atoms: C_16  and  C_17 
REMARK   11  A    between atoms: C_17  and  C_18 
REMARK   12  A    between atoms: C_18  and  C_19 
REMARK   13  A    between atoms: C_19  and  C_20 
REMARK   14  A    between atoms: C_20  and  O_21 
REMARK   15  A    between atoms: O_21  and  C_22 
REMARK   16  A    between atoms: C_22  and  C_23 
REMARK   17  A    between atoms: C_22  and  C_25 
REMARK   18  A    between atoms: C_25  and  O_27 
ROOT
HETATM    1  C   UNK N   1      26.271  28.278  -5.254  0.00  0.00     0.053 C 
ENDROOT
BRANCH   1   2
HETATM    2  C   UNK N   1      27.433  29.019  -5.833  0.00  0.00    -0.027 C 
HETATM    3  C   UNK N   1      28.433  28.415  -6.493  0.00  0.00    -0.027 C 
BRANCH   3   4
HETATM    4  C   UNK N   1      28.582  26.925  -6.652  0.00  0.00     0.053 C 
BRANCH   4   5
HETATM    5  C   UNK N   1      29.698  26.350  -5.845  0.00  0.00    -0.027 C 
HETATM    6  C   UNK N   1      29.800  26.674  -4.553  0.00  0.00    -0.027 C 
BRANCH   6   7
HETATM    7  C   UNK N   1      30.872  26.107  -3.672  0.00  0.00     0.053 C 
BRANCH   7   8
HETATM    8  C   UNK N   1      30.530  24.715  -3.267  0.00  0.00    -0.027 C 
HETATM    9  C   UNK N   1      31.272  23.686  -3.665  0.00  0.00    -0.027 C 
BRANCH   9  10
HETATM   10  C   UNK N   1      30.841  22.285  -3.354  0.00  0.00     0.053 C 
BRANCH  10  11
HETATM   11  C   UNK N   1      31.899  21.297  -3.758  0.00  0.00    -0.027 C 
HETATM   12  C   UNK N   1      33.091  21.285  -3.157  0.00  0.00    -0.031 C 
BRANCH  12  13
HETATM   13  C   UNK N   1      34.147  20.334  -3.593  0.00  0.00     0.022 C 
HETATM   14  C   UNK N   1      33.509  19.172  -4.323  0.00  0.00     0.009 C 
ENDBRANCH  12  13
ENDBRANCH  10  11
ENDBRANCH   9  10
ENDBRANCH   7   8
ENDBRANCH   6   7
ENDBRANCH   4   5
ENDBRANCH   3   4
ENDBRANCH   1   2
BRANCH   1  15
HETATM   15  C   UNK N   1      26.396  28.116  -3.772  0.00  0.00    -0.027 C 
HETATM   16  C   UNK N   1      26.304  26.910  -3.198  0.00  0.00    -0.030 C 
BRANCH  16  17
HETATM   17  C   UNK N   1      26.028  25.684  -4.008  0.00  0.00     0.027 C 
BRANCH  17  18
HETATM   18  C   UNK N   1      26.941  24.539  -3.620  0.00  0.00     0.006 C 
BRANCH  18  19
HETATM   19  C   UNK N   1      27.365  23.791  -4.874  0.00  0.00     0.027 C 
BRANCH  19  20
HETATM   20  C   UNK N   1      26.173  23.510  -5.775  0.00  0.00     0.168 C 
BRANCH  20  21
HETATM   21  O   UNK N   1      26.634  23.139  -7.042  0.00  0.00    -0.375 OA
BRANCH  21  22
HETATM   22  C   UNK N   1      25.687  23.625  -7.952  0.00  0.00     0.218 C 
BRANCH  22  23
HETATM   23  C   UNK N   1      26.389  24.541  -8.952  0.00  0.00     0.038 C 
HETATM   24  C   UNK N   1      25.817  25.947  -8.907  0.00  0.00     0.008 C 
ENDBRANCH  22  23
BRANCH  22  25
HETATM   25  C   UNK N   1      24.964  22.475  -8.614  0.00  0.00     0.170 C 
HETATM   26  O   UNK N   1      25.406  22.000  -9.645  0.00  0.00    -0.648 OA
BRANCH  25  27
HETATM   27  O   UNK N   1      23.848  21.951  -8.070  0.00  0.00    -0.774 OA
HETATM   28  H   UNK N   1      23.510  21.828  -7.204  0.00  0.00     0.167 HD
ENDBRANCH  25  27
ENDBRANCH  22  25
ENDBRANCH  21  22
ENDBRANCH  20  21
ENDBRANCH  19  20
ENDBRANCH  18  19
ENDBRANCH  17  18
ENDBRANCH  16  17
ENDBRANCH   1  15
TORSDOF 18
ENDMDL
MODEL 6
REMARK VINA RESULT:      -5.1     11.705     14.750
REMARK  18 active torsions:
REMARK  status: ('A' for Active; 'I' for Inactive)
REMARK    1  A    between atoms: C_2  and  C_3 
REMARK    2  A    between atoms: C_4  and  C_5 
REMARK    3  A    between atoms: C_5  and  C_6 
REMARK    4  A    between atoms: C_7  and  C_8 
REMARK    5  A    between atoms: C_8  and  C_9 
REMARK    6  A    between atoms: C_10  and  C_11 
REMARK    7  A    between atoms: C_11  and  C_12 
REMARK    8  A    between atoms: C_13  and  C_14 
REMARK    9  A    between atoms: C_14  and  C_15 
REMARK   10  A    between atoms: C_16  and  C_17 
REMARK   11  A    between atoms: C_17  and  C_18 
REMARK   12  A    between atoms: C_18  and  C_19 
REMARK   13  A    between atoms: C_19  and  C_20 
REMARK   14  A    between atoms: C_20  and  O_21 
REMARK   15  A    between atoms: O_21  and  C_22 
REMARK   16  A    between atoms: C_22  and  C_23 
REMARK   17  A    between atoms: C_22  and  C_25 
REMARK   18  A    between atoms: C_25  and  O_27 
ROOT
HETATM    1  C   UNK N   1      28.049  18.791   6.866  0.00  0.00     0.053 C 
ENDROOT
BRANCH   1   2
HETATM    2  C   UNK N   1      28.207  17.522   7.640  0.00  0.00    -0.027 C 
HETATM    3  C   UNK N   1      29.035  17.401   8.688  0.00  0.00    -0.027 C 
BRANCH   3   4
HETATM    4  C   UNK N   1      29.985  18.469   9.163  0.00  0.00     0.053 C 
BRANCH   4   5
HETATM    5  C   UNK N   1      31.308  18.436   8.472  0.00  0.00    -0.027 C 
HETATM    6  C   UNK N   1      31.600  17.404   7.676  0.00  0.00    -0.027 C 
BRANCH   6   7
HETATM    7  C   UNK N   1      32.894  17.322   6.921  0.00  0.00     0.053 C 
BRANCH   7   8
HETATM    8  C   UNK N   1      32.660  16.799   5.547  0.00  0.00    -0.027 C 
HETATM    9  C   UNK N   1      32.488  17.627   4.521  0.00  0.00    -0.027 C 
BRANCH   9  10
HETATM   10  C   UNK N   1      32.130  17.085   3.171  0.00  0.00     0.053 C 
BRANCH  10  11
HETATM   11  C   UNK N   1      31.030  16.065   3.277  0.00  0.00    -0.027 C 
HETATM   12  C   UNK N   1      29.806  16.328   2.813  0.00  0.00    -0.031 C 
BRANCH  12  13
HETATM   13  C   UNK N   1      28.712  15.331   2.963  0.00  0.00     0.022 C 
HETATM   14  C   UNK N   1      27.379  16.047   2.997  0.00  0.00     0.009 C 
ENDBRANCH  12  13
ENDBRANCH  10  11
ENDBRANCH   9  10
ENDBRANCH   7   8
ENDBRANCH   6   7
ENDBRANCH   4   5
ENDBRANCH   3   4
ENDBRANCH   1   2
BRANCH   1  15
HETATM   15  C   UNK N   1      28.546  18.652   5.461  0.00  0.00    -0.027 C 
HETATM   16  C   UNK N   1      28.089  19.444   4.484  0.00  0.00    -0.030 C 
BRANCH  16  17
HETATM   17  C   UNK N   1      27.031  20.468   4.747  0.00  0.00     0.027 C 
BRANCH  17  18
HETATM   18  C   UNK N   1      25.908  20.386   3.733  0.00  0.00     0.006 C 
BRANCH  18  19
HETATM   19  C   UNK N   1      25.368  18.965   3.700  0.00  0.00     0.027 C 
BRANCH  19  20
HETATM   20  C   UNK N   1      23.929  18.913   4.186  0.00  0.00     0.168 C 
BRANCH  20  21
HETATM   21  O   UNK N   1      23.193  19.918   3.552  0.00  0.00    -0.375 OA
BRANCH  21  22
HETATM   22  C   UNK N   1      21.978  19.328   3.181  0.00  0.00     0.218 C 
BRANCH  22  23
HETATM   23  C   UNK N   1      21.247  18.875   4.442  0.00  0.00     0.038 C 
HETATM   24  C   UNK N   1      20.627  17.501   4.256  0.00  0.00     0.008 C 
ENDBRANCH  22  23
BRANCH  22  25
HETATM   25  C   UNK N   1      21.168  20.289   2.343  0.00  0.00     0.170 C 
HETATM   26  O   UNK N   1      21.617  21.392   2.088  0.00  0.00    -0.648 OA
BRANCH  25  27
HETATM   27  O   UNK N   1      19.961  19.938   1.855  0.00  0.00    -0.774 OA
HETATM   28  H   UNK N   1      19.397  20.233   1.167  0.00  0.00     0.167 HD
ENDBRANCH  25  27
ENDBRANCH  22  25
ENDBRANCH  21  22
ENDBRANCH  20  21
ENDBRANCH  19  20
ENDBRANCH  18  19
ENDBRANCH  17  18
ENDBRANCH  16  17
ENDBRANCH   1  15
TORSDOF 18
ENDMDL
MODEL 7
REMARK VINA RESULT:      -5.1      2.823      5.724
REMARK  18 active torsions:
REMARK  status: ('A' for Active; 'I' for Inactive)
REMARK    1  A    between atoms: C_2  and  C_3 
REMARK    2  A    between atoms: C_4  and  C_5 
REMARK    3  A    between atoms: C_5  and  C_6 
REMARK    4  A    between atoms: C_7  and  C_8 
REMARK    5  A    between atoms: C_8  and  C_9 
REMARK    6  A    between atoms: C_10  and  C_11 
REMARK    7  A    between atoms: C_11  and  C_12 
REMARK    8  A    between atoms: C_13  and  C_14 
REMARK    9  A    between atoms: C_14  and  C_15 
REMARK   10  A    between atoms: C_16  and  C_17 
REMARK   11  A    between atoms: C_17  and  C_18 
REMARK   12  A    between atoms: C_18  and  C_19 
REMARK   13  A    between atoms: C_19  and  C_20 
REMARK   14  A    between atoms: C_20  and  O_21 
REMARK   15  A    between atoms: O_21  and  C_22 
REMARK   16  A    between atoms: C_22  and  C_23 
REMARK   17  A    between atoms: C_22  and  C_25 
REMARK   18  A    between atoms: C_25  and  O_27 
ROOT
HETATM    1  C   UNK N   1      26.251  28.356  -4.978  0.00  0.00     0.053 C 
ENDROOT
BRANCH   1   2
HETATM    2  C   UNK N   1      27.378  29.243  -5.399  0.00  0.00    -0.027 C 
HETATM    3  C   UNK N   1      28.376  28.832  -6.196  0.00  0.00    -0.027 C 
BRANCH   3   4
HETATM    4  C   UNK N   1      28.560  27.420  -6.686  0.00  0.00     0.053 C 
BRANCH   4   5
HETATM    5  C   UNK N   1      29.496  26.617  -5.844  0.00  0.00    -0.027 C 
HETATM    6  C   UNK N   1      29.912  27.115  -4.677  0.00  0.00    -0.027 C 
BRANCH   6   7
HETATM    7  C   UNK N   1      30.822  26.351  -3.763  0.00  0.00     0.053 C 
BRANCH   7   8
HETATM    8  C   UNK N   1      30.266  24.996  -3.492  0.00  0.00    -0.027 C 
HETATM    9  C   UNK N   1      31.058  23.929  -3.449  0.00  0.00    -0.027 C 
BRANCH   9  10
HETATM   10  C   UNK N   1      30.467  22.560  -3.300  0.00  0.00     0.053 C 
BRANCH  10  11
HETATM   11  C   UNK N   1      30.167  21.957  -4.644  0.00  0.00    -0.027 C 
HETATM   12  C   UNK N   1      30.769  20.833  -5.039  0.00  0.00    -0.031 C 
BRANCH  12  13
HETATM   13  C   UNK N   1      30.502  20.267  -6.388  0.00  0.00     0.022 C 
HETATM   14  C   UNK N   1      29.338  20.999  -7.020  0.00  0.00     0.009 C 
ENDBRANCH  12  13
ENDBRANCH  10  11
ENDBRANCH   9  10
ENDBRANCH   7   8
ENDBRANCH   6   7
ENDBRANCH   4   5
ENDBRANCH   3   4
ENDBRANCH   1   2
BRANCH   1  15
HETATM   15  C   UNK N   1      26.464  27.796  -3.608  0.00  0.00    -0.027 C 
HETATM   16  C   UNK N   1      26.376  26.481  -3.376  0.00  0.00    -0.030 C 
BRANCH  16  17
HETATM   17  C   UNK N   1      26.016  25.523  -4.468  0.00  0.00     0.027 C 
BRANCH  17  18
HETATM   18  C   UNK N   1      26.981  24.357  -4.530  0.00  0.00     0.006 C 
BRANCH  18  19
HETATM   19  C   UNK N   1      26.987  23.787  -5.939  0.00  0.00     0.027 C 
BRANCH  19  20
HETATM   20  C   UNK N   1      25.998  24.519  -6.832  0.00  0.00     0.168 C 
BRANCH  20  21
HETATM   21  O   UNK N   1      25.239  23.583  -7.540  0.00  0.00    -0.375 OA
BRANCH  21  22
HETATM   22  C   UNK N   1      26.158  22.691  -8.105  0.00  0.00     0.218 C 
BRANCH  22  23
HETATM   23  C   UNK N   1      25.678  21.264  -7.851  0.00  0.00     0.038 C 
HETATM   24  C   UNK N   1      24.407  21.250  -7.020  0.00  0.00     0.008 C 
ENDBRANCH  22  23
BRANCH  22  25
HETATM   25  C   UNK N   1      26.347  22.997  -9.572  0.00  0.00     0.170 C 
HETATM   26  O   UNK N   1      27.261  23.721  -9.923  0.00  0.00    -0.648 OA
BRANCH  25  27
HETATM   27  O   UNK N   1      25.531  22.464 -10.503  0.00  0.00    -0.774 OA
HETATM   28  H   UNK N   1      25.631  22.088 -11.355  0.00  0.00     0.167 HD
ENDBRANCH  25  27
ENDBRANCH  22  25
ENDBRANCH  21  22
ENDBRANCH  20  21
ENDBRANCH  19  20
ENDBRANCH  18  19
ENDBRANCH  17  18
ENDBRANCH  16  17
ENDBRANCH   1  15
TORSDOF 18
ENDMDL
MODEL 8
REMARK VINA RESULT:      -5.1      2.056      3.604
REMARK  18 active torsions:
REMARK  status: ('A' for Active; 'I' for Inactive)
REMARK    1  A    between atoms: C_2  and  C_3 
REMARK    2  A    between atoms: C_4  and  C_5 
REMARK    3  A    between atoms: C_5  and  C_6 
REMARK    4  A    between atoms: C_7  and  C_8 
REMARK    5  A    between atoms: C_8  and  C_9 
REMARK    6  A    between atoms: C_10  and  C_11 
REMARK    7  A    between atoms: C_11  and  C_12 
REMARK    8  A    between atoms: C_13  and  C_14 
REMARK    9  A    between atoms: C_14  and  C_15 
REMARK   10  A    between atoms: C_16  and  C_17 
REMARK   11  A    between atoms: C_17  and  C_18 
REMARK   12  A    between atoms: C_18  and  C_19 
REMARK   13  A    between atoms: C_19  and  C_20 
REMARK   14  A    between atoms: C_20  and  O_21 
REMARK   15  A    between atoms: O_21  and  C_22 
REMARK   16  A    between atoms: C_22  and  C_23 
REMARK   17  A    between atoms: C_22  and  C_25 
REMARK   18  A    between atoms: C_25  and  O_27 
ROOT
HETATM    1  C   UNK N   1      27.366  28.821  -4.928  0.00  0.00     0.053 C 
ENDROOT
BRANCH   1   2
HETATM    2  C   UNK N   1      26.230  28.556  -3.993  0.00  0.00    -0.027 C 
HETATM    3  C   UNK N   1      25.142  27.852  -4.342  0.00  0.00    -0.027 C 
BRANCH   3   4
HETATM    4  C   UNK N   1      24.863  27.329  -5.726  0.00  0.00     0.053 C 
BRANCH   4   5
HETATM    5  C   UNK N   1      25.529  26.024  -6.013  0.00  0.00    -0.027 C 
HETATM    6  C   UNK N   1      25.483  25.055  -5.095  0.00  0.00    -0.027 C 
BRANCH   6   7
HETATM    7  C   UNK N   1      26.097  23.707  -5.329  0.00  0.00     0.053 C 
BRANCH   7   8
HETATM    8  C   UNK N   1      25.972  23.321  -6.762  0.00  0.00    -0.027 C 
HETATM    9  C   UNK N   1      25.560  22.105  -7.108  0.00  0.00    -0.027 C 
BRANCH   9  10
HETATM   10  C   UNK N   1      25.560  21.694  -8.548  0.00  0.00     0.053 C 
BRANCH  10  11
HETATM   11  C   UNK N   1      26.842  20.995  -8.907  0.00  0.00    -0.027 C 
HETATM   12  C   UNK N   1      27.817  20.849  -8.007  0.00  0.00    -0.031 C 
BRANCH  12  13
HETATM   13  C   UNK N   1      29.100  20.196  -8.382  0.00  0.00     0.022 C 
HETATM   14  C   UNK N   1      29.213  18.863  -7.675  0.00  0.00     0.009 C 
ENDBRANCH  12  13
ENDBRANCH  10  11
ENDBRANCH   9  10
ENDBRANCH   7   8
ENDBRANCH   6   7
ENDBRANCH   4   5
ENDBRANCH   3   4
ENDBRANCH   1   2
BRANCH   1  15
HETATM   15  C   UNK N   1      28.671  28.925  -4.204  0.00  0.00    -0.027 C 
HETATM   16  C   UNK N   1      29.425  27.842  -3.979  0.00  0.00    -0.030 C 
BRANCH  16  17
HETATM   17  C   UNK N   1      28.974  26.480  -4.401  0.00  0.00     0.027 C 
BRANCH  17  18
HETATM   18  C   UNK N   1      29.715  26.002  -5.633  0.00  0.00     0.006 C 
BRANCH  18  19
HETATM   19  C   UNK N   1      29.419  24.527  -5.853  0.00  0.00     0.027 C 
BRANCH  19  20
HETATM   20  C   UNK N   1      30.430  23.650  -5.133  0.00  0.00     0.168 C 
BRANCH  20  21
HETATM   21  O   UNK N   1      29.793  22.490  -4.681  0.00  0.00    -0.375 OA
BRANCH  21  22
HETATM   22  C   UNK N   1      30.450  22.126  -3.500  0.00  0.00     0.218 C 
BRANCH  22  23
HETATM   23  C   UNK N   1      31.939  22.427  -3.653  0.00  0.00     0.038 C 
HETATM   24  C   UNK N   1      32.787  21.240  -3.231  0.00  0.00     0.008 C 
ENDBRANCH  22  23
BRANCH  22  25
HETATM   25  C   UNK N   1      29.826  22.831  -2.318  0.00  0.00     0.170 C 
HETATM   26  O   UNK N   1      30.520  23.143  -1.368  0.00  0.00    -0.648 OA
BRANCH  25  27
HETATM   27  O   UNK N   1      28.514  23.140  -2.308  0.00  0.00    -0.774 OA
HETATM   28  H   UNK N   1      27.782  23.006  -2.878  0.00  0.00     0.167 HD
ENDBRANCH  25  27
ENDBRANCH  22  25
ENDBRANCH  21  22
ENDBRANCH  20  21
ENDBRANCH  19  20
ENDBRANCH  18  19
ENDBRANCH  17  18
ENDBRANCH  16  17
ENDBRANCH   1  15
TORSDOF 18
ENDMDL
MODEL 9
REMARK VINA RESULT:      -5.0      1.567      3.656
REMARK  18 active torsions:
REMARK  status: ('A' for Active; 'I' for Inactive)
REMARK    1  A    between atoms: C_2  and  C_3 
REMARK    2  A    between atoms: C_4  and  C_5 
REMARK    3  A    between atoms: C_5  and  C_6 
REMARK    4  A    between atoms: C_7  and  C_8 
REMARK    5  A    between atoms: C_8  and  C_9 
REMARK    6  A    between atoms: C_10  and  C_11 
REMARK    7  A    between atoms: C_11  and  C_12 
REMARK    8  A    between atoms: C_13  and  C_14 
REMARK    9  A    between atoms: C_14  and  C_15 
REMARK   10  A    between atoms: C_16  and  C_17 
REMARK   11  A    between atoms: C_17  and  C_18 
REMARK   12  A    between atoms: C_18  and  C_19 
REMARK   13  A    between atoms: C_19  and  C_20 
REMARK   14  A    between atoms: C_20  and  O_21 
REMARK   15  A    between atoms: O_21  and  C_22 
REMARK   16  A    between atoms: C_22  and  C_23 
REMARK   17  A    between atoms: C_22  and  C_25 
REMARK   18  A    between atoms: C_25  and  O_27 
ROOT
HETATM    1  C   UNK N   1      27.452  28.581  -5.352  0.00  0.00     0.053 C 
ENDROOT
BRANCH   1   2
HETATM    2  C   UNK N   1      26.004  28.336  -5.073  0.00  0.00    -0.027 C 
HETATM    3  C   UNK N   1      25.573  27.443  -4.170  0.00  0.00    -0.027 C 
BRANCH   3   4
HETATM    4  C   UNK N   1      26.460  26.502  -3.398  0.00  0.00     0.053 C 
BRANCH   4   5
HETATM    5  C   UNK N   1      26.561  25.144  -4.012  0.00  0.00    -0.027 C 
HETATM    6  C   UNK N   1      25.975  24.918  -5.190  0.00  0.00    -0.027 C 
BRANCH   6   7
HETATM    7  C   UNK N   1      26.065  23.591  -5.883  0.00  0.00     0.053 C 
BRANCH   7   8
HETATM    8  C   UNK N   1      25.866  23.757  -7.350  0.00  0.00    -0.027 C 
HETATM    9  C   UNK N   1      25.872  24.964  -7.907  0.00  0.00    -0.027 C 
BRANCH   9  10
HETATM   10  C   UNK N   1      25.545  25.121  -9.361  0.00  0.00     0.053 C 
BRANCH  10  11
HETATM   11  C   UNK N   1      26.637  25.864 -10.079  0.00  0.00    -0.027 C 
HETATM   12  C   UNK N   1      27.826  25.296 -10.293  0.00  0.00    -0.031 C 
BRANCH  12  13
HETATM   13  C   UNK N   1      28.915  26.054 -10.964  0.00  0.00     0.022 C 
HETATM   14  C   UNK N   1      28.615  27.536 -10.894  0.00  0.00     0.009 C 
ENDBRANCH  12  13
ENDBRANCH  10  11
ENDBRANCH   9  10
ENDBRANCH   7   8
ENDBRANCH   6   7
ENDBRANCH   4   5
ENDBRANCH   3   4
ENDBRANCH   1   2
BRANCH   1  15
HETATM   15  C   UNK N   1      27.770  28.440  -6.807  0.00  0.00    -0.027 C 
HETATM   16  C   UNK N   1      28.525  27.430  -7.256  0.00  0.00    -0.030 C 
BRANCH  16  17
HETATM   17  C   UNK N   1      29.118  26.428  -6.317  0.00  0.00     0.027 C 
BRANCH  17  18
HETATM   18  C   UNK N   1      29.601  25.193  -7.049  0.00  0.00     0.006 C 
BRANCH  18  19
HETATM   19  C   UNK N   1      30.787  24.601  -6.303  0.00  0.00     0.027 C 
BRANCH  19  20
HETATM   20  C   UNK N   1      30.554  24.617  -4.800  0.00  0.00     0.168 C 
BRANCH  20  21
HETATM   21  O   UNK N   1      31.649  24.029  -4.160  0.00  0.00    -0.375 OA
BRANCH  21  22
HETATM   22  C   UNK N   1      31.113  23.209  -3.159  0.00  0.00     0.218 C 
BRANCH  22  23
HETATM   23  C   UNK N   1      29.599  23.133  -3.344  0.00  0.00     0.038 C 
HETATM   24  C   UNK N   1      28.884  23.061  -2.006  0.00  0.00     0.008 C 
ENDBRANCH  22  23
BRANCH  22  25
HETATM   25  C   UNK N   1      31.779  21.854  -3.185  0.00  0.00     0.170 C 
HETATM   26  O   UNK N   1      31.804  21.214  -4.221  0.00  0.00    -0.648 OA
BRANCH  25  27
HETATM   27  O   UNK N   1      32.366  21.348  -2.082  0.00  0.00    -0.774 OA
HETATM   28  H   UNK N   1      32.105  21.159  -1.202  0.00  0.00     0.167 HD
ENDBRANCH  25  27
ENDBRANCH  22  25
ENDBRANCH  21  22
ENDBRANCH  20  21
ENDBRANCH  19  20
ENDBRANCH  18  19
ENDBRANCH  17  18
ENDBRANCH  16  17
ENDBRANCH   1  15
TORSDOF 18
ENDMDL
