MODEL 1
REMARK VINA RESULT:      -7.2      0.000      0.000
REMARK  9 active torsions:
REMARK  status: ('A' for Active; 'I' for Inactive)
REMARK    1  A    between atoms: C_3  and  O_26 
REMARK    2  A    between atoms: C_4  and  O_21 
REMARK    3  A    between atoms: C_6  and  C_7 
REMARK    4  A    between atoms: C_8  and  O_20 
REMARK    5  A    between atoms: C_12  and  O_19 
REMARK    6  A    between atoms: C_14  and  O_18 
REMARK    7  A    between atoms: O_21  and  P_22 
REMARK    8  A    between atoms: P_22  and  O_24 
REMARK    9  A    between atoms: P_22  and  O_25 
ROOT
HETATM    1  C   UNK N   1      24.940  18.475   4.070  0.00  0.00     0.123 A 
HETATM    2  C   UNK N   1      24.961  19.809   3.596  0.00  0.00     0.152 A 
HETATM    3  C   UNK N   1      23.755  20.410   3.203  0.00  0.00     0.223 A 
HETATM    4  O   UNK N   1      23.761  21.565   2.803  0.00  0.00    -0.284 OA
HETATM    5  C   UNK N   1      22.553  19.679   3.283  0.00  0.00     0.084 A 
HETATM    6  C   UNK N   1      21.290  20.213   2.919  0.00  0.00     0.085 A 
HETATM    7  C   UNK N   1      20.141  19.423   3.028  0.00  0.00     0.074 A 
HETATM    8  C   UNK N   1      20.225  18.109   3.492  0.00  0.00     0.071 A 
HETATM    9  C   UNK N   1      21.461  17.577   3.854  0.00  0.00     0.075 A 
HETATM   10  C   UNK N   1      22.620  18.348   3.755  0.00  0.00     0.096 A 
HETATM   11  O   UNK N   1      23.780  17.820   4.120  0.00  0.00    -0.306 OA
ENDROOT
BRANCH   1  12
HETATM   12  C   UNK N   1      26.147  17.759   4.571  0.00  0.00     0.004 A 
HETATM   13  C   UNK N   1      26.627  17.868   5.894  0.00  0.00     0.054 A 
HETATM   14  C   UNK N   1      27.720  17.083   6.320  0.00  0.00     0.115 A 
HETATM   15  C   UNK N   1      28.327  16.198   5.421  0.00  0.00     0.099 A 
HETATM   16  C   UNK N   1      27.875  16.111   4.108  0.00  0.00     0.040 A 
HETATM   17  C   UNK N   1      26.794  16.882   3.690  0.00  0.00     0.017 A 
BRANCH  14  18
HETATM   18  O   UNK N   1      28.198  17.146   7.586  0.00  0.00    -0.252 OA
BRANCH  18  19
HETATM   19  P   UNK N   1      28.670  18.607   8.358  0.00  0.00     0.396 P 
HETATM   20  O   UNK N   1      29.374  18.306   9.708  0.00  0.00    -0.631 OA
BRANCH  19  21
HETATM   21  O   UNK N   1      27.413  17.905   9.327  0.00  0.00    -0.307 OA
HETATM   22  H   UNK N   1      26.605  17.445   9.602  0.00  0.00     0.222 HD
ENDBRANCH  19  21
BRANCH  19  23
HETATM   23  O   UNK N   1      30.063  17.650   7.946  0.00  0.00    -0.307 OA
HETATM   24  H   UNK N   1      30.125  17.178   7.101  0.00  0.00     0.222 HD
ENDBRANCH  19  23
ENDBRANCH  18  19
ENDBRANCH  14  18
BRANCH  15  25
HETATM   25  O   UNK N   1      29.365  15.440   5.815  0.00  0.00    -0.358 OA
HETATM   26  H   UNK N   1      29.737  15.552   6.668  0.00  0.00     0.217 HD
ENDBRANCH  15  25
ENDBRANCH   1  12
BRANCH   2  27
HETATM   27  O   UNK N   1      26.107  20.509   3.535  0.00  0.00    -0.355 OA
HETATM   28  H   UNK N   1      26.496  20.700   2.705  0.00  0.00     0.218 HD
ENDBRANCH   2  27
BRANCH   6  29
HETATM   29  O   UNK N   1      21.168  21.476   2.473  0.00  0.00    -0.360 OA
HETATM   30  H   UNK N   1      20.391  21.966   2.660  0.00  0.00     0.217 HD
ENDBRANCH   6  29
BRANCH   8  31
HETATM   31  O   UNK N   1      19.116  17.360   3.593  0.00  0.00    -0.361 OA
HETATM   32  H   UNK N   1      19.143  16.451   3.368  0.00  0.00     0.217 HD
ENDBRANCH   8  31
TORSDOF 9
ENDMDL
MODEL 2
REMARK VINA RESULT:      -7.0      2.571      7.913
REMARK  9 active torsions:
REMARK  status: ('A' for Active; 'I' for Inactive)
REMARK    1  A    between atoms: C_3  and  O_26 
REMARK    2  A    between atoms: C_4  and  O_21 
REMARK    3  A    between atoms: C_6  and  C_7 
REMARK    4  A    between atoms: C_8  and  O_20 
REMARK    5  A    between atoms: C_12  and  O_19 
REMARK    6  A    between atoms: C_14  and  O_18 
REMARK    7  A    between atoms: O_21  and  P_22 
REMARK    8  A    between atoms: P_22  and  O_24 
REMARK    9  A    between atoms: P_22  and  O_25 
ROOT
HETATM    1  C   UNK N   1      27.663  18.462   5.021  0.00  0.00     0.123 A 
HETATM    2  C   UNK N   1      28.648  17.639   4.426  0.00  0.00     0.152 A 
HETATM    3  C   UNK N   1      29.692  17.143   5.223  0.00  0.00     0.223 A 
HETATM    4  O   UNK N   1      30.542  16.422   4.721  0.00  0.00    -0.284 OA
HETATM    5  C   UNK N   1      29.742  17.473   6.591  0.00  0.00     0.084 A 
HETATM    6  C   UNK N   1      30.752  17.005   7.471  0.00  0.00     0.085 A 
HETATM    7  C   UNK N   1      30.731  17.378   8.818  0.00  0.00     0.074 A 
HETATM    8  C   UNK N   1      29.723  18.209   9.309  0.00  0.00     0.071 A 
HETATM    9  C   UNK N   1      28.725  18.672   8.454  0.00  0.00     0.075 A 
HETATM   10  C   UNK N   1      28.726  18.312   7.105  0.00  0.00     0.096 A 
HETATM   11  O   UNK N   1      27.755  18.755   6.318  0.00  0.00    -0.306 OA
ENDROOT
BRANCH   1  12
HETATM   12  C   UNK N   1      26.479  18.993   4.287  0.00  0.00     0.004 A 
HETATM   13  C   UNK N   1      25.200  18.398   4.333  0.00  0.00     0.054 A 
HETATM   14  C   UNK N   1      24.106  19.014   3.689  0.00  0.00     0.115 A 
HETATM   15  C   UNK N   1      24.298  20.218   3.001  0.00  0.00     0.099 A 
HETATM   16  C   UNK N   1      25.564  20.792   2.929  0.00  0.00     0.040 A 
HETATM   17  C   UNK N   1      26.642  20.185   3.569  0.00  0.00     0.017 A 
BRANCH  14  18
HETATM   18  O   UNK N   1      22.860  18.483   3.725  0.00  0.00    -0.252 OA
BRANCH  18  19
HETATM   19  P   UNK N   1      22.008  18.138   5.177  0.00  0.00     0.396 P 
HETATM   20  O   UNK N   1      20.576  17.631   4.860  0.00  0.00    -0.631 OA
BRANCH  19  21
HETATM   21  O   UNK N   1      21.238  19.514   4.454  0.00  0.00    -0.307 OA
HETATM   22  H   UNK N   1      20.571  20.161   4.176  0.00  0.00     0.222 HD
ENDBRANCH  19  21
BRANCH  19  23
HETATM   23  O   UNK N   1      22.231  16.693   4.234  0.00  0.00    -0.307 OA
HETATM   24  H   UNK N   1      21.479  16.182   3.898  0.00  0.00     0.222 HD
ENDBRANCH  19  23
ENDBRANCH  18  19
ENDBRANCH  14  18
BRANCH  15  25
HETATM   25  O   UNK N   1      23.264  20.819   2.388  0.00  0.00    -0.358 OA
HETATM   26  H   UNK N   1      22.646  21.321   2.882  0.00  0.00     0.217 HD
ENDBRANCH  15  25
ENDBRANCH   1  12
BRANCH   2  27
HETATM   27  O   UNK N   1      28.591  17.312   3.123  0.00  0.00    -0.355 OA
HETATM   28  H   UNK N   1      28.418  16.427   2.868  0.00  0.00     0.218 HD
ENDBRANCH   2  27
BRANCH   6  29
HETATM   29  O   UNK N   1      31.736  16.199   7.036  0.00  0.00    -0.360 OA
HETATM   30  H   UNK N   1      31.656  15.269   7.130  0.00  0.00     0.217 HD
ENDBRANCH   6  29
BRANCH   8  31
HETATM   31  O   UNK N   1      29.712  18.561  10.605  0.00  0.00    -0.361 OA
HETATM   32  H   UNK N   1      29.181  19.278  10.891  0.00  0.00     0.217 HD
ENDBRANCH   8  31
TORSDOF 9
ENDMDL
MODEL 3
REMARK VINA RESULT:      -6.8      2.689      8.118
REMARK  9 active torsions:
REMARK  status: ('A' for Active; 'I' for Inactive)
REMARK    1  A    between atoms: C_3  and  O_26 
REMARK    2  A    between atoms: C_4  and  O_21 
REMARK    3  A    between atoms: C_6  and  C_7 
REMARK    4  A    between atoms: C_8  and  O_20 
REMARK    5  A    between atoms: C_12  and  O_19 
REMARK    6  A    between atoms: C_14  and  O_18 
REMARK    7  A    between atoms: O_21  and  P_22 
REMARK    8  A    between atoms: P_22  and  O_24 
REMARK    9  A    between atoms: P_22  and  O_25 
ROOT
HETATM    1  C   UNK N   1      27.818  18.433   5.756  0.00  0.00     0.123 A 
HETATM    2  C   UNK N   1      27.915  18.896   7.090  0.00  0.00     0.152 A 
HETATM    3  C   UNK N   1      28.916  18.370   7.921  0.00  0.00     0.223 A 
HETATM    4  O   UNK N   1      29.015  18.772   9.071  0.00  0.00    -0.284 OA
HETATM    5  C   UNK N   1      29.799  17.395   7.418  0.00  0.00     0.084 A 
HETATM    6  C   UNK N   1      30.847  16.822   8.184  0.00  0.00     0.085 A 
HETATM    7  C   UNK N   1      31.683  15.859   7.612  0.00  0.00     0.074 A 
HETATM    8  C   UNK N   1      31.498  15.454   6.288  0.00  0.00     0.071 A 
HETATM    9  C   UNK N   1      30.473  16.013   5.527  0.00  0.00     0.075 A 
HETATM   10  C   UNK N   1      29.627  16.977   6.078  0.00  0.00     0.096 A 
HETATM   11  O   UNK N   1      28.671  17.503   5.326  0.00  0.00    -0.306 OA
ENDROOT
BRANCH   1  12
HETATM   12  C   UNK N   1      26.836  18.963   4.768  0.00  0.00     0.004 A 
HETATM   13  C   UNK N   1      25.539  18.436   4.594  0.00  0.00     0.054 A 
HETATM   14  C   UNK N   1      24.633  19.054   3.706  0.00  0.00     0.115 A 
HETATM   15  C   UNK N   1      25.032  20.193   2.995  0.00  0.00     0.099 A 
HETATM   16  C   UNK N   1      26.320  20.698   3.142  0.00  0.00     0.040 A 
HETATM   17  C   UNK N   1      27.211  20.090   4.022  0.00  0.00     0.017 A 
BRANCH  14  18
HETATM   18  O   UNK N   1      23.374  18.587   3.524  0.00  0.00    -0.252 OA
BRANCH  18  19
HETATM   19  P   UNK N   1      22.220  18.433   4.788  0.00  0.00     0.396 P 
HETATM   20  O   UNK N   1      20.834  18.037   4.213  0.00  0.00    -0.631 OA
BRANCH  19  21
HETATM   21  O   UNK N   1      21.758  19.815   3.847  0.00  0.00    -0.307 OA
HETATM   22  H   UNK N   1      21.644  20.438   3.113  0.00  0.00     0.222 HD
ENDBRANCH  19  21
BRANCH  19  23
HETATM   23  O   UNK N   1      22.472  16.906   3.992  0.00  0.00    -0.307 OA
HETATM   24  H   UNK N   1      23.358  16.524   3.891  0.00  0.00     0.222 HD
ENDBRANCH  19  23
ENDBRANCH  18  19
ENDBRANCH  14  18
BRANCH  15  25
HETATM   25  O   UNK N   1      24.177  20.796   2.151  0.00  0.00    -0.358 OA
HETATM   26  H   UNK N   1      23.252  20.715   2.273  0.00  0.00     0.217 HD
ENDBRANCH  15  25
ENDBRANCH   1  12
BRANCH   2  27
HETATM   27  O   UNK N   1      27.080  19.838   7.563  0.00  0.00    -0.355 OA
HETATM   28  H   UNK N   1      27.127  20.714   7.235  0.00  0.00     0.218 HD
ENDBRANCH   2  27
BRANCH   6  29
HETATM   29  O   UNK N   1      31.060  17.189   9.460  0.00  0.00    -0.360 OA
HETATM   30  H   UNK N   1      31.308  16.548  10.097  0.00  0.00     0.217 HD
ENDBRANCH   6  29
BRANCH   8  31
HETATM   31  O   UNK N   1      32.307  14.529   5.748  0.00  0.00    -0.361 OA
HETATM   32  H   UNK N   1      32.529  14.575   4.839  0.00  0.00     0.217 HD
ENDBRANCH   8  31
TORSDOF 9
ENDMDL
MODEL 4
REMARK VINA RESULT:      -6.8      4.847      8.564
REMARK  9 active torsions:
REMARK  status: ('A' for Active; 'I' for Inactive)
REMARK    1  A    between atoms: C_3  and  O_26 
REMARK    2  A    between atoms: C_4  and  O_21 
REMARK    3  A    between atoms: C_6  and  C_7 
REMARK    4  A    between atoms: C_8  and  O_20 
REMARK    5  A    between atoms: C_12  and  O_19 
REMARK    6  A    between atoms: C_14  and  O_18 
REMARK    7  A    between atoms: O_21  and  P_22 
REMARK    8  A    between atoms: P_22  and  O_24 
REMARK    9  A    between atoms: P_22  and  O_25 
ROOT
HETATM    1  C   UNK N   1      20.720  15.561   5.138  0.00  0.00     0.123 A 
HETATM    2  C   UNK N   1      19.771  15.650   6.185  0.00  0.00     0.152 A 
HETATM    3  C   UNK N   1      20.114  15.167   7.457  0.00  0.00     0.223 A 
HETATM    4  O   UNK N   1      19.305  15.249   8.370  0.00  0.00    -0.284 OA
HETATM    5  C   UNK N   1      21.387  14.602   7.669  0.00  0.00     0.084 A 
HETATM    6  C   UNK N   1      21.820  14.103   8.924  0.00  0.00     0.085 A 
HETATM    7  C   UNK N   1      23.101  13.558   9.054  0.00  0.00     0.074 A 
HETATM    8  C   UNK N   1      23.962  13.499   7.956  0.00  0.00     0.071 A 
HETATM    9  C   UNK N   1      23.547  13.989   6.719  0.00  0.00     0.075 A 
HETATM   10  C   UNK N   1      22.272  14.539   6.568  0.00  0.00     0.096 A 
HETATM   11  O   UNK N   1      21.909  15.011   5.383  0.00  0.00    -0.306 OA
ENDROOT
BRANCH   1  12
HETATM   12  C   UNK N   1      20.488  16.096   3.767  0.00  0.00     0.004 A 
HETATM   13  C   UNK N   1      20.317  17.467   3.482  0.00  0.00     0.054 A 
HETATM   14  C   UNK N   1      20.199  17.907   2.146  0.00  0.00     0.115 A 
HETATM   15  C   UNK N   1      20.249  16.971   1.105  0.00  0.00     0.099 A 
HETATM   16  C   UNK N   1      20.388  15.616   1.384  0.00  0.00     0.040 A 
HETATM   17  C   UNK N   1      20.509  15.184   2.702  0.00  0.00     0.017 A 
BRANCH  14  18
HETATM   18  O   UNK N   1      20.050  19.216   1.831  0.00  0.00    -0.252 OA
BRANCH  18  19
HETATM   19  P   UNK N   1      21.359  20.320   1.688  0.00  0.00     0.396 P 
HETATM   20  O   UNK N   1      20.836  21.746   1.368  0.00  0.00    -0.631 OA
BRANCH  19  21
HETATM   21  O   UNK N   1      20.662  20.155   0.108  0.00  0.00    -0.307 OA
HETATM   22  H   UNK N   1      20.470  19.845  -0.791  0.00  0.00     0.222 HD
ENDBRANCH  19  21
BRANCH  19  23
HETATM   23  O   UNK N   1      20.337  20.745   3.030  0.00  0.00    -0.307 OA
HETATM   24  H   UNK N   1      20.129  20.112   3.734  0.00  0.00     0.222 HD
ENDBRANCH  19  23
ENDBRANCH  18  19
ENDBRANCH  14  18
BRANCH  15  25
HETATM   25  O   UNK N   1      20.144  17.377  -0.173  0.00  0.00    -0.358 OA
HETATM   26  H   UNK N   1      20.464  18.218  -0.432  0.00  0.00     0.217 HD
ENDBRANCH  15  25
ENDBRANCH   1  12
BRANCH   2  27
HETATM   27  O   UNK N   1      18.562  16.203   5.985  0.00  0.00    -0.355 OA
HETATM   28  H   UNK N   1      17.786  15.693   6.112  0.00  0.00     0.218 HD
ENDBRANCH   2  27
BRANCH   6  29
HETATM   29  O   UNK N   1      21.022  14.146  10.006  0.00  0.00    -0.360 OA
HETATM   30  H   UNK N   1      20.569  13.375  10.284  0.00  0.00     0.217 HD
ENDBRANCH   6  29
BRANCH   8  31
HETATM   31  O   UNK N   1      25.190  12.974   8.091  0.00  0.00    -0.361 OA
HETATM   32  H   UNK N   1      25.871  13.474   8.498  0.00  0.00     0.217 HD
ENDBRANCH   8  31
TORSDOF 9
ENDMDL
MODEL 5
REMARK VINA RESULT:      -6.6      8.655     12.412
REMARK  9 active torsions:
REMARK  status: ('A' for Active; 'I' for Inactive)
REMARK    1  A    between atoms: C_3  and  O_26 
REMARK    2  A    between atoms: C_4  and  O_21 
REMARK    3  A    between atoms: C_6  and  C_7 
REMARK    4  A    between atoms: C_8  and  O_20 
REMARK    5  A    between atoms: C_12  and  O_19 
REMARK    6  A    between atoms: C_14  and  O_18 
REMARK    7  A    between atoms: O_21  and  P_22 
REMARK    8  A    between atoms: P_22  and  O_24 
REMARK    9  A    between atoms: P_22  and  O_25 
ROOT
HETATM    1  C   UNK N   1      34.960  14.654  10.509  0.00  0.00     0.123 A 
HETATM    2  C   UNK N   1      35.632  15.900  10.534  0.00  0.00     0.152 A 
HETATM    3  C   UNK N   1      35.118  16.965   9.779  0.00  0.00     0.223 A 
HETATM    4  O   UNK N   1      35.685  18.048   9.802  0.00  0.00    -0.284 OA
HETATM    5  C   UNK N   1      33.951  16.778   9.012  0.00  0.00     0.084 A 
HETATM    6  C   UNK N   1      33.356  17.803   8.233  0.00  0.00     0.085 A 
HETATM    7  C   UNK N   1      32.196  17.537   7.499  0.00  0.00     0.074 A 
HETATM    8  C   UNK N   1      31.614  16.268   7.526  0.00  0.00     0.071 A 
HETATM    9  C   UNK N   1      32.189  15.256   8.291  0.00  0.00     0.075 A 
HETATM   10  C   UNK N   1      33.347  15.499   9.032  0.00  0.00     0.096 A 
HETATM   11  O   UNK N   1      33.864  14.521   9.763  0.00  0.00    -0.306 OA
ENDROOT
BRANCH   1  12
HETATM   12  C   UNK N   1      35.380  13.475  11.317  0.00  0.00     0.004 A 
HETATM   13  C   UNK N   1      35.098  13.329  12.692  0.00  0.00     0.054 A 
HETATM   14  C   UNK N   1      35.444  12.139  13.367  0.00  0.00     0.115 A 
HETATM   15  C   UNK N   1      36.072  11.104  12.663  0.00  0.00     0.099 A 
HETATM   16  C   UNK N   1      36.378  11.256  11.314  0.00  0.00     0.040 A 
HETATM   17  C   UNK N   1      36.032  12.429  10.649  0.00  0.00     0.017 A 
BRANCH  14  18
HETATM   18  O   UNK N   1      35.175  11.955  14.682  0.00  0.00    -0.252 OA
BRANCH  18  19
HETATM   19  P   UNK N   1      35.751  12.987  15.929  0.00  0.00     0.396 P 
HETATM   20  O   UNK N   1      35.313  12.457  17.320  0.00  0.00    -0.631 OA
BRANCH  19  21
HETATM   21  O   UNK N   1      34.024  13.144  15.900  0.00  0.00    -0.307 OA
HETATM   22  H   UNK N   1      33.078  12.983  16.040  0.00  0.00     0.222 HD
ENDBRANCH  19  21
BRANCH  19  23
HETATM   23  O   UNK N   1      36.461  11.404  16.061  0.00  0.00    -0.307 OA
HETATM   24  H   UNK N   1      36.091  10.727  16.648  0.00  0.00     0.222 HD
ENDBRANCH  19  23
ENDBRANCH  18  19
ENDBRANCH  14  18
BRANCH  15  25
HETATM   25  O   UNK N   1      36.401   9.962  13.292  0.00  0.00    -0.358 OA
HETATM   26  H   UNK N   1      35.737   9.417  13.665  0.00  0.00     0.217 HD
ENDBRANCH  15  25
ENDBRANCH   1  12
BRANCH   2  27
HETATM   27  O   UNK N   1      36.737  16.081  11.277  0.00  0.00    -0.355 OA
HETATM   28  H   UNK N   1      36.892  15.541  12.027  0.00  0.00     0.218 HD
ENDBRANCH   2  27
BRANCH   6  29
HETATM   29  O   UNK N   1      33.884  19.039   8.185  0.00  0.00    -0.360 OA
HETATM   30  H   UNK N   1      34.317  19.393   8.938  0.00  0.00     0.217 HD
ENDBRANCH   6  29
BRANCH   8  31
HETATM   31  O   UNK N   1      30.500  16.024   6.819  0.00  0.00    -0.361 OA
HETATM   32  H   UNK N   1      29.693  16.438   7.058  0.00  0.00     0.217 HD
ENDBRANCH   8  31
TORSDOF 9
ENDMDL
MODEL 6
REMARK VINA RESULT:      -6.6      6.599     11.351
REMARK  9 active torsions:
REMARK  status: ('A' for Active; 'I' for Inactive)
REMARK    1  A    between atoms: C_3  and  O_26 
REMARK    2  A    between atoms: C_4  and  O_21 
REMARK    3  A    between atoms: C_6  and  C_7 
REMARK    4  A    between atoms: C_8  and  O_20 
REMARK    5  A    between atoms: C_12  and  O_19 
REMARK    6  A    between atoms: C_14  and  O_18 
REMARK    7  A    between atoms: O_21  and  P_22 
REMARK    8  A    between atoms: P_22  and  O_24 
REMARK    9  A    between atoms: P_22  and  O_25 
ROOT
HETATM    1  C   UNK N   1      33.717  16.183   7.584  0.00  0.00     0.123 A 
HETATM    2  C   UNK N   1      34.384  17.171   8.347  0.00  0.00     0.152 A 
HETATM    3  C   UNK N   1      35.007  16.798   9.547  0.00  0.00     0.223 A 
HETATM    4  O   UNK N   1      35.595  17.642  10.207  0.00  0.00    -0.284 OA
HETATM    5  C   UNK N   1      34.957  15.456   9.972  0.00  0.00     0.084 A 
HETATM    6  C   UNK N   1      35.571  14.990  11.162  0.00  0.00     0.085 A 
HETATM    7  C   UNK N   1      35.477  13.640  11.515  0.00  0.00     0.074 A 
HETATM    8  C   UNK N   1      34.781  12.742  10.703  0.00  0.00     0.071 A 
HETATM    9  C   UNK N   1      34.177  13.189   9.529  0.00  0.00     0.075 A 
HETATM   10  C   UNK N   1      34.260  14.532   9.158  0.00  0.00     0.096 A 
HETATM   11  O   UNK N   1      33.688  14.927   8.029  0.00  0.00    -0.306 OA
ENDROOT
BRANCH   1  12
HETATM   12  C   UNK N   1      33.074  16.452   6.267  0.00  0.00     0.004 A 
HETATM   13  C   UNK N   1      31.791  17.022   6.124  0.00  0.00     0.054 A 
HETATM   14  C   UNK N   1      31.291  17.335   4.842  0.00  0.00     0.115 A 
HETATM   15  C   UNK N   1      32.075  17.074   3.712  0.00  0.00     0.099 A 
HETATM   16  C   UNK N   1      33.328  16.485   3.847  0.00  0.00     0.040 A 
HETATM   17  C   UNK N   1      33.823  16.180   5.113  0.00  0.00     0.017 A 
BRANCH  14  18
HETATM   18  O   UNK N   1      30.071  17.898   4.666  0.00  0.00    -0.252 OA
BRANCH  18  19
HETATM   19  P   UNK N   1      28.589  17.082   4.964  0.00  0.00     0.396 P 
HETATM   20  O   UNK N   1      27.385  17.973   4.556  0.00  0.00    -0.631 OA
BRANCH  19  21
HETATM   21  O   UNK N   1      28.668  18.409   6.078  0.00  0.00    -0.307 OA
HETATM   22  H   UNK N   1      28.478  19.239   6.543  0.00  0.00     0.222 HD
ENDBRANCH  19  21
BRANCH  19  23
HETATM   23  O   UNK N   1      28.796  17.383   3.263  0.00  0.00    -0.307 OA
HETATM   24  H   UNK N   1      28.168  17.924   2.760  0.00  0.00     0.222 HD
ENDBRANCH  19  23
ENDBRANCH  18  19
ENDBRANCH  14  18
BRANCH  15  25
HETATM   25  O   UNK N   1      31.613  17.373   2.486  0.00  0.00    -0.358 OA
HETATM   26  H   UNK N   1      32.028  17.022   1.723  0.00  0.00     0.217 HD
ENDBRANCH  15  25
ENDBRANCH   1  12
BRANCH   2  27
HETATM   27  O   UNK N   1      34.444  18.449   7.933  0.00  0.00    -0.355 OA
HETATM   28  H   UNK N   1      34.908  18.667   7.149  0.00  0.00     0.218 HD
ENDBRANCH   2  27
BRANCH   6  29
HETATM   29  O   UNK N   1      36.254  15.823  11.968  0.00  0.00    -0.360 OA
HETATM   30  H   UNK N   1      35.911  16.674  12.160  0.00  0.00     0.217 HD
ENDBRANCH   6  29
BRANCH   8  31
HETATM   31  O   UNK N   1      34.697  11.448  11.050  0.00  0.00    -0.361 OA
HETATM   32  H   UNK N   1      34.793  11.197  11.947  0.00  0.00     0.217 HD
ENDBRANCH   8  31
TORSDOF 9
ENDMDL
MODEL 7
REMARK VINA RESULT:      -6.6      5.256     10.758
REMARK  9 active torsions:
REMARK  status: ('A' for Active; 'I' for Inactive)
REMARK    1  A    between atoms: C_3  and  O_26 
REMARK    2  A    between atoms: C_4  and  O_21 
REMARK    3  A    between atoms: C_6  and  C_7 
REMARK    4  A    between atoms: C_8  and  O_20 
REMARK    5  A    between atoms: C_12  and  O_19 
REMARK    6  A    between atoms: C_14  and  O_18 
REMARK    7  A    between atoms: O_21  and  P_22 
REMARK    8  A    between atoms: P_22  and  O_24 
REMARK    9  A    between atoms: P_22  and  O_25 
ROOT
HETATM    1  C   UNK N   1      31.702  16.271   8.009  0.00  0.00     0.123 A 
HETATM    2  C   UNK N   1      31.750  15.032   7.326  0.00  0.00     0.152 A 
HETATM    3  C   UNK N   1      32.870  14.204   7.498  0.00  0.00     0.223 A 
HETATM    4  O   UNK N   1      32.916  13.127   6.921  0.00  0.00    -0.284 OA
HETATM    5  C   UNK N   1      33.921  14.618   8.340  0.00  0.00     0.084 A 
HETATM    6  C   UNK N   1      35.081  13.838   8.581  0.00  0.00     0.085 A 
HETATM    7  C   UNK N   1      36.081  14.319   9.432  0.00  0.00     0.074 A 
HETATM    8  C   UNK N   1      35.949  15.564  10.049  0.00  0.00     0.071 A 
HETATM    9  C   UNK N   1      34.812  16.337   9.821  0.00  0.00     0.075 A 
HETATM   10  C   UNK N   1      33.801  15.875   8.976  0.00  0.00     0.096 A 
HETATM   11  O   UNK N   1      32.723  16.625   8.789  0.00  0.00    -0.306 OA
ENDROOT
BRANCH   1  12
HETATM   12  C   UNK N   1      30.539  17.200   7.949  0.00  0.00     0.004 A 
HETATM   13  C   UNK N   1      29.840  17.504   6.761  0.00  0.00     0.054 A 
HETATM   14  C   UNK N   1      28.688  18.318   6.802  0.00  0.00     0.115 A 
HETATM   15  C   UNK N   1      28.245  18.827   8.030  0.00  0.00     0.099 A 
HETATM   16  C   UNK N   1      28.949  18.554   9.198  0.00  0.00     0.040 A 
HETATM   17  C   UNK N   1      30.082  17.746   9.157  0.00  0.00     0.017 A 
BRANCH  14  18
HETATM   18  O   UNK N   1      27.981  18.618   5.686  0.00  0.00    -0.252 OA
BRANCH  18  19
HETATM   19  P   UNK N   1      27.203  17.443   4.702  0.00  0.00     0.396 P 
HETATM   20  O   UNK N   1      26.349  18.132   3.605  0.00  0.00    -0.631 OA
BRANCH  19  21
HETATM   21  O   UNK N   1      25.960  18.253   5.601  0.00  0.00    -0.307 OA
HETATM   22  H   UNK N   1      25.426  18.941   6.029  0.00  0.00     0.222 HD
ENDBRANCH  19  21
BRANCH  19  23
HETATM   23  O   UNK N   1      28.329  18.384   3.767  0.00  0.00    -0.307 OA
HETATM   24  H   UNK N   1      28.278  19.351   3.730  0.00  0.00     0.222 HD
ENDBRANCH  19  23
ENDBRANCH  18  19
ENDBRANCH  14  18
BRANCH  15  25
HETATM   25  O   UNK N   1      27.145  19.598   8.084  0.00  0.00    -0.358 OA
HETATM   26  H   UNK N   1      26.792  19.977   7.303  0.00  0.00     0.217 HD
ENDBRANCH  15  25
ENDBRANCH   1  12
BRANCH   2  27
HETATM   27  O   UNK N   1      30.740  14.632   6.534  0.00  0.00    -0.355 OA
HETATM   28  H   UNK N   1      29.889  15.011   6.633  0.00  0.00     0.218 HD
ENDBRANCH   2  27
BRANCH   6  29
HETATM   29  O   UNK N   1      35.242  12.631   8.009  0.00  0.00    -0.360 OA
HETATM   30  H   UNK N   1      34.493  12.133   7.746  0.00  0.00     0.217 HD
ENDBRANCH   6  29
BRANCH   8  31
HETATM   31  O   UNK N   1      36.914  16.016  10.865  0.00  0.00    -0.361 OA
HETATM   32  H   UNK N   1      37.438  16.750  10.608  0.00  0.00     0.217 HD
ENDBRANCH   8  31
TORSDOF 9
ENDMDL
MODEL 8
REMARK VINA RESULT:      -6.5      7.180     10.202
REMARK  9 active torsions:
REMARK  status: ('A' for Active; 'I' for Inactive)
REMARK    1  A    between atoms: C_3  and  O_26 
REMARK    2  A    between atoms: C_4  and  O_21 
REMARK    3  A    between atoms: C_6  and  C_7 
REMARK    4  A    between atoms: C_8  and  O_20 
REMARK    5  A    between atoms: C_12  and  O_19 
REMARK    6  A    between atoms: C_14  and  O_18 
REMARK    7  A    between atoms: O_21  and  P_22 
REMARK    8  A    between atoms: P_22  and  O_24 
REMARK    9  A    between atoms: P_22  and  O_25 
ROOT
HETATM    1  C   UNK N   1      33.167  16.305   8.026  0.00  0.00     0.123 A 
HETATM    2  C   UNK N   1      31.885  16.903   8.074  0.00  0.00     0.152 A 
HETATM    3  C   UNK N   1      31.211  17.166   6.872  0.00  0.00     0.223 A 
HETATM    4  O   UNK N   1      30.099  17.672   6.903  0.00  0.00    -0.284 OA
HETATM    5  C   UNK N   1      31.819  16.834   5.645  0.00  0.00     0.084 A 
HETATM    6  C   UNK N   1      31.204  17.051   4.385  0.00  0.00     0.085 A 
HETATM    7  C   UNK N   1      31.874  16.693   3.211  0.00  0.00     0.074 A 
HETATM    8  C   UNK N   1      33.147  16.122   3.266  0.00  0.00     0.071 A 
HETATM    9  C   UNK N   1      33.758  15.902   4.498  0.00  0.00     0.075 A 
HETATM   10  C   UNK N   1      33.107  16.250   5.683  0.00  0.00     0.096 A 
HETATM   11  O   UNK N   1      33.706  16.015   6.842  0.00  0.00    -0.306 OA
ENDROOT
BRANCH   1  12
HETATM   12  C   UNK N   1      33.946  15.925   9.239  0.00  0.00     0.004 A 
HETATM   13  C   UNK N   1      33.933  14.631   9.802  0.00  0.00     0.054 A 
HETATM   14  C   UNK N   1      34.773  14.323  10.894  0.00  0.00     0.115 A 
HETATM   15  C   UNK N   1      35.616  15.311  11.417  0.00  0.00     0.099 A 
HETATM   16  C   UNK N   1      35.609  16.596  10.883  0.00  0.00     0.040 A 
HETATM   17  C   UNK N   1      34.783  16.897   9.803  0.00  0.00     0.017 A 
BRANCH  14  18
HETATM   18  O   UNK N   1      34.802  13.088  11.451  0.00  0.00    -0.252 OA
BRANCH  18  19
HETATM   19  P   UNK N   1      35.491  11.711  10.690  0.00  0.00     0.396 P 
HETATM   20  O   UNK N   1      35.431  10.480  11.633  0.00  0.00    -0.631 OA
BRANCH  19  21
HETATM   21  O   UNK N   1      36.545  12.146  11.997  0.00  0.00    -0.307 OA
HETATM   22  H   UNK N   1      37.338  12.317  12.529  0.00  0.00     0.222 HD
ENDBRANCH  19  21
BRANCH  19  23
HETATM   23  O   UNK N   1      33.800  11.458  11.006  0.00  0.00    -0.307 OA
HETATM   24  H   UNK N   1      33.415  11.617  11.882  0.00  0.00     0.222 HD
ENDBRANCH  19  23
ENDBRANCH  18  19
ENDBRANCH  14  18
BRANCH  15  25
HETATM   25  O   UNK N   1      36.425  15.029  12.453  0.00  0.00    -0.358 OA
HETATM   26  H   UNK N   1      37.352  15.140  12.375  0.00  0.00     0.217 HD
ENDBRANCH  15  25
ENDBRANCH   1  12
BRANCH   2  27
HETATM   27  O   UNK N   1      31.300  17.205   9.246  0.00  0.00    -0.355 OA
HETATM   28  H   UNK N   1      31.590  16.792  10.036  0.00  0.00     0.218 HD
ENDBRANCH   2  27
BRANCH   6  29
HETATM   29  O   UNK N   1      29.978  17.595   4.292  0.00  0.00    -0.360 OA
HETATM   30  H   UNK N   1      29.640  18.112   4.997  0.00  0.00     0.217 HD
ENDBRANCH   6  29
BRANCH   8  31
HETATM   31  O   UNK N   1      33.780  15.782   2.132  0.00  0.00    -0.361 OA
HETATM   32  H   UNK N   1      33.570  14.976   1.702  0.00  0.00     0.217 HD
ENDBRANCH   8  31
TORSDOF 9
ENDMDL
MODEL 9
REMARK VINA RESULT:      -6.4     13.655     17.046
REMARK  9 active torsions:
REMARK  status: ('A' for Active; 'I' for Inactive)
REMARK    1  A    between atoms: C_3  and  O_26 
REMARK    2  A    between atoms: C_4  and  O_21 
REMARK    3  A    between atoms: C_6  and  C_7 
REMARK    4  A    between atoms: C_8  and  O_20 
REMARK    5  A    between atoms: C_12  and  O_19 
REMARK    6  A    between atoms: C_14  and  O_18 
REMARK    7  A    between atoms: O_21  and  P_22 
REMARK    8  A    between atoms: P_22  and  O_24 
REMARK    9  A    between atoms: P_22  and  O_25 
ROOT
HETATM    1  C   UNK N   1      35.981  12.568  15.502  0.00  0.00     0.123 A 
HETATM    2  C   UNK N   1      36.047  13.717  16.325  0.00  0.00     0.152 A 
HETATM    3  C   UNK N   1      35.734  13.597  17.688  0.00  0.00     0.223 A 
HETATM    4  O   UNK N   1      35.799  14.582  18.409  0.00  0.00    -0.284 OA
HETATM    5  C   UNK N   1      35.360  12.343  18.210  0.00  0.00     0.084 A 
HETATM    6  C   UNK N   1      35.042  12.130  19.575  0.00  0.00     0.085 A 
HETATM    7  C   UNK N   1      34.680  10.853  20.016  0.00  0.00     0.074 A 
HETATM    8  C   UNK N   1      34.628   9.782  19.122  0.00  0.00     0.071 A 
HETATM    9  C   UNK N   1      34.941   9.981  17.779  0.00  0.00     0.075 A 
HETATM   10  C   UNK N   1      35.307  11.247  17.318  0.00  0.00     0.096 A 
HETATM   11  O   UNK N   1      35.614  11.404  16.038  0.00  0.00    -0.306 OA
ENDROOT
BRANCH   1  12
HETATM   12  C   UNK N   1      36.350  12.565  14.058  0.00  0.00     0.004 A 
HETATM   13  C   UNK N   1      35.853  13.497  13.123  0.00  0.00     0.054 A 
HETATM   14  C   UNK N   1      36.324  13.489  11.792  0.00  0.00     0.115 A 
HETATM   15  C   UNK N   1      37.286  12.548  11.406  0.00  0.00     0.099 A 
HETATM   16  C   UNK N   1      37.756  11.608  12.318  0.00  0.00     0.040 A 
HETATM   17  C   UNK N   1      37.294  11.620  13.632  0.00  0.00     0.017 A 
BRANCH  14  18
HETATM   18  O   UNK N   1      35.884  14.378  10.869  0.00  0.00    -0.252 OA
BRANCH  18  19
HETATM   19  P   UNK N   1      35.454  16.002  11.234  0.00  0.00     0.396 P 
HETATM   20  O   UNK N   1      35.534  16.885   9.961  0.00  0.00    -0.631 OA
BRANCH  19  21
HETATM   21  O   UNK N   1      37.144  16.002  10.843  0.00  0.00    -0.307 OA
HETATM   22  H   UNK N   1      38.111  15.988  10.919  0.00  0.00     0.222 HD
ENDBRANCH  19  21
BRANCH  19  23
HETATM   23  O   UNK N   1      34.321  15.300  10.116  0.00  0.00    -0.307 OA
HETATM   24  H   UNK N   1      34.343  14.357   9.892  0.00  0.00     0.222 HD
ENDBRANCH  19  23
ENDBRANCH  18  19
ENDBRANCH  14  18
BRANCH  15  25
HETATM   25  O   UNK N   1      37.748  12.533  10.143  0.00  0.00    -0.358 OA
HETATM   26  H   UNK N   1      38.534  12.991   9.920  0.00  0.00     0.217 HD
ENDBRANCH  15  25
ENDBRANCH   1  12
BRANCH   2  27
HETATM   27  O   UNK N   1      36.419  14.910  15.829  0.00  0.00    -0.355 OA
HETATM   28  H   UNK N   1      37.164  14.971  15.264  0.00  0.00     0.218 HD
ENDBRANCH   2  27
BRANCH   6  29
HETATM   29  O   UNK N   1      35.085  13.135  20.468  0.00  0.00    -0.360 OA
HETATM   30  H   UNK N   1      34.721  13.971  20.249  0.00  0.00     0.217 HD
ENDBRANCH   6  29
BRANCH   8  31
HETATM   31  O   UNK N   1      34.279   8.560  19.556  0.00  0.00    -0.361 OA
HETATM   32  H   UNK N   1      33.377   8.354  19.700  0.00  0.00     0.217 HD
ENDBRANCH   8  31
TORSDOF 9
ENDMDL
