REMARK  6 active torsions:
REMARK  status: ('A' for Active; 'I' for Inactive)
REMARK    1  A    between atoms: C_2  and  O_3 
REMARK    2  A    between atoms: C_4  and  O_3 
REMARK    3  A    between atoms: C_8  and  C_39 
REMARK    4  A    between atoms: C_12  and  N_13 
REMARK    5  A    between atoms: N_16  and  C_20 
REMARK       I    between atoms: N_23  and  C_26 
REMARK    6  A    between atoms: C_26  and  C_28 
ROOT
HETATM    1  N   UNK N   1       0.828  -1.344  -0.930  0.00  0.00     0.107 N 
HETATM    2  C   UNK N   1       1.799  -2.219  -1.620  0.00  0.00     0.304 C 
HETATM    3  C   UNK N   1       2.027  -3.556  -0.886  0.00  0.00     0.303 C 
HETATM    4  N   UNK N   1       0.954  -3.861   0.077  0.00  0.00     0.101 N 
HETATM    5  C   UNK N   1      -0.321  -3.541  -0.561  0.00  0.00     0.308 C 
HETATM    6  C   UNK N   1      -0.463  -2.028  -0.745  0.00  0.00     0.248 C 
HETATM    7  C   UNK N   1      -1.378  -1.753  -1.922  0.00  0.00     0.045 C 
ENDROOT
BRANCH   4   8
HETATM    8  C   UNK N   1       1.000  -5.279   0.514  0.00  0.00     0.159 C 
HETATM    9  C   UNK N   1       0.772  -6.242  -0.680  0.00  0.00     0.061 C 
HETATM   10  C   UNK N   1      -0.315  -7.276  -0.406  0.00  0.00     0.128 C 
HETATM   11  N   UNK N   1      -1.529  -6.610   0.035  0.00  0.00    -0.348 N 
HETATM   12  C   UNK N   1      -1.450  -5.714   1.179  0.00  0.00     0.128 C 
HETATM   13  C   UNK N   1      -2.725  -6.933  -0.560  0.00  0.00     0.257 C 
HETATM   14  C   UNK N   1      -0.005  -5.529   1.663  0.00  0.00     0.061 C 
HETATM   15  O   UNK N   1      -2.728  -7.807  -1.420  0.00  0.00    -0.267 OA
HETATM   16  C   UNK N   1       2.367  -5.587   1.112  0.00  0.00     0.049 C 
BRANCH  13  17
HETATM   17  C   UNK N   1      -4.061  -6.332  -0.172  0.00  0.00     0.076 A 
HETATM   18  C   UNK N   1      -5.208  -7.166  -0.107  0.00  0.00     0.024 A 
HETATM   19  N   UNK N   1      -6.415  -6.646   0.229  0.00  0.00    -0.355 N 
HETATM   20  C   UNK N   1      -5.130  -8.636  -0.362  0.00  0.00     0.069 C 
HETATM   21  C   UNK N   1      -6.568  -5.328   0.492  0.00  0.00     0.180 A 
ATOM     22  HN  UNK N   1      -7.226  -7.263   0.284  1.00  0.00     0.166 HD
HETATM   23  N   UNK N   1      -5.507  -4.495   0.409  0.00  0.00    -0.355 N 
HETATM   24  C   UNK N   1      -4.269  -4.948   0.089  0.00  0.00     0.024 A 
ATOM     25  HN  UNK N   1      -5.641  -3.500   0.591  1.00  0.00     0.166 HD
HETATM   26  C   UNK N   1      -3.207  -3.929  -0.079  0.00  0.00     0.069 C 
ENDBRANCH  13  17
ENDBRANCH   4   8
BRANCH   1  27
HETATM   27  C   UNK N   1       1.301  -0.823   0.372  0.00  0.00     0.286 C 
HETATM   28  C   UNK N   1       2.690  -0.291   0.261  0.00  0.00    -0.016 A 
HETATM   29  C   UNK N   1       3.860  -1.053   0.274  0.00  0.00     0.011 A 
HETATM   30  C   UNK N   1       2.735   1.073   0.100  0.00  0.00    -0.046 A 
HETATM   31  C   UNK N   1       5.089  -0.406   0.109  0.00  0.00     0.017 A 
HETATM   32  C   UNK N   1       5.139   0.989  -0.092  0.00  0.00     0.048 A 
HETATM   33  C   UNK N   1       3.946   1.735  -0.095  0.00  0.00     0.023 A 
HETATM   34  C   UNK N   1       1.400   1.704   0.158  0.00  0.00     0.073 C 
HETATM   35  C   UNK N   1       0.593   0.508   0.709  0.00  0.00     0.163 C 
BRANCH  32  36
HETATM   36  C   UNK N   1       6.451   1.680  -0.307  0.00  0.00     0.417 C 
HETATM   37  F   UNK N   1       6.471   2.240  -1.572  0.00  0.00    -0.166 F 
HETATM   38  F   UNK N   1       7.506   0.791  -0.197  0.00  0.00    -0.166 F 
HETATM   39  F   UNK N   1       6.609   2.679   0.635  0.00  0.00    -0.166 F 
ENDBRANCH  32  36
BRANCH  35  40
HETATM   40  O   UNK N   1      -0.821   0.533   0.735  0.00  0.00    -0.383 OA
BRANCH  40  41
HETATM   41  C   UNK N   1      -1.305   1.216  -0.388  0.00  0.00     0.163 C 
HETATM   42  C   UNK N   1      -1.903   2.540   0.051  0.00  0.00     0.033 C 
ENDBRANCH  40  41
ENDBRANCH  35  40
ENDBRANCH   1  27
TORSDOF 6
