MODEL 1
REMARK VINA RESULT:      -9.6      0.000      0.000
REMARK  14 active torsions:
REMARK  status: ('A' for Active; 'I' for Inactive)
REMARK    1  A    between atoms: C_3  and  C_8 
REMARK    2  A    between atoms: C_15  and  N_10 
REMARK    3  A    between atoms: C_16  and  O_48 
REMARK    4  A    between atoms: C_17  and  C_46 
REMARK    5  A    between atoms: C_19  and  S_22 
REMARK    6  A    between atoms: C_20  and  O_21 
REMARK    7  A    between atoms: C_23  and  S_22 
REMARK    8  A    between atoms: C_24  and  O_45 
REMARK    9  A    between atoms: C_25  and  N_32 
REMARK   10  A    between atoms: C_26  and  O_31 
REMARK   11  A    between atoms: C_27  and  C_29 
REMARK   12  A    between atoms: C_29  and  O_30 
REMARK   13  A    between atoms: C_34  and  C_38 
REMARK   14  A    between atoms: C_46  and  O_47 
ROOT
HETATM    1  C   UNK N   1      21.223  16.259   5.333  0.00  0.00     0.172 C 
HETATM    2  C   UNK N   1      20.200  16.092   4.198  0.00  0.00     0.176 C 
HETATM    3  C   UNK N   1      20.521  17.130   3.087  0.00  0.00     0.177 C 
HETATM    4  O   UNK N   1      21.913  17.328   2.857  0.00  0.00    -0.363 OA
HETATM    5  C   UNK N   1      22.664  17.629   4.040  0.00  0.00     0.216 C 
HETATM    6  C   UNK N   1      21.787  17.664   5.313  0.00  0.00     0.184 C 
ENDROOT
BRANCH   5   7
HETATM    7  S   UNK N   1      23.972  16.318   4.115  0.00  0.00    -0.100 SA
BRANCH   7   8
HETATM    8  C   UNK N   1      25.453  17.289   3.683  0.00  0.00     0.216 C 
HETATM    9  C   UNK N   1      26.534  16.878   4.654  0.00  0.00     0.184 C 
HETATM   10  C   UNK N   1      27.764  17.810   4.683  0.00  0.00     0.169 C 
HETATM   11  C   UNK N   1      27.353  19.282   4.525  0.00  0.00     0.176 C 
HETATM   12  C   UNK N   1      26.316  19.349   3.389  0.00  0.00     0.177 C 
HETATM   13  O   UNK N   1      25.165  18.659   3.808  0.00  0.00    -0.363 OA
BRANCH   9  14
HETATM   14  O   UNK N   1      26.938  15.566   4.397  0.00  0.00    -0.390 OA
HETATM   15  H   UNK N   1      27.424  15.030   3.749  0.00  0.00     0.210 HD
ENDBRANCH   9  14
BRANCH  10  16
HETATM   16  N   UNK N   1      28.492  17.557   5.934  0.00  0.00    -0.275 N 
HETATM   17  C   UNK N   1      29.803  17.283   5.998  0.00  0.00     0.140 A 
HETATM   18  C   UNK N   1      30.123  17.207   7.316  0.00  0.00     0.073 A 
HETATM   19  N   UNK N   1      29.003  17.425   8.041  0.00  0.00    -0.282 N 
HETATM   20  N   UNK N   1      28.020  17.639   7.170  0.00  0.00    -0.020 NA
ATOM     21  HN  UNK N   1      28.926  17.426   9.058  1.00  0.00     0.184 HD
BRANCH  18  22
HETATM   22  C   UNK N   1      31.498  17.019   7.800  0.00  0.00    -0.004 A 
HETATM   23  C   UNK N   1      31.919  15.721   8.140  0.00  0.00     0.014 A 
HETATM   24  C   UNK N   1      33.228  15.480   8.551  0.00  0.00     0.004 A 
HETATM   25  C   UNK N   1      34.133  16.537   8.624  0.00  0.00     0.042 A 
HETATM   26  C   UNK N   1      33.726  17.833   8.289  0.00  0.00     0.117 A 
HETATM   27  C   UNK N   1      32.410  18.077   7.874  0.00  0.00     0.056 A 
HETATM   28  F   UNK N   1      34.615  18.851   8.359  0.00  0.00    -0.206 F 
ENDBRANCH  18  22
ENDBRANCH  10  16
BRANCH  11  29
HETATM   29  O   UNK N   1      28.483  20.040   4.210  0.00  0.00    -0.391 OA
HETATM   30  H   UNK N   1      29.229  19.735   3.670  0.00  0.00     0.210 HD
ENDBRANCH  11  29
BRANCH  12  31
HETATM   31  C   UNK N   1      25.939  20.769   2.993  0.00  0.00     0.198 C 
BRANCH  31  32
HETATM   32  O   UNK N   1      24.922  20.742   2.037  0.00  0.00    -0.398 OA
HETATM   33  H   UNK N   1      24.825  20.304   1.177  0.00  0.00     0.209 HD
ENDBRANCH  31  32
ENDBRANCH  12  31
ENDBRANCH   7   8
ENDBRANCH   5   7
BRANCH   6  34
HETATM   34  O   UNK N   1      22.496  18.027   6.459  0.00  0.00    -0.390 OA
HETATM   35  H   UNK N   1      23.391  17.743   6.703  0.00  0.00     0.210 HD
ENDBRANCH   6  34
BRANCH   3  36
HETATM   36  C   UNK N   1      19.806  16.793   1.790  0.00  0.00     0.198 C 
BRANCH  36  37
HETATM   37  O   UNK N   1      18.880  17.792   1.488  0.00  0.00    -0.398 OA
HETATM   38  H   UNK N   1      17.916  17.691   1.538  0.00  0.00     0.209 HD
ENDBRANCH  36  37
ENDBRANCH   3  36
BRANCH   1  39
HETATM   39  N   UNK N   1      20.962  15.687   6.650  0.00  0.00    -0.277 N 
HETATM   40  C   UNK N   1      21.615  14.701   7.292  0.00  0.00     0.144 A 
HETATM   41  C   UNK N   1      21.003  14.602   8.531  0.00  0.00     0.076 A 
HETATM   42  N   UNK N   1      20.025  15.522   8.600  0.00  0.00    -0.284 N 
HETATM   43  N   UNK N   1      20.025  16.169   7.450  0.00  0.00    -0.240 N 
ATOM     44  HN  UNK N   1      19.401  15.688   9.389  1.00  0.00     0.188 HD
ATOM     45  HN  UNK N   1      19.392  16.932   7.211  1.00  0.00     0.208 HD
BRANCH  41  46
HETATM   46  C   UNK N   1      21.325  13.681   9.622  0.00  0.00    -0.004 A 
HETATM   47  C   UNK N   1      22.654  13.333   9.898  0.00  0.00     0.014 A 
HETATM   48  C   UNK N   1      22.941  12.447  10.942  0.00  0.00     0.004 A 
HETATM   49  C   UNK N   1      21.904  11.908  11.710  0.00  0.00     0.042 A 
HETATM   50  C   UNK N   1      20.578  12.254  11.435  0.00  0.00     0.117 A 
HETATM   51  C   UNK N   1      20.291  13.138  10.395  0.00  0.00     0.056 A 
HETATM   52  F   UNK N   1      19.571  11.733  12.177  0.00  0.00    -0.206 F 
ENDBRANCH  41  46
ENDBRANCH   1  39
BRANCH   2  53
HETATM   53  O   UNK N   1      18.903  16.335   4.656  0.00  0.00    -0.391 OA
HETATM   54  H   UNK N   1      18.072  15.960   4.328  0.00  0.00     0.210 HD
ENDBRANCH   2  53
TORSDOF 14
ENDMDL
MODEL 2
REMARK VINA RESULT:      -9.5      2.508      3.485
REMARK  14 active torsions:
REMARK  status: ('A' for Active; 'I' for Inactive)
REMARK    1  A    between atoms: C_3  and  C_8 
REMARK    2  A    between atoms: C_15  and  N_10 
REMARK    3  A    between atoms: C_16  and  O_48 
REMARK    4  A    between atoms: C_17  and  C_46 
REMARK    5  A    between atoms: C_19  and  S_22 
REMARK    6  A    between atoms: C_20  and  O_21 
REMARK    7  A    between atoms: C_23  and  S_22 
REMARK    8  A    between atoms: C_24  and  O_45 
REMARK    9  A    between atoms: C_25  and  N_32 
REMARK   10  A    between atoms: C_26  and  O_31 
REMARK   11  A    between atoms: C_27  and  C_29 
REMARK   12  A    between atoms: C_29  and  O_30 
REMARK   13  A    between atoms: C_34  and  C_38 
REMARK   14  A    between atoms: C_46  and  O_47 
ROOT
HETATM    1  C   UNK N   1      20.975  14.761   5.213  0.00  0.00     0.172 C 
HETATM    2  C   UNK N   1      21.300  14.446   3.744  0.00  0.00     0.176 C 
HETATM    3  C   UNK N   1      20.397  15.329   2.838  0.00  0.00     0.177 C 
HETATM    4  O   UNK N   1      20.199  16.654   3.324  0.00  0.00    -0.363 OA
HETATM    5  C   UNK N   1      19.742  16.717   4.681  0.00  0.00     0.216 C 
HETATM    6  C   UNK N   1      19.571  15.319   5.320  0.00  0.00     0.184 C 
ENDROOT
BRANCH   5   7
HETATM    7  S   UNK N   1      21.007  17.749   5.559  0.00  0.00    -0.100 SA
BRANCH   7   8
HETATM    8  C   UNK N   1      21.991  18.354   4.147  0.00  0.00     0.216 C 
HETATM    9  C   UNK N   1      23.426  18.406   4.616  0.00  0.00     0.184 C 
HETATM   10  C   UNK N   1      24.376  19.200   3.696  0.00  0.00     0.169 C 
HETATM   11  C   UNK N   1      23.683  20.441   3.114  0.00  0.00     0.176 C 
HETATM   12  C   UNK N   1      22.282  20.007   2.646  0.00  0.00     0.177 C 
HETATM   13  O   UNK N   1      21.540  19.633   3.779  0.00  0.00    -0.363 OA
BRANCH   9  14
HETATM   14  O   UNK N   1      23.917  17.112   4.806  0.00  0.00    -0.390 OA
HETATM   15  H   UNK N   1      23.710  16.276   5.252  0.00  0.00     0.210 HD
ENDBRANCH   9  14
BRANCH  10  16
HETATM   16  N   UNK N   1      25.579  19.535   4.472  0.00  0.00    -0.275 N 
HETATM   17  C   UNK N   1      26.164  18.704   5.346  0.00  0.00     0.140 A 
HETATM   18  C   UNK N   1      27.290  19.326   5.785  0.00  0.00     0.073 A 
HETATM   19  N   UNK N   1      27.373  20.533   5.182  0.00  0.00    -0.282 N 
HETATM   20  N   UNK N   1      26.314  20.634   4.381  0.00  0.00    -0.020 NA
ATOM     21  HN  UNK N   1      28.105  21.231   5.313  1.00  0.00     0.184 HD
BRANCH  18  22
HETATM   22  C   UNK N   1      28.261  18.690   6.685  0.00  0.00    -0.004 A 
HETATM   23  C   UNK N   1      29.132  17.720   6.157  0.00  0.00     0.014 A 
HETATM   24  C   UNK N   1      30.108  17.127   6.954  0.00  0.00     0.004 A 
HETATM   25  C   UNK N   1      30.226  17.500   8.291  0.00  0.00     0.042 A 
HETATM   26  C   UNK N   1      29.366  18.464   8.829  0.00  0.00     0.117 A 
HETATM   27  C   UNK N   1      28.384  19.062   8.028  0.00  0.00     0.056 A 
HETATM   28  F   UNK N   1      29.493  18.822  10.127  0.00  0.00    -0.206 F 
ENDBRANCH  18  22
ENDBRANCH  10  16
BRANCH  11  29
HETATM   29  O   UNK N   1      24.437  20.925   2.042  0.00  0.00    -0.391 OA
HETATM   30  H   UNK N   1      24.761  21.835   1.951  0.00  0.00     0.210 HD
ENDBRANCH  11  29
BRANCH  12  31
HETATM   31  C   UNK N   1      21.533  21.090   1.884  0.00  0.00     0.198 C 
BRANCH  31  32
HETATM   32  O   UNK N   1      21.606  20.844   0.512  0.00  0.00    -0.398 OA
HETATM   33  H   UNK N   1      22.025  21.310  -0.228  0.00  0.00     0.209 HD
ENDBRANCH  31  32
ENDBRANCH  12  31
ENDBRANCH   7   8
ENDBRANCH   5   7
BRANCH   6  34
HETATM   34  O   UNK N   1      19.058  15.367   6.617  0.00  0.00    -0.390 OA
HETATM   35  H   UNK N   1      19.509  15.092   7.431  0.00  0.00     0.210 HD
ENDBRANCH   6  34
BRANCH   3  36
HETATM   36  C   UNK N   1      20.903  15.355   1.406  0.00  0.00     0.198 C 
BRANCH  36  37
HETATM   37  O   UNK N   1      22.177  14.789   1.346  0.00  0.00    -0.398 OA
HETATM   38  H   UNK N   1      22.364  13.854   1.161  0.00  0.00     0.209 HD
ENDBRANCH  36  37
ENDBRANCH   3  36
BRANCH   1  39
HETATM   39  N   UNK N   1      21.390  13.847   6.271  0.00  0.00    -0.277 N 
HETATM   40  C   UNK N   1      22.191  14.077   7.328  0.00  0.00     0.144 A 
HETATM   41  C   UNK N   1      22.193  12.895   8.050  0.00  0.00     0.076 A 
HETATM   42  N   UNK N   1      21.401  12.009   7.424  0.00  0.00    -0.284 N 
HETATM   43  N   UNK N   1      20.922  12.612   6.353  0.00  0.00    -0.240 N 
ATOM     44  HN  UNK N   1      21.207  11.052   7.719  1.00  0.00     0.188 HD
ATOM     45  HN  UNK N   1      20.283  12.187   5.682  1.00  0.00     0.208 HD
BRANCH  41  46
HETATM   46  C   UNK N   1      22.910  12.603   9.294  0.00  0.00    -0.004 A 
HETATM   47  C   UNK N   1      24.310  12.613   9.333  0.00  0.00     0.014 A 
HETATM   48  C   UNK N   1      24.976  12.327  10.529  0.00  0.00     0.004 A 
HETATM   49  C   UNK N   1      24.247  12.030  11.685  0.00  0.00     0.042 A 
HETATM   50  C   UNK N   1      22.850  12.019  11.646  0.00  0.00     0.117 A 
HETATM   51  C   UNK N   1      22.184  12.306  10.454  0.00  0.00     0.056 A 
HETATM   52  F   UNK N   1      22.140  11.732  12.764  0.00  0.00    -0.206 F 
ENDBRANCH  41  46
ENDBRANCH   1  39
BRANCH   2  53
HETATM   53  O   UNK N   1      21.031  13.108   3.450  0.00  0.00    -0.391 OA
HETATM   54  H   UNK N   1      20.315  12.552   3.793  0.00  0.00     0.210 HD
ENDBRANCH   2  53
TORSDOF 14
ENDMDL
MODEL 3
REMARK VINA RESULT:      -9.5     10.982     13.435
REMARK  14 active torsions:
REMARK  status: ('A' for Active; 'I' for Inactive)
REMARK    1  A    between atoms: C_3  and  C_8 
REMARK    2  A    between atoms: C_15  and  N_10 
REMARK    3  A    between atoms: C_16  and  O_48 
REMARK    4  A    between atoms: C_17  and  C_46 
REMARK    5  A    between atoms: C_19  and  S_22 
REMARK    6  A    between atoms: C_20  and  O_21 
REMARK    7  A    between atoms: C_23  and  S_22 
REMARK    8  A    between atoms: C_24  and  O_45 
REMARK    9  A    between atoms: C_25  and  N_32 
REMARK   10  A    between atoms: C_26  and  O_31 
REMARK   11  A    between atoms: C_27  and  C_29 
REMARK   12  A    between atoms: C_29  and  O_30 
REMARK   13  A    between atoms: C_34  and  C_38 
REMARK   14  A    between atoms: C_46  and  O_47 
ROOT
HETATM    1  C   UNK N   1      34.976  15.249  10.156  0.00  0.00     0.172 C 
HETATM    2  C   UNK N   1      34.738  16.737   9.857  0.00  0.00     0.176 C 
HETATM    3  C   UNK N   1      34.729  16.936   8.315  0.00  0.00     0.177 C 
HETATM    4  O   UNK N   1      34.090  15.886   7.594  0.00  0.00    -0.363 OA
HETATM    5  C   UNK N   1      34.575  14.576   7.917  0.00  0.00     0.216 C 
HETATM    6  C   UNK N   1      35.689  14.597   8.990  0.00  0.00     0.184 C 
ENDROOT
BRANCH   5   7
HETATM    7  S   UNK N   1      33.074  13.639   8.471  0.00  0.00    -0.100 SA
BRANCH   7   8
HETATM    8  C   UNK N   1      33.442  11.982   7.805  0.00  0.00     0.216 C 
HETATM    9  C   UNK N   1      33.476  11.043   8.987  0.00  0.00     0.184 C 
HETATM   10  C   UNK N   1      34.095   9.660   8.694  0.00  0.00     0.169 C 
HETATM   11  C   UNK N   1      35.288   9.774   7.734  0.00  0.00     0.176 C 
HETATM   12  C   UNK N   1      34.875  10.730   6.600  0.00  0.00     0.177 C 
HETATM   13  O   UNK N   1      34.687  12.008   7.153  0.00  0.00    -0.363 OA
BRANCH   9  14
HETATM   14  O   UNK N   1      32.191  10.887   9.514  0.00  0.00    -0.390 OA
HETATM   15  H   UNK N   1      31.677  10.324  10.114  0.00  0.00     0.210 HD
ENDBRANCH   9  14
BRANCH  10  16
HETATM   16  N   UNK N   1      34.460   9.049   9.980  0.00  0.00    -0.275 N 
HETATM   17  C   UNK N   1      35.387   9.544  10.812  0.00  0.00     0.140 A 
HETATM   18  C   UNK N   1      35.372   8.766  11.925  0.00  0.00     0.073 A 
HETATM   19  N   UNK N   1      34.443   7.798  11.756  0.00  0.00    -0.282 N 
HETATM   20  N   UNK N   1      33.899   7.996  10.558  0.00  0.00    -0.020 NA
ATOM     21  HN  UNK N   1      34.206   7.059  12.418  1.00  0.00     0.184 HD
BRANCH  18  22
HETATM   22  C   UNK N   1      36.183   9.050  13.117  0.00  0.00    -0.004 A 
HETATM   23  C   UNK N   1      36.063   8.199  14.230  0.00  0.00     0.014 A 
HETATM   24  C   UNK N   1      36.849   8.391  15.363  0.00  0.00     0.004 A 
HETATM   25  C   UNK N   1      37.768   9.437  15.395  0.00  0.00     0.042 A 
HETATM   26  C   UNK N   1      37.897  10.292  14.294  0.00  0.00     0.117 A 
HETATM   27  C   UNK N   1      37.107  10.099  13.152  0.00  0.00     0.056 A 
HETATM   28  F   UNK N   1      38.796  11.302  14.334  0.00  0.00    -0.206 F 
ENDBRANCH  18  22
ENDBRANCH  10  16
BRANCH  11  29
HETATM   29  O   UNK N   1      35.592   8.507   7.229  0.00  0.00    -0.391 OA
HETATM   30  H   UNK N   1      36.118   7.834   7.689  0.00  0.00     0.210 HD
ENDBRANCH  11  29
BRANCH  12  31
HETATM   31  C   UNK N   1      35.892  10.810   5.471  0.00  0.00     0.198 C 
BRANCH  31  32
HETATM   32  O   UNK N   1      36.733  11.906   5.666  0.00  0.00    -0.398 OA
HETATM   33  H   UNK N   1      37.035  12.385   6.454  0.00  0.00     0.209 HD
ENDBRANCH  31  32
ENDBRANCH  12  31
ENDBRANCH   7   8
ENDBRANCH   5   7
BRANCH   6  34
HETATM   34  O   UNK N   1      36.217  13.334   9.258  0.00  0.00    -0.390 OA
HETATM   35  H   UNK N   1      36.456  12.977  10.128  0.00  0.00     0.210 HD
ENDBRANCH   6  34
BRANCH   3  36
HETATM   36  C   UNK N   1      34.141  18.282   7.932  0.00  0.00     0.198 C 
BRANCH  36  37
HETATM   37  O   UNK N   1      34.996  19.305   8.343  0.00  0.00    -0.398 OA
HETATM   38  H   UNK N   1      35.752  19.637   7.833  0.00  0.00     0.209 HD
ENDBRANCH  36  37
ENDBRANCH   3  36
BRANCH   1  39
HETATM   39  N   UNK N   1      35.393  14.823  11.488  0.00  0.00    -0.277 N 
HETATM   40  C   UNK N   1      34.798  13.958  12.329  0.00  0.00     0.144 A 
HETATM   41  C   UNK N   1      35.647  13.864  13.420  0.00  0.00     0.076 A 
HETATM   42  N   UNK N   1      36.713  14.653  13.202  0.00  0.00    -0.284 N 
HETATM   43  N   UNK N   1      36.537  15.218  12.022  0.00  0.00    -0.240 N 
ATOM     44  HN  UNK N   1      37.506  14.790  13.828  1.00  0.00     0.188 HD
ATOM     45  HN  UNK N   1      37.191  15.867  11.585  1.00  0.00     0.208 HD
BRANCH  41  46
HETATM   46  C   UNK N   1      35.472  13.056  14.629  0.00  0.00    -0.004 A 
HETATM   47  C   UNK N   1      36.156  13.374  15.809  0.00  0.00     0.014 A 
HETATM   48  C   UNK N   1      35.979  12.587  16.952  0.00  0.00     0.004 A 
HETATM   49  C   UNK N   1      35.120  11.484  16.917  0.00  0.00     0.042 A 
HETATM   50  C   UNK N   1      34.437  11.166  15.740  0.00  0.00     0.117 A 
HETATM   51  C   UNK N   1      34.612  11.951  14.600  0.00  0.00     0.056 A 
HETATM   52  F   UNK N   1      33.604  10.098  15.704  0.00  0.00    -0.206 F 
ENDBRANCH  41  46
ENDBRANCH   1  39
BRANCH   2  53
HETATM   53  O   UNK N   1      35.764  17.522  10.388  0.00  0.00    -0.391 OA
HETATM   54  H   UNK N   1      36.469  17.255  10.997  0.00  0.00     0.210 HD
ENDBRANCH   2  53
TORSDOF 14
ENDMDL
MODEL 4
REMARK VINA RESULT:      -9.2      1.611      1.836
REMARK  14 active torsions:
REMARK  status: ('A' for Active; 'I' for Inactive)
REMARK    1  A    between atoms: C_3  and  C_8 
REMARK    2  A    between atoms: C_15  and  N_10 
REMARK    3  A    between atoms: C_16  and  O_48 
REMARK    4  A    between atoms: C_17  and  C_46 
REMARK    5  A    between atoms: C_19  and  S_22 
REMARK    6  A    between atoms: C_20  and  O_21 
REMARK    7  A    between atoms: C_23  and  S_22 
REMARK    8  A    between atoms: C_24  and  O_45 
REMARK    9  A    between atoms: C_25  and  N_32 
REMARK   10  A    between atoms: C_26  and  O_31 
REMARK   11  A    between atoms: C_27  and  C_29 
REMARK   12  A    between atoms: C_29  and  O_30 
REMARK   13  A    between atoms: C_34  and  C_38 
REMARK   14  A    between atoms: C_46  and  O_47 
ROOT
HETATM    1  C   UNK N   1      21.391  14.939   5.014  0.00  0.00     0.172 C 
HETATM    2  C   UNK N   1      20.481  14.250   3.984  0.00  0.00     0.176 C 
HETATM    3  C   UNK N   1      20.542  15.054   2.655  0.00  0.00     0.177 C 
HETATM    4  O   UNK N   1      21.836  15.558   2.336  0.00  0.00    -0.363 OA
HETATM    5  C   UNK N   1      22.448  16.310   3.392  0.00  0.00     0.216 C 
HETATM    6  C   UNK N   1      21.559  16.400   4.655  0.00  0.00     0.184 C 
ENDROOT
BRANCH   5   7
HETATM    7  S   UNK N   1      24.056  15.448   3.716  0.00  0.00    -0.100 SA
BRANCH   7   8
HETATM    8  C   UNK N   1      25.240  16.778   3.325  0.00  0.00     0.216 C 
HETATM    9  C   UNK N   1      26.485  16.495   4.132  0.00  0.00     0.184 C 
HETATM   10  C   UNK N   1      27.485  17.667   4.208  0.00  0.00     0.169 C 
HETATM   11  C   UNK N   1      26.757  19.015   4.316  0.00  0.00     0.176 C 
HETATM   12  C   UNK N   1      25.608  19.000   3.292  0.00  0.00     0.177 C 
HETATM   13  O   UNK N   1      24.684  18.018   3.687  0.00  0.00    -0.363 OA
BRANCH   9  14
HETATM   14  O   UNK N   1      27.126  15.354   3.640  0.00  0.00    -0.390 OA
HETATM   15  H   UNK N   1      27.508  14.510   3.929  0.00  0.00     0.210 HD
ENDBRANCH   9  14
BRANCH  10  16
HETATM   16  N   UNK N   1      28.385  17.418   5.343  0.00  0.00    -0.275 N 
HETATM   17  C   UNK N   1      29.720  17.337   5.239  0.00  0.00     0.140 A 
HETATM   18  C   UNK N   1      30.203  17.196   6.501  0.00  0.00     0.073 A 
HETATM   19  N   UNK N   1      29.159  17.182   7.359  0.00  0.00    -0.282 N 
HETATM   20  N   UNK N   1      28.058  17.322   6.624  0.00  0.00    -0.020 NA
ATOM     21  HN  UNK N   1      29.205  17.084   8.373  1.00  0.00     0.184 HD
BRANCH  18  22
HETATM   22  C   UNK N   1      31.639  17.174   6.815  0.00  0.00    -0.004 A 
HETATM   23  C   UNK N   1      32.056  17.614   8.084  0.00  0.00     0.014 A 
HETATM   24  C   UNK N   1      33.399  17.561   8.451  0.00  0.00     0.004 A 
HETATM   25  C   UNK N   1      34.340  17.064   7.553  0.00  0.00     0.042 A 
HETATM   26  C   UNK N   1      33.938  16.624   6.287  0.00  0.00     0.117 A 
HETATM   27  C   UNK N   1      32.587  16.675   5.916  0.00  0.00     0.056 A 
HETATM   28  F   UNK N   1      34.860  16.139   5.424  0.00  0.00    -0.206 F 
ENDBRANCH  18  22
ENDBRANCH  10  16
BRANCH  11  29
HETATM   29  O   UNK N   1      27.658  20.045   4.036  0.00  0.00    -0.391 OA
HETATM   30  H   UNK N   1      27.463  20.827   3.496  0.00  0.00     0.210 HD
ENDBRANCH  11  29
BRANCH  12  31
HETATM   31  C   UNK N   1      24.897  20.338   3.154  0.00  0.00     0.198 C 
BRANCH  31  32
HETATM   32  O   UNK N   1      25.393  21.029   2.047  0.00  0.00    -0.398 OA
HETATM   33  H   UNK N   1      25.923  20.766   1.278  0.00  0.00     0.209 HD
ENDBRANCH  31  32
ENDBRANCH  12  31
ENDBRANCH   7   8
ENDBRANCH   5   7
BRANCH   6  34
HETATM   34  O   UNK N   1      22.114  17.191   5.662  0.00  0.00    -0.390 OA
HETATM   35  H   UNK N   1      22.842  17.825   5.568  0.00  0.00     0.210 HD
ENDBRANCH   6  34
BRANCH   3  36
HETATM   36  C   UNK N   1      19.979  14.252   1.496  0.00  0.00     0.198 C 
BRANCH  36  37
HETATM   37  O   UNK N   1      18.586  14.228   1.570  0.00  0.00    -0.398 OA
HETATM   38  H   UNK N   1      18.012  15.010   1.537  0.00  0.00     0.209 HD
ENDBRANCH  36  37
ENDBRANCH   3  36
BRANCH   1  39
HETATM   39  N   UNK N   1      21.258  14.634   6.435  0.00  0.00    -0.277 N 
HETATM   40  C   UNK N   1      21.942  13.749   7.182  0.00  0.00     0.144 A 
HETATM   41  C   UNK N   1      21.469  13.915   8.473  0.00  0.00     0.076 A 
HETATM   42  N   UNK N   1      20.538  14.884   8.466  0.00  0.00    -0.284 N 
HETATM   43  N   UNK N   1      20.434  15.307   7.221  0.00  0.00    -0.240 N 
ATOM     44  HN  UNK N   1      20.012  15.228   9.270  1.00  0.00     0.188 HD
ATOM     45  HN  UNK N   1      19.806  16.048   6.908  1.00  0.00     0.208 HD
BRANCH  41  46
HETATM   46  C   UNK N   1      21.877  13.193   9.680  0.00  0.00    -0.004 A 
HETATM   47  C   UNK N   1      20.928  12.771  10.620  0.00  0.00     0.014 A 
HETATM   48  C   UNK N   1      21.339  12.087  11.768  0.00  0.00     0.004 A 
HETATM   49  C   UNK N   1      22.696  11.825  11.981  0.00  0.00     0.042 A 
HETATM   50  C   UNK N   1      23.644  12.246  11.044  0.00  0.00     0.117 A 
HETATM   51  C   UNK N   1      23.235  12.927   9.897  0.00  0.00     0.056 A 
HETATM   52  F   UNK N   1      24.959  11.994  11.247  0.00  0.00    -0.206 F 
ENDBRANCH  41  46
ENDBRANCH   1  39
BRANCH   2  53
HETATM   53  O   UNK N   1      19.155  14.237   4.422  0.00  0.00    -0.391 OA
HETATM   54  H   UNK N   1      18.549  13.482   4.475  0.00  0.00     0.210 HD
ENDBRANCH   2  53
TORSDOF 14
ENDMDL
MODEL 5
REMARK VINA RESULT:      -9.1      7.049     11.981
REMARK  14 active torsions:
REMARK  status: ('A' for Active; 'I' for Inactive)
REMARK    1  A    between atoms: C_3  and  C_8 
REMARK    2  A    between atoms: C_15  and  N_10 
REMARK    3  A    between atoms: C_16  and  O_48 
REMARK    4  A    between atoms: C_17  and  C_46 
REMARK    5  A    between atoms: C_19  and  S_22 
REMARK    6  A    between atoms: C_20  and  O_21 
REMARK    7  A    between atoms: C_23  and  S_22 
REMARK    8  A    between atoms: C_24  and  O_45 
REMARK    9  A    between atoms: C_25  and  N_32 
REMARK   10  A    between atoms: C_26  and  O_31 
REMARK   11  A    between atoms: C_27  and  C_29 
REMARK   12  A    between atoms: C_29  and  O_30 
REMARK   13  A    between atoms: C_34  and  C_38 
REMARK   14  A    between atoms: C_46  and  O_47 
ROOT
HETATM    1  C   UNK N   1      35.140  15.082   9.942  0.00  0.00     0.172 C 
HETATM    2  C   UNK N   1      34.936  16.603   9.858  0.00  0.00     0.176 C 
HETATM    3  C   UNK N   1      35.006  17.030   8.366  0.00  0.00     0.177 C 
HETATM    4  O   UNK N   1      34.392  16.113   7.466  0.00  0.00    -0.363 OA
HETATM    5  C   UNK N   1      34.844  14.760   7.610  0.00  0.00     0.216 C 
HETATM    6  C   UNK N   1      35.902  14.599   8.726  0.00  0.00     0.184 C 
ENDROOT
BRANCH   5   7
HETATM    7  S   UNK N   1      33.306  13.781   7.944  0.00  0.00    -0.100 SA
BRANCH   7   8
HETATM    8  C   UNK N   1      32.646  13.596   6.254  0.00  0.00     0.216 C 
HETATM    9  C   UNK N   1      31.565  14.640   6.100  0.00  0.00     0.184 C 
HETATM   10  C   UNK N   1      30.652  14.445   4.872  0.00  0.00     0.169 C 
HETATM   11  C   UNK N   1      30.364  12.958   4.620  0.00  0.00     0.176 C 
HETATM   12  C   UNK N   1      31.697  12.201   4.762  0.00  0.00     0.177 C 
HETATM   13  O   UNK N   1      32.116  12.303   6.100  0.00  0.00    -0.363 OA
BRANCH   9  14
HETATM   14  O   UNK N   1      32.131  15.917   6.074  0.00  0.00    -0.390 OA
HETATM   15  H   UNK N   1      32.736  16.493   6.569  0.00  0.00     0.210 HD
ENDBRANCH   9  14
BRANCH  10  16
HETATM   16  N   UNK N   1      29.428  15.230   5.091  0.00  0.00    -0.275 N 
HETATM   17  C   UNK N   1      29.388  16.570   5.111  0.00  0.00     0.140 A 
HETATM   18  C   UNK N   1      28.082  16.921   5.242  0.00  0.00     0.073 A 
HETATM   19  N   UNK N   1      27.342  15.792   5.312  0.00  0.00    -0.282 N 
HETATM   20  N   UNK N   1      28.191  14.772   5.214  0.00  0.00    -0.020 NA
ATOM     21  HN  UNK N   1      26.329  15.734   5.417  1.00  0.00     0.184 HD
BRANCH  18  22
HETATM   22  C   UNK N   1      27.617  18.314   5.203  0.00  0.00    -0.004 A 
HETATM   23  C   UNK N   1      27.711  19.087   6.375  0.00  0.00     0.014 A 
HETATM   24  C   UNK N   1      27.335  20.428   6.377  0.00  0.00     0.004 A 
HETATM   25  C   UNK N   1      26.863  21.013   5.204  0.00  0.00     0.042 A 
HETATM   26  C   UNK N   1      26.764  20.255   4.032  0.00  0.00     0.117 A 
HETATM   27  C   UNK N   1      27.142  18.906   4.028  0.00  0.00     0.056 A 
HETATM   28  F   UNK N   1      26.308  20.835   2.898  0.00  0.00    -0.206 F 
ENDBRANCH  18  22
ENDBRANCH  10  16
BRANCH  11  29
HETATM   29  O   UNK N   1      29.841  12.805   3.333  0.00  0.00    -0.391 OA
HETATM   30  H   UNK N   1      30.126  12.137   2.690  0.00  0.00     0.210 HD
ENDBRANCH  11  29
BRANCH  12  31
HETATM   31  C   UNK N   1      31.609  10.734   4.368  0.00  0.00     0.198 C 
BRANCH  31  32
HETATM   32  O   UNK N   1      30.381  10.207   4.769  0.00  0.00    -0.398 OA
HETATM   33  H   UNK N   1      29.736  10.458   5.449  0.00  0.00     0.209 HD
ENDBRANCH  31  32
ENDBRANCH  12  31
ENDBRANCH   7   8
ENDBRANCH   5   7
BRANCH   6  34
HETATM   34  O   UNK N   1      36.401  13.300   8.826  0.00  0.00    -0.390 OA
HETATM   35  H   UNK N   1      35.932  12.478   8.610  0.00  0.00     0.210 HD
ENDBRANCH   6  34
BRANCH   3  36
HETATM   36  C   UNK N   1      34.455  18.430   8.162  0.00  0.00     0.198 C 
BRANCH  36  37
HETATM   37  O   UNK N   1      35.393  19.373   8.583  0.00  0.00    -0.398 OA
HETATM   38  H   UNK N   1      35.192  20.163   9.110  0.00  0.00     0.209 HD
ENDBRANCH  36  37
ENDBRANCH   3  36
BRANCH   1  39
HETATM   39  N   UNK N   1      35.485  14.453  11.212  0.00  0.00    -0.277 N 
HETATM   40  C   UNK N   1      34.738  13.655  11.996  0.00  0.00     0.144 A 
HETATM   41  C   UNK N   1      35.569  13.282  13.039  0.00  0.00     0.076 A 
HETATM   42  N   UNK N   1      36.773  13.850  12.851  0.00  0.00    -0.284 N 
HETATM   43  N   UNK N   1      36.697  14.549  11.734  0.00  0.00    -0.240 N 
ATOM     44  HN  UNK N   1      37.590  13.758  13.455  1.00  0.00     0.188 HD
ATOM     45  HN  UNK N   1      37.463  15.087  11.331  1.00  0.00     0.208 HD
BRANCH  41  46
HETATM   46  C   UNK N   1      35.252  12.417  14.177  0.00  0.00    -0.004 A 
HETATM   47  C   UNK N   1      34.687  11.150  13.980  0.00  0.00     0.014 A 
HETATM   48  C   UNK N   1      34.387  10.341  15.079  0.00  0.00     0.004 A 
HETATM   49  C   UNK N   1      34.648  10.794  16.377  0.00  0.00     0.042 A 
HETATM   50  C   UNK N   1      35.211  12.058  16.575  0.00  0.00     0.117 A 
HETATM   51  C   UNK N   1      35.512  12.866  15.478  0.00  0.00     0.056 A 
HETATM   52  F   UNK N   1      35.465  12.500  17.830  0.00  0.00    -0.206 F 
ENDBRANCH  41  46
ENDBRANCH   1  39
BRANCH   2  53
HETATM   53  O   UNK N   1      35.943  17.279  10.551  0.00  0.00    -0.391 OA
HETATM   54  H   UNK N   1      35.860  17.825  11.347  0.00  0.00     0.210 HD
ENDBRANCH   2  53
TORSDOF 14
ENDMDL
MODEL 6
REMARK VINA RESULT:      -8.9      6.427      9.661
REMARK  14 active torsions:
REMARK  status: ('A' for Active; 'I' for Inactive)
REMARK    1  A    between atoms: C_3  and  C_8 
REMARK    2  A    between atoms: C_15  and  N_10 
REMARK    3  A    between atoms: C_16  and  O_48 
REMARK    4  A    between atoms: C_17  and  C_46 
REMARK    5  A    between atoms: C_19  and  S_22 
REMARK    6  A    between atoms: C_20  and  O_21 
REMARK    7  A    between atoms: C_23  and  S_22 
REMARK    8  A    between atoms: C_24  and  O_45 
REMARK    9  A    between atoms: C_25  and  N_32 
REMARK   10  A    between atoms: C_26  and  O_31 
REMARK   11  A    between atoms: C_27  and  C_29 
REMARK   12  A    between atoms: C_29  and  O_30 
REMARK   13  A    between atoms: C_34  and  C_38 
REMARK   14  A    between atoms: C_46  and  O_47 
ROOT
HETATM    1  C   UNK N   1      20.655  17.040   2.293  0.00  0.00     0.172 C 
HETATM    2  C   UNK N   1      20.714  18.226   1.317  0.00  0.00     0.176 C 
HETATM    3  C   UNK N   1      20.426  19.532   2.108  0.00  0.00     0.177 C 
HETATM    4  O   UNK N   1      21.005  19.566   3.410  0.00  0.00    -0.363 OA
HETATM    5  C   UNK N   1      20.694  18.424   4.219  0.00  0.00     0.216 C 
HETATM    6  C   UNK N   1      19.797  17.399   3.487  0.00  0.00     0.184 C 
ENDROOT
BRANCH   5   7
HETATM    7  S   UNK N   1      22.341  17.717   4.691  0.00  0.00    -0.100 SA
BRANCH   7   8
HETATM    8  C   UNK N   1      21.953  17.015   6.329  0.00  0.00     0.216 C 
HETATM    9  C   UNK N   1      22.040  15.514   6.184  0.00  0.00     0.184 C 
HETATM   10  C   UNK N   1      21.428  14.718   7.355  0.00  0.00     0.169 C 
HETATM   11  C   UNK N   1      20.156  15.394   7.886  0.00  0.00     0.176 C 
HETATM   12  C   UNK N   1      20.450  16.900   8.003  0.00  0.00     0.177 C 
HETATM   13  O   UNK N   1      20.657  17.406   6.707  0.00  0.00    -0.363 OA
BRANCH   9  14
HETATM   14  O   UNK N   1      23.368  15.127   5.986  0.00  0.00    -0.390 OA
HETATM   15  H   UNK N   1      24.011  14.448   6.248  0.00  0.00     0.210 HD
ENDBRANCH   9  14
BRANCH  10  16
HETATM   16  N   UNK N   1      21.187  13.345   6.888  0.00  0.00    -0.275 N 
HETATM   17  C   UNK N   1      20.271  13.014   5.966  0.00  0.00     0.140 A 
HETATM   18  C   UNK N   1      20.412  11.683   5.732  0.00  0.00     0.073 A 
HETATM   19  N   UNK N   1      21.405  11.215   6.522  0.00  0.00    -0.282 N 
HETATM   20  N   UNK N   1      21.863  12.253   7.217  0.00  0.00    -0.020 NA
ATOM     21  HN  UNK N   1      21.738  10.252   6.574  1.00  0.00     0.184 HD
BRANCH  18  22
HETATM   22  C   UNK N   1      19.650  10.962   4.704  0.00  0.00    -0.004 A 
HETATM   23  C   UNK N   1      19.880   9.584   4.540  0.00  0.00     0.014 A 
HETATM   24  C   UNK N   1      19.145   8.842   3.619  0.00  0.00     0.004 A 
HETATM   25  C   UNK N   1      18.167   9.471   2.852  0.00  0.00     0.042 A 
HETATM   26  C   UNK N   1      17.928  10.842   3.005  0.00  0.00     0.117 A 
HETATM   27  C   UNK N   1      18.666  11.589   3.933  0.00  0.00     0.056 A 
HETATM   28  F   UNK N   1      16.973  11.441   2.258  0.00  0.00    -0.206 F 
ENDBRANCH  18  22
ENDBRANCH  10  16
BRANCH  11  29
HETATM   29  O   UNK N   1      19.838  14.852   9.134  0.00  0.00    -0.391 OA
HETATM   30  H   UNK N   1      19.847  13.907   9.353  0.00  0.00     0.210 HD
ENDBRANCH  11  29
BRANCH  12  31
HETATM   31  C   UNK N   1      19.340  17.687   8.683  0.00  0.00     0.198 C 
BRANCH  31  32
HETATM   32  O   UNK N   1      19.849  18.880   9.196  0.00  0.00    -0.398 OA
HETATM   33  H   UNK N   1      20.134  19.714   8.791  0.00  0.00     0.209 HD
ENDBRANCH  31  32
ENDBRANCH  12  31
ENDBRANCH   7   8
ENDBRANCH   5   7
BRANCH   6  34
HETATM   34  O   UNK N   1      19.429  16.319   4.290  0.00  0.00    -0.390 OA
HETATM   35  H   UNK N   1      19.301  15.400   4.005  0.00  0.00     0.210 HD
ENDBRANCH   6  34
BRANCH   3  36
HETATM   36  C   UNK N   1      20.824  20.762   1.313  0.00  0.00     0.198 C 
BRANCH  36  37
HETATM   37  O   UNK N   1      20.673  20.512  -0.051  0.00  0.00    -0.398 OA
HETATM   38  H   UNK N   1      20.024  20.944  -0.629  0.00  0.00     0.209 HD
ENDBRANCH  36  37
ENDBRANCH   3  36
BRANCH   1  39
HETATM   39  N   UNK N   1      20.524  15.677   1.789  0.00  0.00    -0.277 N 
HETATM   40  C   UNK N   1      21.481  14.761   1.554  0.00  0.00     0.144 A 
HETATM   41  C   UNK N   1      20.806  13.619   1.154  0.00  0.00     0.076 A 
HETATM   42  N   UNK N   1      19.487  13.875   1.168  0.00  0.00    -0.284 N 
HETATM   43  N   UNK N   1      19.342  15.126   1.562  0.00  0.00    -0.240 N 
ATOM     44  HN  UNK N   1      18.739  13.226   0.922  1.00  0.00     0.188 HD
ATOM     45  HN  UNK N   1      18.447  15.601   1.675  1.00  0.00     0.208 HD
BRANCH  41  46
HETATM   46  C   UNK N   1      21.376  12.325   0.774  0.00  0.00    -0.004 A 
HETATM   47  C   UNK N   1      20.571  11.181   0.699  0.00  0.00     0.014 A 
HETATM   48  C   UNK N   1      21.134   9.953   0.339  0.00  0.00     0.004 A 
HETATM   49  C   UNK N   1      22.501   9.865   0.055  0.00  0.00     0.042 A 
HETATM   50  C   UNK N   1      23.305  11.006   0.130  0.00  0.00     0.117 A 
HETATM   51  C   UNK N   1      22.744  12.231   0.488  0.00  0.00     0.056 A 
HETATM   52  F   UNK N   1      24.629  10.924  -0.145  0.00  0.00    -0.206 F 
ENDBRANCH  41  46
ENDBRANCH   1  39
BRANCH   2  53
HETATM   53  O   UNK N   1      19.743  18.100   0.321  0.00  0.00    -0.391 OA
HETATM   54  H   UNK N   1      19.874  18.004  -0.634  0.00  0.00     0.210 HD
ENDBRANCH   2  53
TORSDOF 14
ENDMDL
MODEL 7
REMARK VINA RESULT:      -8.7      5.824     12.068
REMARK  14 active torsions:
REMARK  status: ('A' for Active; 'I' for Inactive)
REMARK    1  A    between atoms: C_3  and  C_8 
REMARK    2  A    between atoms: C_15  and  N_10 
REMARK    3  A    between atoms: C_16  and  O_48 
REMARK    4  A    between atoms: C_17  and  C_46 
REMARK    5  A    between atoms: C_19  and  S_22 
REMARK    6  A    between atoms: C_20  and  O_21 
REMARK    7  A    between atoms: C_23  and  S_22 
REMARK    8  A    between atoms: C_24  and  O_45 
REMARK    9  A    between atoms: C_25  and  N_32 
REMARK   10  A    between atoms: C_26  and  O_31 
REMARK   11  A    between atoms: C_27  and  C_29 
REMARK   12  A    between atoms: C_29  and  O_30 
REMARK   13  A    between atoms: C_34  and  C_38 
REMARK   14  A    between atoms: C_46  and  O_47 
ROOT
HETATM    1  C   UNK N   1      35.057  15.156   9.825  0.00  0.00     0.172 C 
HETATM    2  C   UNK N   1      34.892  16.684   9.780  0.00  0.00     0.176 C 
HETATM    3  C   UNK N   1      34.941  17.143   8.296  0.00  0.00     0.177 C 
HETATM    4  O   UNK N   1      34.283  16.262   7.390  0.00  0.00    -0.363 OA
HETATM    5  C   UNK N   1      34.701  14.895   7.494  0.00  0.00     0.216 C 
HETATM    6  C   UNK N   1      35.780  14.681   8.582  0.00  0.00     0.184 C 
ENDROOT
BRANCH   5   7
HETATM    7  S   UNK N   1      33.145  13.949   7.841  0.00  0.00    -0.100 SA
BRANCH   7   8
HETATM    8  C   UNK N   1      32.308  14.066   6.225  0.00  0.00     0.216 C 
HETATM    9  C   UNK N   1      31.116  14.972   6.425  0.00  0.00     0.184 C 
HETATM   10  C   UNK N   1      30.086  14.943   5.277  0.00  0.00     0.169 C 
HETATM   11  C   UNK N   1      29.922  13.526   4.709  0.00  0.00     0.176 C 
HETATM   12  C   UNK N   1      31.333  12.933   4.541  0.00  0.00     0.177 C 
HETATM   13  O   UNK N   1      31.899  12.785   5.819  0.00  0.00    -0.363 OA
BRANCH   9  14
HETATM   14  O   UNK N   1      31.541  16.284   6.650  0.00  0.00    -0.390 OA
HETATM   15  H   UNK N   1      31.298  17.206   6.470  0.00  0.00     0.210 HD
ENDBRANCH   9  14
BRANCH  10  16
HETATM   16  N   UNK N   1      28.824  15.496   5.790  0.00  0.00    -0.275 N 
HETATM   17  C   UNK N   1      27.653  14.845   5.764  0.00  0.00     0.140 A 
HETATM   18  C   UNK N   1      26.752  15.632   6.408  0.00  0.00     0.073 A 
HETATM   19  N   UNK N   1      27.381  16.759   6.810  0.00  0.00    -0.282 N 
HETATM   20  N   UNK N   1      28.649  16.649   6.421  0.00  0.00    -0.020 NA
ATOM     21  HN  UNK N   1      26.965  17.542   7.314  1.00  0.00     0.184 HD
BRANCH  18  22
HETATM   22  C   UNK N   1      25.368  15.218   6.676  0.00  0.00    -0.004 A 
HETATM   23  C   UNK N   1      24.325  15.888   6.012  0.00  0.00     0.014 A 
HETATM   24  C   UNK N   1      23.000  15.498   6.188  0.00  0.00     0.004 A 
HETATM   25  C   UNK N   1      22.702  14.429   7.030  0.00  0.00     0.042 A 
HETATM   26  C   UNK N   1      23.730  13.754   7.697  0.00  0.00     0.117 A 
HETATM   27  C   UNK N   1      25.065  14.144   7.520  0.00  0.00     0.056 A 
HETATM   28  F   UNK N   1      23.430  12.714   8.509  0.00  0.00    -0.206 F 
ENDBRANCH  18  22
ENDBRANCH  10  16
BRANCH  11  29
HETATM   29  O   UNK N   1      29.266  13.600   3.477  0.00  0.00    -0.391 OA
HETATM   30  H   UNK N   1      29.604  14.056   2.690  0.00  0.00     0.210 HD
ENDBRANCH  11  29
BRANCH  12  31
HETATM   31  C   UNK N   1      31.349  11.593   3.821  0.00  0.00     0.198 C 
BRANCH  31  32
HETATM   32  O   UNK N   1      31.294  11.793   2.442  0.00  0.00    -0.398 OA
HETATM   33  H   UNK N   1      30.642  12.200   1.851  0.00  0.00     0.209 HD
ENDBRANCH  31  32
ENDBRANCH  12  31
ENDBRANCH   7   8
ENDBRANCH   5   7
BRANCH   6  34
HETATM   34  O   UNK N   1      36.246  13.367   8.642  0.00  0.00    -0.390 OA
HETATM   35  H   UNK N   1      36.908  12.959   8.063  0.00  0.00     0.210 HD
ENDBRANCH   6  34
BRANCH   3  36
HETATM   36  C   UNK N   1      34.423  18.561   8.136  0.00  0.00     0.198 C 
BRANCH  36  37
HETATM   37  O   UNK N   1      35.368  19.466   8.620  0.00  0.00    -0.398 OA
HETATM   38  H   UNK N   1      36.089  19.246   9.231  0.00  0.00     0.209 HD
ENDBRANCH  36  37
ENDBRANCH   3  36
BRANCH   1  39
HETATM   39  N   UNK N   1      35.413  14.490  11.073  0.00  0.00    -0.277 N 
HETATM   40  C   UNK N   1      34.662  13.696  11.857  0.00  0.00     0.144 A 
HETATM   41  C   UNK N   1      35.506  13.277  12.873  0.00  0.00     0.076 A 
HETATM   42  N   UNK N   1      36.721  13.814  12.668  0.00  0.00    -0.284 N 
HETATM   43  N   UNK N   1      36.639  14.540  11.569  0.00  0.00    -0.240 N 
ATOM     44  HN  UNK N   1      37.548  13.686  13.250  1.00  0.00     0.188 HD
ATOM     45  HN  UNK N   1      37.412  15.065  11.159  1.00  0.00     0.208 HD
BRANCH  41  46
HETATM   46  C   UNK N   1      35.190  12.396  13.999  0.00  0.00    -0.004 A 
HETATM   47  C   UNK N   1      34.474  11.208  13.801  0.00  0.00     0.014 A 
HETATM   48  C   UNK N   1      34.178  10.383  14.890  0.00  0.00     0.004 A 
HETATM   49  C   UNK N   1      34.595  10.741  16.176  0.00  0.00     0.042 A 
HETATM   50  C   UNK N   1      35.310  11.926  16.374  0.00  0.00     0.117 A 
HETATM   51  C   UNK N   1      35.606  12.750  15.288  0.00  0.00     0.056 A 
HETATM   52  F   UNK N   1      35.715  12.276  17.619  0.00  0.00    -0.206 F 
ENDBRANCH  41  46
ENDBRANCH   1  39
BRANCH   2  53
HETATM   53  O   UNK N   1      35.932  17.317  10.464  0.00  0.00    -0.391 OA
HETATM   54  H   UNK N   1      36.885  17.163  10.380  0.00  0.00     0.210 HD
ENDBRANCH   2  53
TORSDOF 14
ENDMDL
MODEL 8
REMARK VINA RESULT:      -8.6      6.920     11.180
REMARK  14 active torsions:
REMARK  status: ('A' for Active; 'I' for Inactive)
REMARK    1  A    between atoms: C_3  and  C_8 
REMARK    2  A    between atoms: C_15  and  N_10 
REMARK    3  A    between atoms: C_16  and  O_48 
REMARK    4  A    between atoms: C_17  and  C_46 
REMARK    5  A    between atoms: C_19  and  S_22 
REMARK    6  A    between atoms: C_20  and  O_21 
REMARK    7  A    between atoms: C_23  and  S_22 
REMARK    8  A    between atoms: C_24  and  O_45 
REMARK    9  A    between atoms: C_25  and  N_32 
REMARK   10  A    between atoms: C_26  and  O_31 
REMARK   11  A    between atoms: C_27  and  C_29 
REMARK   12  A    between atoms: C_29  and  O_30 
REMARK   13  A    between atoms: C_34  and  C_38 
REMARK   14  A    between atoms: C_46  and  O_47 
ROOT
HETATM    1  C   UNK N   1      33.632  15.195   8.582  0.00  0.00     0.172 C 
HETATM    2  C   UNK N   1      34.786  15.645   9.492  0.00  0.00     0.176 C 
HETATM    3  C   UNK N   1      35.742  14.439   9.711  0.00  0.00     0.177 C 
HETATM    4  O   UNK N   1      35.933  13.627   8.556  0.00  0.00    -0.363 OA
HETATM    5  C   UNK N   1      34.715  13.182   7.945  0.00  0.00     0.216 C 
HETATM    6  C   UNK N   1      33.455  13.694   8.682  0.00  0.00     0.184 C 
ENDROOT
BRANCH   5   7
HETATM    7  S   UNK N   1      34.811  13.791   6.197  0.00  0.00    -0.100 SA
BRANCH   7   8
HETATM    8  C   UNK N   1      33.937  12.453   5.321  0.00  0.00     0.216 C 
HETATM    9  C   UNK N   1      32.867  13.114   4.486  0.00  0.00     0.184 C 
HETATM   10  C   UNK N   1      31.800  12.152   3.925  0.00  0.00     0.169 C 
HETATM   11  C   UNK N   1      31.451  11.052   4.938  0.00  0.00     0.176 C 
HETATM   12  C   UNK N   1      32.775  10.533   5.527  0.00  0.00     0.177 C 
HETATM   13  O   UNK N   1      33.365  11.577   6.261  0.00  0.00    -0.363 OA
BRANCH   9  14
HETATM   14  O   UNK N   1      33.451  13.838   3.443  0.00  0.00    -0.390 OA
HETATM   15  H   UNK N   1      33.401  14.694   2.987  0.00  0.00     0.210 HD
ENDBRANCH   9  14
BRANCH  10  16
HETATM   16  N   UNK N   1      30.631  12.953   3.534  0.00  0.00    -0.275 N 
HETATM   17  C   UNK N   1      29.723  13.429   4.399  0.00  0.00     0.140 A 
HETATM   18  C   UNK N   1      28.859  14.192   3.680  0.00  0.00     0.073 A 
HETATM   19  N   UNK N   1      29.242  14.164   2.384  0.00  0.00    -0.282 N 
HETATM   20  N   UNK N   1      30.331  13.401   2.323  0.00  0.00    -0.020 NA
ATOM     21  HN  UNK N   1      28.786  14.637   1.604  1.00  0.00     0.184 HD
BRANCH  18  22
HETATM   22  C   UNK N   1      27.773  14.970   4.291  0.00  0.00    -0.004 A 
HETATM   23  C   UNK N   1      26.884  15.660   3.448  0.00  0.00     0.014 A 
HETATM   24  C   UNK N   1      25.805  16.368   3.974  0.00  0.00     0.004 A 
HETATM   25  C   UNK N   1      25.602  16.391   5.352  0.00  0.00     0.042 A 
HETATM   26  C   UNK N   1      26.481  15.709   6.202  0.00  0.00     0.117 A 
HETATM   27  C   UNK N   1      27.566  14.996   5.674  0.00  0.00     0.056 A 
HETATM   28  F   UNK N   1      26.271  15.735   7.538  0.00  0.00    -0.206 F 
ENDBRANCH  18  22
ENDBRANCH  10  16
BRANCH  11  29
HETATM   29  O   UNK N   1      30.765  10.027   4.283  0.00  0.00    -0.391 OA
HETATM   30  H   UNK N   1      30.724   9.104   4.578  0.00  0.00     0.210 HD
ENDBRANCH  11  29
BRANCH  12  31
HETATM   31  C   UNK N   1      32.608   9.315   6.423  0.00  0.00     0.198 C 
BRANCH  31  32
HETATM   32  O   UNK N   1      31.344   9.328   7.012  0.00  0.00    -0.398 OA
HETATM   33  H   UNK N   1      30.684  10.024   7.164  0.00  0.00     0.209 HD
ENDBRANCH  31  32
ENDBRANCH  12  31
ENDBRANCH   7   8
ENDBRANCH   5   7
BRANCH   6  34
HETATM   34  O   UNK N   1      32.265  13.208   8.139  0.00  0.00    -0.390 OA
HETATM   35  H   UNK N   1      31.774  12.422   8.425  0.00  0.00     0.210 HD
ENDBRANCH   6  34
BRANCH   3  36
HETATM   36  C   UNK N   1      37.077  14.886  10.278  0.00  0.00     0.198 C 
BRANCH  36  37
HETATM   37  O   UNK N   1      36.954  16.161  10.830  0.00  0.00    -0.398 OA
HETATM   38  H   UNK N   1      37.304  16.976  10.435  0.00  0.00     0.209 HD
ENDBRANCH  36  37
ENDBRANCH   3  36
BRANCH   1  39
HETATM   39  N   UNK N   1      32.409  15.986   8.498  0.00  0.00    -0.277 N 
HETATM   40  C   UNK N   1      31.850  16.577   7.426  0.00  0.00     0.144 A 
HETATM   41  C   UNK N   1      30.668  17.133   7.888  0.00  0.00     0.076 A 
HETATM   42  N   UNK N   1      30.548  16.856   9.197  0.00  0.00    -0.284 N 
HETATM   43  N   UNK N   1      31.612  16.156   9.541  0.00  0.00    -0.240 N 
ATOM     44  HN  UNK N   1      29.781  17.134   9.809  1.00  0.00     0.188 HD
ATOM     45  HN  UNK N   1      31.795  15.796  10.478  1.00  0.00     0.208 HD
BRANCH  41  46
HETATM   46  C   UNK N   1      29.676  17.895   7.127  0.00  0.00    -0.004 A 
HETATM   47  C   UNK N   1      29.624  17.811   5.730  0.00  0.00     0.014 A 
HETATM   48  C   UNK N   1      28.672  18.550   5.021  0.00  0.00     0.004 A 
HETATM   49  C   UNK N   1      27.773  19.375   5.705  0.00  0.00     0.042 A 
HETATM   50  C   UNK N   1      27.825  19.461   7.099  0.00  0.00     0.117 A 
HETATM   51  C   UNK N   1      28.773  18.722   7.807  0.00  0.00     0.056 A 
HETATM   52  F   UNK N   1      26.956  20.259   7.764  0.00  0.00    -0.206 F 
ENDBRANCH  41  46
ENDBRANCH   1  39
BRANCH   2  53
HETATM   53  O   UNK N   1      34.308  16.051  10.739  0.00  0.00    -0.391 OA
HETATM   54  H   UNK N   1      33.656  16.742  10.935  0.00  0.00     0.210 HD
ENDBRANCH   2  53
TORSDOF 14
ENDMDL
MODEL 9
REMARK VINA RESULT:      -8.4      7.401     11.865
REMARK  14 active torsions:
REMARK  status: ('A' for Active; 'I' for Inactive)
REMARK    1  A    between atoms: C_3  and  C_8 
REMARK    2  A    between atoms: C_15  and  N_10 
REMARK    3  A    between atoms: C_16  and  O_48 
REMARK    4  A    between atoms: C_17  and  C_46 
REMARK    5  A    between atoms: C_19  and  S_22 
REMARK    6  A    between atoms: C_20  and  O_21 
REMARK    7  A    between atoms: C_23  and  S_22 
REMARK    8  A    between atoms: C_24  and  O_45 
REMARK    9  A    between atoms: C_25  and  N_32 
REMARK   10  A    between atoms: C_26  and  O_31 
REMARK   11  A    between atoms: C_27  and  C_29 
REMARK   12  A    between atoms: C_29  and  O_30 
REMARK   13  A    between atoms: C_34  and  C_38 
REMARK   14  A    between atoms: C_46  and  O_47 
ROOT
HETATM    1  C   UNK N   1      32.481  16.253   6.474  0.00  0.00     0.172 C 
HETATM    2  C   UNK N   1      32.814  15.322   5.297  0.00  0.00     0.176 C 
HETATM    3  C   UNK N   1      34.355  15.124   5.245  0.00  0.00     0.177 C 
HETATM    4  O   UNK N   1      34.974  15.014   6.523  0.00  0.00    -0.363 OA
HETATM    5  C   UNK N   1      34.647  16.079   7.425  0.00  0.00     0.216 C 
HETATM    6  C   UNK N   1      33.682  17.115   6.802  0.00  0.00     0.184 C 
ENDROOT
BRANCH   5   7
HETATM    7  S   UNK N   1      33.924  15.238   8.910  0.00  0.00    -0.100 SA
BRANCH   7   8
HETATM    8  C   UNK N   1      35.122  13.884   9.151  0.00  0.00     0.216 C 
HETATM    9  C   UNK N   1      34.570  13.015  10.256  0.00  0.00     0.184 C 
HETATM   10  C   UNK N   1      35.577  12.007  10.846  0.00  0.00     0.169 C 
HETATM   11  C   UNK N   1      36.985  12.612  10.939  0.00  0.00     0.176 C 
HETATM   12  C   UNK N   1      37.259  13.342   9.612  0.00  0.00     0.177 C 
HETATM   13  O   UNK N   1      36.367  14.425   9.517  0.00  0.00    -0.363 OA
BRANCH   9  14
HETATM   14  O   UNK N   1      33.427  12.343   9.813  0.00  0.00    -0.390 OA
HETATM   15  H   UNK N   1      32.739  12.379   9.130  0.00  0.00     0.210 HD
ENDBRANCH   9  14
BRANCH  10  16
HETATM   16  N   UNK N   1      35.062  11.568  12.152  0.00  0.00    -0.275 N 
HETATM   17  C   UNK N   1      35.542  11.992  13.330  0.00  0.00     0.140 A 
HETATM   18  C   UNK N   1      34.756  11.444  14.293  0.00  0.00     0.073 A 
HETATM   19  N   UNK N   1      33.812  10.684  13.693  0.00  0.00    -0.282 N 
HETATM   20  N   UNK N   1      34.021  10.780  12.382  0.00  0.00    -0.020 NA
ATOM     21  HN  UNK N   1      33.082  10.144  14.155  1.00  0.00     0.184 HD
BRANCH  18  22
HETATM   22  C   UNK N   1      34.902  11.754  15.722  0.00  0.00    -0.004 A 
HETATM   23  C   UNK N   1      35.183  10.701  16.612  0.00  0.00     0.014 A 
HETATM   24  C   UNK N   1      35.385  10.948  17.968  0.00  0.00     0.004 A 
HETATM   25  C   UNK N   1      35.313  12.253  18.449  0.00  0.00     0.042 A 
HETATM   26  C   UNK N   1      35.033  13.309  17.574  0.00  0.00     0.117 A 
HETATM   27  C   UNK N   1      34.830  13.063  16.210  0.00  0.00     0.056 A 
HETATM   28  F   UNK N   1      34.969  14.573  18.052  0.00  0.00    -0.206 F 
ENDBRANCH  18  22
ENDBRANCH  10  16
BRANCH  11  29
HETATM   29  O   UNK N   1      37.912  11.587  11.142  0.00  0.00    -0.391 OA
HETATM   30  H   UNK N   1      38.429  11.452  11.951  0.00  0.00     0.210 HD
ENDBRANCH  11  29
BRANCH  12  31
HETATM   31  C   UNK N   1      38.687  13.850   9.480  0.00  0.00     0.198 C 
BRANCH  31  32
HETATM   32  O   UNK N   1      39.507  12.838   8.979  0.00  0.00    -0.398 OA
HETATM   33  H   UNK N   1      39.996  12.109   9.393  0.00  0.00     0.209 HD
ENDBRANCH  31  32
ENDBRANCH  12  31
ENDBRANCH   7   8
ENDBRANCH   5   7
BRANCH   6  34
HETATM   34  O   UNK N   1      33.415  18.194   7.646  0.00  0.00    -0.390 OA
HETATM   35  H   UNK N   1      34.027  18.603   8.278  0.00  0.00     0.210 HD
ENDBRANCH   6  34
BRANCH   3  36
HETATM   36  C   UNK N   1      34.733  13.946   4.364  0.00  0.00     0.198 C 
BRANCH  36  37
HETATM   37  O   UNK N   1      34.530  14.275   3.024  0.00  0.00    -0.398 OA
HETATM   38  H   UNK N   1      35.099  13.996   2.288  0.00  0.00     0.209 HD
ENDBRANCH  36  37
ENDBRANCH   3  36
BRANCH   1  39
HETATM   39  N   UNK N   1      31.178  16.904   6.551  0.00  0.00    -0.277 N 
HETATM   40  C   UNK N   1      30.514  17.594   5.606  0.00  0.00     0.144 A 
HETATM   41  C   UNK N   1      29.300  17.932   6.182  0.00  0.00     0.076 A 
HETATM   42  N   UNK N   1      29.266  17.435   7.430  0.00  0.00    -0.284 N 
HETATM   43  N   UNK N   1      30.413  16.813   7.627  0.00  0.00    -0.240 N 
ATOM     44  HN  UNK N   1      28.501  17.523   8.099  1.00  0.00     0.188 HD
ATOM     45  HN  UNK N   1      30.673  16.330   8.487  1.00  0.00     0.208 HD
BRANCH  41  46
HETATM   46  C   UNK N   1      28.201  18.690   5.582  0.00  0.00    -0.004 A 
HETATM   47  C   UNK N   1      27.625  18.283   4.372  0.00  0.00     0.014 A 
HETATM   48  C   UNK N   1      26.579  19.024   3.813  0.00  0.00     0.004 A 
HETATM   49  C   UNK N   1      26.107  20.171   4.459  0.00  0.00     0.042 A 
HETATM   50  C   UNK N   1      26.681  20.578   5.667  0.00  0.00     0.117 A 
HETATM   51  C   UNK N   1      27.724  19.839   6.226  0.00  0.00     0.056 A 
HETATM   52  F   UNK N   1      26.227  21.689   6.296  0.00  0.00    -0.206 F 
ENDBRANCH  41  46
ENDBRANCH   1  39
BRANCH   2  53
HETATM   53  O   UNK N   1      32.408  15.885   4.086  0.00  0.00    -0.391 OA
HETATM   54  H   UNK N   1      32.204  15.433   3.253  0.00  0.00     0.210 HD
ENDBRANCH   2  53
TORSDOF 14
ENDMDL
