MODEL 1
REMARK VINA RESULT:      -4.8      0.000      0.000
REMARK  10 active torsions:
REMARK  status: ('A' for Active; 'I' for Inactive)
REMARK    1  A    between atoms: C_2  and  C_3 
REMARK    2  A    between atoms: C_3  and  C_4 
REMARK    3  A    between atoms: C_4  and  S_5 
REMARK    4  A    between atoms: S_5  and  N_6 
REMARK    5  A    between atoms: S_5  and  C_9 
REMARK    6  A    between atoms: C_9  and  C_10 
REMARK    7  A    between atoms: C_10  and  C_11 
REMARK    8  A    between atoms: C_11  and  C_12 
REMARK    9  A    between atoms: C_11  and  N_15 
REMARK   10  A    between atoms: C_12  and  O_14 
ROOT
HETATM    1  C   UNK N   1      22.948  13.414   9.717  0.00  0.00     0.119 C 
ENDROOT
BRANCH   1   2
HETATM    2  S   UNK N   1      21.188  13.730   9.308  0.00  0.00     0.019 S 
HETATM    3  O   UNK N   1      20.742  12.729   8.234  0.00  0.00    -0.250 OA
BRANCH   2   4
HETATM    4  C   UNK N   1      20.315  15.305   9.037  0.00  0.00     0.117 C 
BRANCH   4   5
HETATM    5  C   UNK N   1      20.979  16.095   7.927  0.00  0.00     0.013 C 
BRANCH   5   6
HETATM    6  C   UNK N   1      20.227  17.394   7.706  0.00  0.00    -0.004 C 
HETATM    7  C   UNK N   1      19.490  17.777   8.973  0.00  0.00     0.005 C 
ENDBRANCH   5   6
ENDBRANCH   4   5
ENDBRANCH   2   4
BRANCH   2   8
HETATM    8  N   UNK N   1      20.370  13.104  10.518  0.00  0.00    -0.360 N 
HETATM    9  H   UNK N   1      20.701  12.296  10.973  0.00  0.00     0.165 HD
ATOM     10  HN  UNK N   1      19.499  13.540  10.825  1.00  0.00     0.165 HD
ENDBRANCH   2   8
ENDBRANCH   1   2
BRANCH   1  11
HETATM   11  C   UNK N   1      23.228  11.948  10.035  0.00  0.00     0.049 C 
BRANCH  11  12
HETATM   12  C   UNK N   1      24.143  11.800  11.245  0.00  0.00     0.174 C 
BRANCH  12  13
HETATM   13  C   UNK N   1      23.329  11.870  12.508  0.00  0.00     0.163 C 
HETATM   14  O   UNK N   1      23.840  12.199  13.567  0.00  0.00    -0.648 OA
BRANCH  13  15
HETATM   15  O   UNK N   1      22.020  11.554  12.472  0.00  0.00    -0.775 OA
HETATM   16  H   UNK N   1      21.373  12.230  12.524  0.00  0.00     0.167 HD
ENDBRANCH  13  15
ENDBRANCH  12  13
BRANCH  12  17
HETATM   17  N   UNK N   1      25.165  12.838  11.221  0.00  0.00    -0.418 N 
HETATM   18  H   UNK N   1      24.961  13.763  11.597  0.00  0.00     0.150 HD
HETATM   19  H   UNK N   1      26.084  12.638  10.826  0.00  0.00     0.150 HD
ENDBRANCH  12  17
ENDBRANCH  11  12
ENDBRANCH   1  11
TORSDOF 10
ENDMDL
MODEL 2
REMARK VINA RESULT:      -4.7     13.416     14.982
REMARK  10 active torsions:
REMARK  status: ('A' for Active; 'I' for Inactive)
REMARK    1  A    between atoms: C_2  and  C_3 
REMARK    2  A    between atoms: C_3  and  C_4 
REMARK    3  A    between atoms: C_4  and  S_5 
REMARK    4  A    between atoms: S_5  and  N_6 
REMARK    5  A    between atoms: S_5  and  C_9 
REMARK    6  A    between atoms: C_9  and  C_10 
REMARK    7  A    between atoms: C_10  and  C_11 
REMARK    8  A    between atoms: C_11  and  C_12 
REMARK    9  A    between atoms: C_11  and  N_15 
REMARK   10  A    between atoms: C_12  and  O_14 
ROOT
HETATM    1  C   UNK N   1      35.236  13.379  11.483  0.00  0.00     0.119 C 
ENDROOT
BRANCH   1   2
HETATM    2  S   UNK N   1      35.936  13.097  13.155  0.00  0.00     0.019 S 
HETATM    3  O   UNK N   1      37.161  12.182  13.030  0.00  0.00    -0.250 OA
BRANCH   2   4
HETATM    4  C   UNK N   1      35.094  12.735  14.729  0.00  0.00     0.117 C 
BRANCH   4   5
HETATM    5  C   UNK N   1      35.843  13.363  15.887  0.00  0.00     0.013 C 
BRANCH   5   6
HETATM    6  C   UNK N   1      35.356  12.763  17.193  0.00  0.00    -0.004 C 
HETATM    7  C   UNK N   1      35.174  13.860  18.221  0.00  0.00     0.005 C 
ENDBRANCH   5   6
ENDBRANCH   4   5
ENDBRANCH   2   4
BRANCH   2   8
HETATM    8  N   UNK N   1      36.719  14.436  13.500  0.00  0.00    -0.360 N 
HETATM    9  H   UNK N   1      37.561  14.398  14.010  0.00  0.00     0.165 HD
ATOM     10  HN  UNK N   1      36.350  15.337  13.194  1.00  0.00     0.165 HD
ENDBRANCH   2   8
ENDBRANCH   1   2
BRANCH   1  11
HETATM   11  C   UNK N   1      34.408  14.659  11.396  0.00  0.00     0.049 C 
BRANCH  11  12
HETATM   12  C   UNK N   1      34.735  15.455  10.138  0.00  0.00     0.174 C 
BRANCH  12  13
HETATM   13  C   UNK N   1      35.762  16.507  10.456  0.00  0.00     0.163 C 
HETATM   14  O   UNK N   1      35.519  17.692  10.290  0.00  0.00    -0.648 OA
BRANCH  13  15
HETATM   15  O   UNK N   1      36.971  16.135  10.919  0.00  0.00    -0.775 OA
HETATM   16  H   UNK N   1      37.259  15.250  10.821  0.00  0.00     0.167 HD
ENDBRANCH  13  15
ENDBRANCH  12  13
BRANCH  12  17
HETATM   17  N   UNK N   1      33.520  16.052   9.602  0.00  0.00    -0.418 N 
HETATM   18  H   UNK N   1      33.352  16.053   8.596  0.00  0.00     0.150 HD
HETATM   19  H   UNK N   1      32.837  16.471  10.233  0.00  0.00     0.150 HD
ENDBRANCH  12  17
ENDBRANCH  11  12
ENDBRANCH   1  11
TORSDOF 10
ENDMDL
MODEL 3
REMARK VINA RESULT:      -4.7     13.042     14.865
REMARK  10 active torsions:
REMARK  status: ('A' for Active; 'I' for Inactive)
REMARK    1  A    between atoms: C_2  and  C_3 
REMARK    2  A    between atoms: C_3  and  C_4 
REMARK    3  A    between atoms: C_4  and  S_5 
REMARK    4  A    between atoms: S_5  and  N_6 
REMARK    5  A    between atoms: S_5  and  C_9 
REMARK    6  A    between atoms: C_9  and  C_10 
REMARK    7  A    between atoms: C_10  and  C_11 
REMARK    8  A    between atoms: C_11  and  C_12 
REMARK    9  A    between atoms: C_11  and  N_15 
REMARK   10  A    between atoms: C_12  and  O_14 
ROOT
HETATM    1  C   UNK N   1      35.887  15.535  12.479  0.00  0.00     0.119 C 
ENDROOT
BRANCH   1   2
HETATM    2  S   UNK N   1      36.056  14.046  13.538  0.00  0.00     0.019 S 
HETATM    3  O   UNK N   1      34.838  13.140  13.315  0.00  0.00    -0.250 OA
BRANCH   2   4
HETATM    4  C   UNK N   1      36.582  13.901  15.275  0.00  0.00     0.117 C 
BRANCH   4   5
HETATM    5  C   UNK N   1      36.027  12.633  15.893  0.00  0.00     0.013 C 
BRANCH   5   6
HETATM    6  C   UNK N   1      34.856  12.977  16.794  0.00  0.00    -0.004 C 
HETATM    7  C   UNK N   1      35.322  13.886  17.912  0.00  0.00     0.005 C 
ENDBRANCH   5   6
ENDBRANCH   4   5
ENDBRANCH   2   4
BRANCH   2   8
HETATM    8  N   UNK N   1      37.123  13.135  12.793  0.00  0.00    -0.360 N 
HETATM    9  H   UNK N   1      37.418  13.364  11.881  0.00  0.00     0.165 HD
ATOM     10  HN  UNK N   1      37.505  12.311  13.259  1.00  0.00     0.165 HD
ENDBRANCH   2   8
ENDBRANCH   1   2
BRANCH   1  11
HETATM   11  C   UNK N   1      36.113  15.238  11.000  0.00  0.00     0.049 C 
BRANCH  11  12
HETATM   12  C   UNK N   1      34.828  15.382  10.194  0.00  0.00     0.174 C 
BRANCH  12  13
HETATM   13  C   UNK N   1      34.637  16.820   9.795  0.00  0.00     0.163 C 
HETATM   14  O   UNK N   1      35.533  17.637   9.942  0.00  0.00    -0.648 OA
BRANCH  13  15
HETATM   15  O   UNK N   1      33.457  17.214   9.279  0.00  0.00    -0.775 OA
HETATM   16  H   UNK N   1      32.669  16.771   9.521  0.00  0.00     0.167 HD
ENDBRANCH  13  15
ENDBRANCH  12  13
BRANCH  12  17
HETATM   17  N   UNK N   1      33.698  14.901  10.978  0.00  0.00    -0.418 N 
HETATM   18  H   UNK N   1      33.136  15.558  11.519  0.00  0.00     0.150 HD
HETATM   19  H   UNK N   1      33.469  13.907  10.985  0.00  0.00     0.150 HD
ENDBRANCH  12  17
ENDBRANCH  11  12
ENDBRANCH   1  11
TORSDOF 10
ENDMDL
MODEL 4
REMARK VINA RESULT:      -4.6     10.548     11.272
REMARK  10 active torsions:
REMARK  status: ('A' for Active; 'I' for Inactive)
REMARK    1  A    between atoms: C_2  and  C_3 
REMARK    2  A    between atoms: C_3  and  C_4 
REMARK    3  A    between atoms: C_4  and  S_5 
REMARK    4  A    between atoms: S_5  and  N_6 
REMARK    5  A    between atoms: S_5  and  C_9 
REMARK    6  A    between atoms: C_9  and  C_10 
REMARK    7  A    between atoms: C_10  and  C_11 
REMARK    8  A    between atoms: C_11  and  C_12 
REMARK    9  A    between atoms: C_11  and  N_15 
REMARK   10  A    between atoms: C_12  and  O_14 
ROOT
HETATM    1  C   UNK N   1      31.837  16.014   8.304  0.00  0.00     0.119 C 
ENDROOT
BRANCH   1   2
HETATM    2  S   UNK N   1      31.132  16.180   6.619  0.00  0.00     0.019 S 
HETATM    3  O   UNK N   1      32.274  16.442   5.628  0.00  0.00    -0.250 OA
BRANCH   2   4
HETATM    4  C   UNK N   1      29.651  17.078   6.054  0.00  0.00     0.117 C 
BRANCH   4   5
HETATM    5  C   UNK N   1      28.560  17.015   7.103  0.00  0.00     0.013 C 
BRANCH   5   6
HETATM    6  C   UNK N   1      28.461  18.350   7.816  0.00  0.00    -0.004 C 
HETATM    7  C   UNK N   1      28.660  18.149   9.305  0.00  0.00     0.005 C 
ENDBRANCH   5   6
ENDBRANCH   4   5
ENDBRANCH   2   4
BRANCH   2   8
HETATM    8  N   UNK N   1      30.808  14.693   6.163  0.00  0.00    -0.360 N 
HETATM    9  H   UNK N   1      29.984  14.250   6.471  0.00  0.00     0.165 HD
ATOM     10  HN  UNK N   1      31.455  14.194   5.550  1.00  0.00     0.165 HD
ENDBRANCH   2   8
ENDBRANCH   1   2
BRANCH   1  11
HETATM   11  C   UNK N   1      33.359  16.125   8.323  0.00  0.00     0.049 C 
BRANCH  11  12
HETATM   12  C   UNK N   1      33.821  17.390   9.033  0.00  0.00     0.174 C 
BRANCH  12  13
HETATM   13  C   UNK N   1      34.567  18.271   8.068  0.00  0.00     0.163 C 
HETATM   14  O   UNK N   1      35.265  19.190   8.466  0.00  0.00    -0.648 OA
BRANCH  13  15
HETATM   15  O   UNK N   1      34.451  18.050   6.743  0.00  0.00    -0.775 OA
HETATM   16  H   UNK N   1      33.690  17.624   6.404  0.00  0.00     0.167 HD
ENDBRANCH  13  15
ENDBRANCH  12  13
BRANCH  12  17
HETATM   17  N   UNK N   1      34.655  17.040  10.174  0.00  0.00    -0.418 N 
HETATM   18  H   UNK N   1      35.629  17.343  10.207  0.00  0.00     0.150 HD
HETATM   19  H   UNK N   1      34.265  16.490  10.940  0.00  0.00     0.150 HD
ENDBRANCH  12  17
ENDBRANCH  11  12
ENDBRANCH   1  11
TORSDOF 10
ENDMDL
MODEL 5
REMARK VINA RESULT:      -4.6      9.978     10.761
REMARK  10 active torsions:
REMARK  status: ('A' for Active; 'I' for Inactive)
REMARK    1  A    between atoms: C_2  and  C_3 
REMARK    2  A    between atoms: C_3  and  C_4 
REMARK    3  A    between atoms: C_4  and  S_5 
REMARK    4  A    between atoms: S_5  and  N_6 
REMARK    5  A    between atoms: S_5  and  C_9 
REMARK    6  A    between atoms: C_9  and  C_10 
REMARK    7  A    between atoms: C_10  and  C_11 
REMARK    8  A    between atoms: C_11  and  C_12 
REMARK    9  A    between atoms: C_11  and  N_15 
REMARK   10  A    between atoms: C_12  and  O_14 
ROOT
HETATM    1  C   UNK N   1      30.765  16.707   8.396  0.00  0.00     0.119 C 
ENDROOT
BRANCH   1   2
HETATM    2  S   UNK N   1      29.359  17.802   8.829  0.00  0.00     0.019 S 
HETATM    3  O   UNK N   1      28.399  17.035   9.748  0.00  0.00    -0.250 OA
BRANCH   2   4
HETATM    4  C   UNK N   1      28.387  18.928   7.777  0.00  0.00     0.117 C 
BRANCH   4   5
HETATM    5  C   UNK N   1      27.834  18.187   6.577  0.00  0.00     0.013 C 
BRANCH   5   6
HETATM    6  C   UNK N   1      28.802  18.305   5.415  0.00  0.00    -0.004 C 
HETATM    7  C   UNK N   1      29.184  16.923   4.927  0.00  0.00     0.005 C 
ENDBRANCH   5   6
ENDBRANCH   4   5
ENDBRANCH   2   4
BRANCH   2   8
HETATM    8  N   UNK N   1      29.938  18.794   9.927  0.00  0.00    -0.360 N 
HETATM    9  H   UNK N   1      30.279  18.441  10.780  0.00  0.00     0.165 HD
ATOM     10  HN  UNK N   1      29.956  19.799   9.748  1.00  0.00     0.165 HD
ENDBRANCH   2   8
ENDBRANCH   1   2
BRANCH   1  11
HETATM   11  C   UNK N   1      31.889  17.444   7.673  0.00  0.00     0.049 C 
BRANCH  11  12
HETATM   12  C   UNK N   1      33.047  17.762   8.610  0.00  0.00     0.174 C 
BRANCH  12  13
HETATM   13  C   UNK N   1      34.211  18.292   7.817  0.00  0.00     0.163 C 
HETATM   14  O   UNK N   1      34.415  17.917   6.673  0.00  0.00    -0.648 OA
BRANCH  13  15
HETATM   15  O   UNK N   1      35.047  19.184   8.383  0.00  0.00    -0.775 OA
HETATM   16  H   UNK N   1      35.251  19.982   7.938  0.00  0.00     0.167 HD
ENDBRANCH  13  15
ENDBRANCH  12  13
BRANCH  12  17
HETATM   17  N   UNK N   1      33.421  16.568   9.356  0.00  0.00    -0.418 N 
HETATM   18  H   UNK N   1      33.836  16.656  10.284  0.00  0.00     0.150 HD
HETATM   19  H   UNK N   1      33.268  15.645   8.950  0.00  0.00     0.150 HD
ENDBRANCH  12  17
ENDBRANCH  11  12
ENDBRANCH   1  11
TORSDOF 10
ENDMDL
MODEL 6
REMARK VINA RESULT:      -4.5     12.208     13.205
REMARK  10 active torsions:
REMARK  status: ('A' for Active; 'I' for Inactive)
REMARK    1  A    between atoms: C_2  and  C_3 
REMARK    2  A    between atoms: C_3  and  C_4 
REMARK    3  A    between atoms: C_4  and  S_5 
REMARK    4  A    between atoms: S_5  and  N_6 
REMARK    5  A    between atoms: S_5  and  C_9 
REMARK    6  A    between atoms: C_9  and  C_10 
REMARK    7  A    between atoms: C_10  and  C_11 
REMARK    8  A    between atoms: C_11  and  C_12 
REMARK    9  A    between atoms: C_11  and  N_15 
REMARK   10  A    between atoms: C_12  and  O_14 
ROOT
HETATM    1  C   UNK N   1      35.856  14.918   9.118  0.00  0.00     0.119 C 
ENDROOT
BRANCH   1   2
HETATM    2  S   UNK N   1      34.646  16.289   9.257  0.00  0.00     0.019 S 
HETATM    3  O   UNK N   1      33.281  15.708   9.646  0.00  0.00    -0.250 OA
BRANCH   2   4
HETATM    4  C   UNK N   1      34.380  17.728   8.172  0.00  0.00     0.117 C 
BRANCH   4   5
HETATM    5  C   UNK N   1      32.898  17.976   7.973  0.00  0.00     0.013 C 
BRANCH   5   6
HETATM    6  C   UNK N   1      32.442  17.323   6.682  0.00  0.00    -0.004 C 
HETATM    7  C   UNK N   1      33.544  17.417   5.646  0.00  0.00     0.005 C 
ENDBRANCH   5   6
ENDBRANCH   4   5
ENDBRANCH   2   4
BRANCH   2   8
HETATM    8  N   UNK N   1      34.973  16.983  10.648  0.00  0.00    -0.360 N 
HETATM    9  H   UNK N   1      34.612  17.876  10.852  0.00  0.00     0.165 HD
ATOM     10  HN  UNK N   1      35.558  16.502  11.333  1.00  0.00     0.165 HD
ENDBRANCH   2   8
ENDBRANCH   1   2
BRANCH   1  11
HETATM   11  C   UNK N   1      36.827  14.863  10.294  0.00  0.00     0.049 C 
BRANCH  11  12
HETATM   12  C   UNK N   1      36.557  13.661  11.190  0.00  0.00     0.174 C 
BRANCH  12  13
HETATM   13  C   UNK N   1      35.627  14.057  12.304  0.00  0.00     0.163 C 
HETATM   14  O   UNK N   1      36.053  14.301  13.422  0.00  0.00    -0.648 OA
BRANCH  13  15
HETATM   15  O   UNK N   1      34.303  14.132  12.067  0.00  0.00    -0.775 OA
HETATM   16  H   UNK N   1      33.693  13.876  12.729  0.00  0.00     0.167 HD
ENDBRANCH  13  15
ENDBRANCH  12  13
BRANCH  12  17
HETATM   17  N   UNK N   1      37.814  13.145  11.715  0.00  0.00    -0.418 N 
HETATM   18  H   UNK N   1      38.051  12.160  11.594  0.00  0.00     0.150 HD
HETATM   19  H   UNK N   1      38.456  13.768  12.205  0.00  0.00     0.150 HD
ENDBRANCH  12  17
ENDBRANCH  11  12
ENDBRANCH   1  11
TORSDOF 10
ENDMDL
MODEL 7
REMARK VINA RESULT:      -4.5      8.549     10.599
REMARK  10 active torsions:
REMARK  status: ('A' for Active; 'I' for Inactive)
REMARK    1  A    between atoms: C_2  and  C_3 
REMARK    2  A    between atoms: C_3  and  C_4 
REMARK    3  A    between atoms: C_4  and  S_5 
REMARK    4  A    between atoms: S_5  and  N_6 
REMARK    5  A    between atoms: S_5  and  C_9 
REMARK    6  A    between atoms: C_9  and  C_10 
REMARK    7  A    between atoms: C_10  and  C_11 
REMARK    8  A    between atoms: C_11  and  C_12 
REMARK    9  A    between atoms: C_11  and  N_15 
REMARK   10  A    between atoms: C_12  and  O_14 
ROOT
HETATM    1  C   UNK N   1      22.282  17.836   3.649  0.00  0.00     0.119 C 
ENDROOT
BRANCH   1   2
HETATM    2  S   UNK N   1      23.994  18.427   3.938  0.00  0.00     0.019 S 
HETATM    3  O   UNK N   1      24.052  19.934   3.657  0.00  0.00    -0.250 OA
BRANCH   2   4
HETATM    4  C   UNK N   1      25.585  17.682   3.457  0.00  0.00     0.117 C 
BRANCH   4   5
HETATM    5  C   UNK N   1      26.558  17.713   4.619  0.00  0.00     0.013 C 
BRANCH   5   6
HETATM    6  C   UNK N   1      27.809  18.469   4.214  0.00  0.00    -0.004 C 
HETATM    7  C   UNK N   1      27.568  19.959   4.344  0.00  0.00     0.005 C 
ENDBRANCH   5   6
ENDBRANCH   4   5
ENDBRANCH   2   4
BRANCH   2   8
HETATM    8  N   UNK N   1      24.135  18.512   5.518  0.00  0.00    -0.360 N 
HETATM    9  H   UNK N   1      24.882  18.059   5.973  0.00  0.00     0.165 HD
ATOM     10  HN  UNK N   1      23.450  19.036   6.064  1.00  0.00     0.165 HD
ENDBRANCH   2   8
ENDBRANCH   1   2
BRANCH   1  11
HETATM   11  C   UNK N   1      21.252  18.961   3.694  0.00  0.00     0.049 C 
BRANCH  11  12
HETATM   12  C   UNK N   1      20.636  19.215   2.323  0.00  0.00     0.174 C 
BRANCH  12  13
HETATM   13  C   UNK N   1      21.175  20.499   1.754  0.00  0.00     0.163 C 
HETATM   14  O   UNK N   1      21.225  20.679   0.547  0.00  0.00    -0.648 OA
BRANCH  13  15
HETATM   15  O   UNK N   1      21.620  21.459   2.588  0.00  0.00    -0.775 OA
HETATM   16  H   UNK N   1      21.278  22.328   2.527  0.00  0.00     0.167 HD
ENDBRANCH  13  15
ENDBRANCH  12  13
BRANCH  12  17
HETATM   17  N   UNK N   1      19.184  19.259   2.435  0.00  0.00    -0.418 N 
HETATM   18  H   UNK N   1      18.604  19.070   1.617  0.00  0.00     0.150 HD
HETATM   19  H   UNK N   1      18.749  19.480   3.330  0.00  0.00     0.150 HD
ENDBRANCH  12  17
ENDBRANCH  11  12
ENDBRANCH   1  11
TORSDOF 10
ENDMDL
MODEL 8
REMARK VINA RESULT:      -4.5     11.424     12.455
REMARK  10 active torsions:
REMARK  status: ('A' for Active; 'I' for Inactive)
REMARK    1  A    between atoms: C_2  and  C_3 
REMARK    2  A    between atoms: C_3  and  C_4 
REMARK    3  A    between atoms: C_4  and  S_5 
REMARK    4  A    between atoms: S_5  and  N_6 
REMARK    5  A    between atoms: S_5  and  C_9 
REMARK    6  A    between atoms: C_9  and  C_10 
REMARK    7  A    between atoms: C_10  and  C_11 
REMARK    8  A    between atoms: C_11  and  C_12 
REMARK    9  A    between atoms: C_11  and  N_15 
REMARK   10  A    between atoms: C_12  and  O_14 
ROOT
HETATM    1  C   UNK N   1      32.611  15.216   9.149  0.00  0.00     0.119 C 
ENDROOT
BRANCH   1   2
HETATM    2  S   UNK N   1      32.273  16.596   7.990  0.00  0.00     0.019 S 
HETATM    3  O   UNK N   1      31.023  16.256   7.167  0.00  0.00    -0.250 OA
BRANCH   2   4
HETATM    4  C   UNK N   1      33.417  17.554   6.946  0.00  0.00     0.117 C 
BRANCH   4   5
HETATM    5  C   UNK N   1      33.612  16.870   5.607  0.00  0.00     0.013 C 
BRANCH   5   6
HETATM    6  C   UNK N   1      32.880  17.646   4.528  0.00  0.00    -0.004 C 
HETATM    7  C   UNK N   1      32.816  16.819   3.261  0.00  0.00     0.005 C 
ENDBRANCH   5   6
ENDBRANCH   4   5
ENDBRANCH   2   4
BRANCH   2   8
HETATM    8  N   UNK N   1      31.618  17.732   8.888  0.00  0.00    -0.360 N 
HETATM    9  H   UNK N   1      30.928  18.324   8.510  0.00  0.00     0.165 HD
ATOM     10  HN  UNK N   1      31.912  17.848   9.859  1.00  0.00     0.165 HD
ENDBRANCH   2   8
ENDBRANCH   1   2
BRANCH   1  11
HETATM   11  C   UNK N   1      34.103  14.968   9.356  0.00  0.00     0.049 C 
BRANCH  11  12
HETATM   12  C   UNK N   1      34.559  15.408  10.741  0.00  0.00     0.174 C 
BRANCH  12  13
HETATM   13  C   UNK N   1      35.663  16.422  10.615  0.00  0.00     0.163 C 
HETATM   14  O   UNK N   1      35.429  17.564  10.254  0.00  0.00    -0.648 OA
BRANCH  13  15
HETATM   15  O   UNK N   1      36.931  16.059  10.893  0.00  0.00    -0.775 OA
HETATM   16  H   UNK N   1      37.181  15.158  10.848  0.00  0.00     0.167 HD
ENDBRANCH  13  15
ENDBRANCH  12  13
BRANCH  12  17
HETATM   17  N   UNK N   1      34.995  14.250  11.509  0.00  0.00    -0.418 N 
HETATM   18  H   UNK N   1      34.335  13.503  11.725  0.00  0.00     0.150 HD
HETATM   19  H   UNK N   1      35.961  14.187  11.831  0.00  0.00     0.150 HD
ENDBRANCH  12  17
ENDBRANCH  11  12
ENDBRANCH   1  11
TORSDOF 10
ENDMDL
MODEL 9
REMARK VINA RESULT:      -4.4     12.645     14.472
REMARK  10 active torsions:
REMARK  status: ('A' for Active; 'I' for Inactive)
REMARK    1  A    between atoms: C_2  and  C_3 
REMARK    2  A    between atoms: C_3  and  C_4 
REMARK    3  A    between atoms: C_4  and  S_5 
REMARK    4  A    between atoms: S_5  and  N_6 
REMARK    5  A    between atoms: S_5  and  C_9 
REMARK    6  A    between atoms: C_9  and  C_10 
REMARK    7  A    between atoms: C_10  and  C_11 
REMARK    8  A    between atoms: C_11  and  C_12 
REMARK    9  A    between atoms: C_11  and  N_15 
REMARK   10  A    between atoms: C_12  and  O_14 
ROOT
HETATM    1  C   UNK N   1      35.647  15.263   9.537  0.00  0.00     0.119 C 
ENDROOT
BRANCH   1   2
HETATM    2  S   UNK N   1      35.029  13.993  10.707  0.00  0.00     0.019 S 
HETATM    3  O   UNK N   1      34.217  14.687  11.808  0.00  0.00    -0.250 OA
BRANCH   2   4
HETATM    4  C   UNK N   1      35.882  12.554  11.429  0.00  0.00     0.117 C 
BRANCH   4   5
HETATM    5  C   UNK N   1      36.947  13.005  12.408  0.00  0.00     0.013 C 
BRANCH   5   6
HETATM    6  C   UNK N   1      36.481  12.739  13.826  0.00  0.00    -0.004 C 
HETATM    7  C   UNK N   1      36.570  14.014  14.640  0.00  0.00     0.005 C 
ENDBRANCH   5   6
ENDBRANCH   4   5
ENDBRANCH   2   4
BRANCH   2   8
HETATM    8  N   UNK N   1      33.807  13.309   9.957  0.00  0.00    -0.360 N 
HETATM    9  H   UNK N   1      32.887  13.618  10.127  0.00  0.00     0.165 HD
ATOM     10  HN  UNK N   1      33.973  12.547   9.298  1.00  0.00     0.165 HD
ENDBRANCH   2   8
ENDBRANCH   1   2
BRANCH   1  11
HETATM   11  C   UNK N   1      34.987  16.624   9.737  0.00  0.00     0.049 C 
BRANCH  11  12
HETATM   12  C   UNK N   1      33.989  16.933   8.628  0.00  0.00     0.174 C 
BRANCH  12  13
HETATM   13  C   UNK N   1      34.475  18.104   7.820  0.00  0.00     0.163 C 
HETATM   14  O   UNK N   1      34.366  18.117   6.604  0.00  0.00    -0.648 OA
BRANCH  13  15
HETATM   15  O   UNK N   1      35.050  19.149   8.446  0.00  0.00    -0.775 OA
HETATM   16  H   UNK N   1      35.958  19.118   8.673  0.00  0.00     0.167 HD
ENDBRANCH  13  15
ENDBRANCH  12  13
BRANCH  12  17
HETATM   17  N   UNK N   1      32.678  17.200   9.203  0.00  0.00    -0.418 N 
HETATM   18  H   UNK N   1      32.046  17.860   8.749  0.00  0.00     0.150 HD
HETATM   19  H   UNK N   1      32.392  16.728  10.061  0.00  0.00     0.150 HD
ENDBRANCH  12  17
ENDBRANCH  11  12
ENDBRANCH   1  11
TORSDOF 10
ENDMDL
