REMARK  9 active torsions:
REMARK  status: ('A' for Active; 'I' for Inactive)
REMARK    1  A    between atoms: C_2  and  N_3 
REMARK    2  A    between atoms: N_3  and  C_4 
REMARK    3  A    between atoms: N_3  and  C_37 
REMARK    4  A    between atoms: C_6  and  C_24 
REMARK    5  A    between atoms: C_8  and  C_11 
REMARK       I    between atoms: C_11  and  N_13 
REMARK    6  A    between atoms: N_13  and  C_14 
REMARK    7  A    between atoms: C_14  and  C_15 
REMARK    8  A    between atoms: C_27  and  C_30 
REMARK    9  A    between atoms: C_30  and  N_31 
ROOT
HETATM    1  C   UNK N   1      -0.463  -0.456  -0.195  0.00  0.00     0.038 A 
HETATM    2  C   UNK N   1       0.815  -1.032  -0.212  0.00  0.00     0.042 A 
HETATM    3  C   UNK N   1       1.035  -2.333  -0.626  0.00  0.00    -0.023 A 
HETATM    4  C   UNK N   1      -0.046  -3.133  -0.975  0.00  0.00     0.030 A 
HETATM    5  C   UNK N   1      -1.354  -2.664  -0.925  0.00  0.00     0.041 A 
HETATM    6  C   UNK N   1      -1.563  -1.292  -0.583  0.00  0.00    -0.020 A 
HETATM    7  C   UNK N   1      -2.884  -0.715  -0.809  0.00  0.00     0.052 C 
ENDROOT
BRANCH   5   8
HETATM    8  C   UNK N   1      -2.427  -3.655  -1.329  0.00  0.00     0.252 C 
HETATM    9  O   UNK N   1      -2.113  -4.545  -2.105  0.00  0.00    -0.268 OA
HETATM   10  N   UNK N   1      -3.692  -3.687  -0.814  0.00  0.00    -0.352 N 
HETATM   11  H   UNK N   1      -4.358  -4.248  -1.274  0.00  0.00     0.163 HD
BRANCH  10  12
HETATM   12  C   UNK N   1      -4.123  -2.959   0.354  0.00  0.00     0.167 C 
BRANCH  12  13
HETATM   13  C   UNK N   1      -5.598  -2.641   0.341  0.00  0.00     0.033 A 
HETATM   14  C   UNK N   1      -6.463  -3.229   1.290  0.00  0.00    -0.047 A 
HETATM   15  C   UNK N   1      -7.806  -2.850   1.337  0.00  0.00     0.032 A 
HETATM   16  C   UNK N   1      -5.970  -4.245   2.265  0.00  0.00     0.049 C 
HETATM   17  C   UNK N   1      -8.289  -1.896   0.444  0.00  0.00     0.009 A 
HETATM   18  N   UNK N   1      -7.463  -1.360  -0.492  0.00  0.00    -0.327 N 
HETATM   19  C   UNK N   1      -9.703  -1.448   0.520  0.00  0.00     0.068 C 
HETATM   20  C   UNK N   1      -6.146  -1.712  -0.568  0.00  0.00     0.254 A 
HETATM   21  H   UNK N   1      -7.822  -0.702  -1.130  0.00  0.00     0.169 HD
HETATM   22  O   UNK N   1      -5.448  -1.200  -1.429  0.00  0.00    -0.268 OA
ENDBRANCH  12  13
ENDBRANCH  10  12
ENDBRANCH   5   8
BRANCH   3  23
HETATM   23  C   UNK N   1       2.382  -2.906  -0.628  0.00  0.00    -0.026 A 
HETATM   24  C   UNK N   1       3.387  -2.383   0.201  0.00  0.00     0.013 A 
HETATM   25  C   UNK N   1       4.575  -3.095   0.378  0.00  0.00     0.010 A 
HETATM   26  C   UNK N   1       4.771  -4.297  -0.311  0.00  0.00    -0.030 A 
HETATM   27  C   UNK N   1       3.825  -4.744  -1.230  0.00  0.00     0.010 A 
HETATM   28  C   UNK N   1       2.627  -4.066  -1.369  0.00  0.00     0.013 A 
BRANCH  26  29
HETATM   29  C   UNK N   1       5.863  -5.219   0.107  0.00  0.00     0.311 C 
BRANCH  29  30
HETATM   30  N   UNK N   1       5.352  -6.442   0.770  0.00  0.00     0.096 N 
HETATM   31  C   UNK N   1       5.402  -7.612  -0.115  0.00  0.00     0.299 C 
HETATM   32  C   UNK N   1       4.070  -7.821  -0.839  0.00  0.00     0.198 C 
HETATM   33  O   UNK N   1       3.048  -7.980   0.109  0.00  0.00    -0.388 OA
HETATM   34  C   UNK N   1       2.856  -6.717   0.689  0.00  0.00     0.198 C 
HETATM   35  C   UNK N   1       4.085  -6.325   1.534  0.00  0.00     0.299 C 
ENDBRANCH  29  30
ENDBRANCH  26  29
ENDBRANCH   3  23
BRANCH   1  36
HETATM   36  N   UNK N   1      -0.537   0.959   0.145  0.00  0.00    -0.376 N 
BRANCH  36  37
HETATM   37  C   UNK N   1       0.678   1.748   0.021  0.00  0.00     0.119 C 
HETATM   38  C   UNK N   1       1.597   1.550   1.210  0.00  0.00     0.026 C 
ENDBRANCH  36  37
BRANCH  36  39
HETATM   39  C   UNK N   1      -1.709   1.724   0.581  0.00  0.00     0.088 C 
HETATM   40  C   UNK N   1      -2.915   1.111   1.310  0.00  0.00     0.051 C 
HETATM   41  C   UNK N   1      -4.207   1.410   0.514  0.00  0.00     0.169 C 
HETATM   42  O   UNK N   1      -4.283   2.762   0.131  0.00  0.00    -0.391 OA
HETATM   43  C   UNK N   1      -3.295   2.958  -0.846  0.00  0.00     0.169 C 
HETATM   44  C   UNK N   1      -1.948   3.037  -0.158  0.00  0.00     0.051 C 
ENDBRANCH  36  39
ENDBRANCH   1  36
TORSDOF 9
