REMARK  4 active torsions:
REMARK  status: ('A' for Active; 'I' for Inactive)
REMARK    1  A    between atoms: C_11  and  N_14 
REMARK    2  A    between atoms: N_14  and  S_15 
REMARK    3  A    between atoms: S_15  and  C_18 
REMARK    4  A    between atoms: C_21  and  N_24 
ROOT
HETATM    1  N   UNK N   1       3.938  -0.993   0.464  0.00  0.00    -0.265 N 
HETATM    2  H   UNK N   1       4.600  -0.490   0.991  0.00  0.00     0.180 HD
ENDROOT
BRANCH   1   3
HETATM    3  C   UNK N   1       2.618  -0.495   0.374  0.00  0.00     0.131 A 
HETATM    4  C   UNK N   1       2.393   0.882   0.459  0.00  0.00     0.137 A 
HETATM    5  N   UNK N   1       1.131   1.370   0.321  0.00  0.00    -0.359 N 
HETATM    6  C   UNK N   1       0.077   0.533   0.127  0.00  0.00     0.081 A 
ATOM      7  HN  UNK N   1       0.973   2.376   0.364  1.00  0.00     0.165 HD
HETATM    8  C   UNK N   1       0.302  -0.859   0.068  0.00  0.00     0.062 A 
HETATM    9  C   UNK N   1      -1.227   1.035  -0.015  0.00  0.00     0.063 A 
HETATM   10  C   UNK N   1      -0.769  -1.735  -0.108  0.00  0.00     0.032 A 
HETATM   11  N   UNK N   1       1.569  -1.337   0.178  0.00  0.00    -0.339 N 
HETATM   12  C   UNK N   1      -2.068  -1.232  -0.231  0.00  0.00     0.004 A 
HETATM   13  C   UNK N   1      -2.294   0.148  -0.193  0.00  0.00     0.026 A 
ATOM     14  HN  UNK N   1       1.736  -2.341   0.111  1.00  0.00     0.167 HD
HETATM   15 Cl   UNK N   1      -1.544   2.762   0.015  0.00  0.00    -0.082 Cl
ENDBRANCH   1   3
BRANCH   1  16
HETATM   16  S   UNK N   1       4.440  -2.478  -0.330  0.00  0.00     0.264 S 
HETATM   17  O   UNK N   1       4.331  -2.145  -1.825  0.00  0.00    -0.200 OA
HETATM   18  O   UNK N   1       5.967  -2.488  -0.168  0.00  0.00    -0.200 OA
BRANCH  16  19
HETATM   19  C   UNK N   1       3.741  -4.100  -0.015  0.00  0.00     0.080 A 
HETATM   20  C   UNK N   1       4.585  -5.217  -0.005  0.00  0.00     0.027 A 
HETATM   21  C   UNK N   1       4.051  -6.503   0.110  0.00  0.00     0.030 A 
HETATM   22  C   UNK N   1       2.668  -6.677   0.204  0.00  0.00     0.025 A 
HETATM   23  C   UNK N   1       1.821  -5.564   0.198  0.00  0.00     0.030 A 
HETATM   24  C   UNK N   1       2.357  -4.276   0.081  0.00  0.00     0.027 A 
BRANCH  22  25
HETATM   25  N   UNK N   1       2.127  -7.975   0.290  0.00  0.00    -0.399 N 
HETATM   26  H   UNK N   1       1.152  -8.101   0.350  0.00  0.00     0.156 HD
HETATM   27  H   UNK N   1       2.724  -8.757   0.290  0.00  0.00     0.156 HD
ENDBRANCH  22  25
ENDBRANCH  16  19
ENDBRANCH   1  16
TORSDOF 4
