MODEL 1
REMARK VINA RESULT:      -8.5      0.000      0.000
REMARK  4 active torsions:
REMARK  status: ('A' for Active; 'I' for Inactive)
REMARK    1  A    between atoms: C_6  and  N_12 
REMARK    2  A    between atoms: C_13  and  N_29 
REMARK    3  A    between atoms: C_14  and  C_18 
REMARK    4  A    between atoms: C_18  and  C_20 
ROOT
HETATM    1  N   UNK N   1      34.240  16.535   8.782  0.00  0.00    -0.240 N 
HETATM    2  C   UNK N   1      34.863  15.346   8.939  0.00  0.00     0.137 A 
HETATM    3  C   UNK N   1      35.551  15.373  10.117  0.00  0.00     0.079 A 
HETATM    4  C   UNK N   1      35.303  16.629  10.658  0.00  0.00     0.127 A 
HETATM    5  N   UNK N   1      34.508  17.308   9.815  0.00  0.00    -0.302 N 
ATOM      6  HN  UNK N   1      34.167  18.260   9.952  1.00  0.00     0.186 HD
ENDROOT
BRANCH   1   7
HETATM    7  C   UNK N   1      33.500  16.992   7.651  0.00  0.00     0.060 A 
HETATM    8  C   UNK N   1      32.099  17.004   7.702  0.00  0.00     0.063 A 
HETATM    9  C   UNK N   1      31.420  17.208   6.524  0.00  0.00     0.062 A 
HETATM   10  N   UNK N   1      30.099  17.145   6.334  0.00  0.00    -0.344 N 
HETATM   11  C   UNK N   1      32.055  17.404   5.340  0.00  0.00     0.060 A 
HETATM   12  C   UNK N   1      29.965  17.305   4.997  0.00  0.00     0.078 A 
HETATM   13  H   UNK N   1      29.392  17.015   7.006  0.00  0.00     0.167 HD
HETATM   14  C   UNK N   1      28.656  17.222   4.302  0.00  0.00     0.089 C 
HETATM   15  N   UNK N   1      31.150  17.471   4.355  0.00  0.00    -0.344 N 
ATOM     16  HN  UNK N   1      31.313  17.613   3.358  1.00  0.00     0.167 HD
HETATM   17  C   UNK N   1      33.441  17.456   5.242  0.00  0.00     0.034 A 
HETATM   18  C   UNK N   1      34.173  17.236   6.422  0.00  0.00     0.034 A 
ENDBRANCH   1   7
BRANCH   2  19
HETATM   19  N   UNK N   1      34.810  14.264   8.036  0.00  0.00    -0.383 N 
HETATM   20  H   UNK N   1      35.469  14.131   7.316  0.00  0.00     0.157 HD
HETATM   21  H   UNK N   1      34.080  13.611   8.129  0.00  0.00     0.157 HD
ENDBRANCH   2  19
BRANCH   3  22
HETATM   22  C   UNK N   1      36.416  14.346  10.731  0.00  0.00     0.213 C 
HETATM   23  O   UNK N   1      37.391  13.900  10.146  0.00  0.00    -0.285 OA
BRANCH  22  24
HETATM   24  C   UNK N   1      36.061  13.900  12.082  0.00  0.00     0.085 A 
HETATM   25  C   UNK N   1      35.063  13.005  12.467  0.00  0.00     0.047 A 
HETATM   26  C   UNK N   1      35.203  12.927  13.843  0.00  0.00    -0.007 A 
HETATM   27  C   UNK N   1      34.521  12.172  14.790  0.00  0.00     0.014 A 
HETATM   28  C   UNK N   1      36.217  13.764  14.210  0.00  0.00     0.043 A 
HETATM   29  C   UNK N   1      34.912  12.307  16.139  0.00  0.00     0.001 A 
HETATM   30  C   UNK N   1      35.955  13.189  16.505  0.00  0.00     0.002 A 
HETATM   31  C   UNK N   1      36.624  13.932  15.524  0.00  0.00     0.030 A 
HETATM   32  N   UNK N   1      36.746  14.359  13.154  0.00  0.00    -0.352 N 
HETATM   33  H   UNK N   1      37.489  15.005  13.148  0.00  0.00     0.166 HD
ENDBRANCH  22  24
ENDBRANCH   3  22
TORSDOF 4
ENDMDL
MODEL 2
REMARK VINA RESULT:      -8.3      2.243      8.463
REMARK  4 active torsions:
REMARK  status: ('A' for Active; 'I' for Inactive)
REMARK    1  A    between atoms: C_6  and  N_12 
REMARK    2  A    between atoms: C_13  and  N_29 
REMARK    3  A    between atoms: C_14  and  C_18 
REMARK    4  A    between atoms: C_18  and  C_20 
ROOT
HETATM    1  N   UNK N   1      35.408  14.415   9.188  0.00  0.00    -0.240 N 
HETATM    2  C   UNK N   1      34.840  15.636   9.296  0.00  0.00     0.137 A 
HETATM    3  C   UNK N   1      34.532  16.080   8.043  0.00  0.00     0.079 A 
HETATM    4  C   UNK N   1      34.936  15.064   7.185  0.00  0.00     0.127 A 
HETATM    5  N   UNK N   1      35.469  14.072   7.917  0.00  0.00    -0.302 N 
ATOM      6  HN  UNK N   1      35.854  13.201   7.552  1.00  0.00     0.186 HD
ENDROOT
BRANCH   1   7
HETATM    7  C   UNK N   1      35.984  13.624  10.226  0.00  0.00     0.060 A 
HETATM    8  C   UNK N   1      35.212  13.284  11.345  0.00  0.00     0.063 A 
HETATM    9  C   UNK N   1      35.861  12.742  12.429  0.00  0.00     0.062 A 
HETATM   10  N   UNK N   1      35.337  12.456  13.623  0.00  0.00    -0.344 N 
HETATM   11  C   UNK N   1      37.201  12.522  12.441  0.00  0.00     0.060 A 
HETATM   12  C   UNK N   1      36.406  12.063  14.353  0.00  0.00     0.078 A 
HETATM   13  H   UNK N   1      34.395  12.516  13.906  0.00  0.00     0.167 HD
HETATM   14  C   UNK N   1      36.319  11.720  15.794  0.00  0.00     0.089 C 
HETATM   15  N   UNK N   1      37.571  12.088  13.653  0.00  0.00    -0.344 N 
ATOM     16  HN  UNK N   1      38.505  11.836  13.975  1.00  0.00     0.167 HD
HETATM   17  C   UNK N   1      38.006  12.789  11.339  0.00  0.00     0.034 A 
HETATM   18  C   UNK N   1      37.382  13.360  10.216  0.00  0.00     0.034 A 
ENDBRANCH   1   7
BRANCH   2  19
HETATM   19  N   UNK N   1      34.607  16.331  10.501  0.00  0.00    -0.383 N 
HETATM   20  H   UNK N   1      34.730  17.304  10.593  0.00  0.00     0.157 HD
HETATM   21  H   UNK N   1      34.308  15.820  11.287  0.00  0.00     0.157 HD
ENDBRANCH   2  19
BRANCH   3  22
HETATM   22  C   UNK N   1      33.932  17.358   7.613  0.00  0.00     0.213 C 
HETATM   23  O   UNK N   1      34.618  18.269   7.173  0.00  0.00    -0.285 OA
BRANCH  22  24
HETATM   24  C   UNK N   1      32.475  17.479   7.722  0.00  0.00     0.085 A 
HETATM   25  C   UNK N   1      31.502  17.121   6.788  0.00  0.00     0.047 A 
HETATM   26  C   UNK N   1      30.309  17.416   7.428  0.00  0.00    -0.007 A 
HETATM   27  C   UNK N   1      28.989  17.247   7.024  0.00  0.00     0.014 A 
HETATM   28  C   UNK N   1      30.606  17.941   8.651  0.00  0.00     0.043 A 
HETATM   29  C   UNK N   1      27.975  17.643   7.921  0.00  0.00     0.001 A 
HETATM   30  C   UNK N   1      28.300  18.198   9.180  0.00  0.00     0.002 A 
HETATM   31  C   UNK N   1      29.640  18.350   9.557  0.00  0.00     0.030 A 
HETATM   32  N   UNK N   1      31.914  17.984   8.843  0.00  0.00    -0.352 N 
HETATM   33  H   UNK N   1      32.385  18.317   9.642  0.00  0.00     0.166 HD
ENDBRANCH  22  24
ENDBRANCH   3  22
TORSDOF 4
ENDMDL
MODEL 3
REMARK VINA RESULT:      -8.2      2.147      9.377
REMARK  4 active torsions:
REMARK  status: ('A' for Active; 'I' for Inactive)
REMARK    1  A    between atoms: C_6  and  N_12 
REMARK    2  A    between atoms: C_13  and  N_29 
REMARK    3  A    between atoms: C_14  and  C_18 
REMARK    4  A    between atoms: C_18  and  C_20 
ROOT
HETATM    1  N   UNK N   1      35.070  13.418  11.786  0.00  0.00    -0.240 N 
HETATM    2  C   UNK N   1      35.385  14.726  11.667  0.00  0.00     0.137 A 
HETATM    3  C   UNK N   1      34.800  15.209  10.532  0.00  0.00     0.079 A 
HETATM    4  C   UNK N   1      34.118  14.129   9.984  0.00  0.00     0.127 A 
HETATM    5  N   UNK N   1      34.310  13.058  10.771  0.00  0.00    -0.302 N 
ATOM      6  HN  UNK N   1      33.931  12.124  10.611  1.00  0.00     0.186 HD
ENDROOT
BRANCH   1   7
HETATM    7  C   UNK N   1      35.548  12.487  12.755  0.00  0.00     0.060 A 
HETATM    8  C   UNK N   1      34.840  12.313  13.953  0.00  0.00     0.063 A 
HETATM    9  C   UNK N   1      35.453  11.607  14.961  0.00  0.00     0.062 A 
HETATM   10  N   UNK N   1      35.005  11.424  16.205  0.00  0.00    -0.344 N 
HETATM   11  C   UNK N   1      36.696  11.075  14.827  0.00  0.00     0.060 A 
HETATM   12  C   UNK N   1      36.022  10.771  16.814  0.00  0.00     0.078 A 
HETATM   13  H   UNK N   1      34.141  11.698  16.588  0.00  0.00     0.167 HD
HETATM   14  C   UNK N   1      36.009  10.424  18.257  0.00  0.00     0.089 C 
HETATM   15  N   UNK N   1      37.078  10.536  15.992  0.00  0.00    -0.344 N 
ATOM     16  HN  UNK N   1      37.954  10.063  16.211  1.00  0.00     0.167 HD
HETATM   17  C   UNK N   1      37.420  11.171  13.644  0.00  0.00     0.034 A 
HETATM   18  C   UNK N   1      36.834  11.901  12.594  0.00  0.00     0.034 A 
ENDBRANCH   1   7
BRANCH   2  19
HETATM   19  N   UNK N   1      36.183  15.464  12.566  0.00  0.00    -0.383 N 
HETATM   20  H   UNK N   1      36.441  15.130  13.456  0.00  0.00     0.157 HD
HETATM   21  H   UNK N   1      36.498  16.355  12.291  0.00  0.00     0.157 HD
ENDBRANCH   2  19
BRANCH   3  22
HETATM   22  C   UNK N   1      34.863  16.558   9.936  0.00  0.00     0.213 C 
HETATM   23  O   UNK N   1      35.591  17.425  10.394  0.00  0.00    -0.285 OA
BRANCH  22  24
HETATM   24  C   UNK N   1      34.024  16.803   8.758  0.00  0.00     0.085 A 
HETATM   25  C   UNK N   1      34.421  16.992   7.434  0.00  0.00     0.047 A 
HETATM   26  C   UNK N   1      33.225  17.140   6.752  0.00  0.00    -0.007 A 
HETATM   27  C   UNK N   1      32.961  17.322   5.398  0.00  0.00     0.014 A 
HETATM   28  C   UNK N   1      32.209  17.066   7.660  0.00  0.00     0.043 A 
HETATM   29  C   UNK N   1      31.610  17.431   5.004  0.00  0.00     0.001 A 
HETATM   30  C   UNK N   1      30.570  17.365   5.960  0.00  0.00     0.002 A 
HETATM   31  C   UNK N   1      30.871  17.177   7.315  0.00  0.00     0.030 A 
HETATM   32  N   UNK N   1      32.680  16.861   8.879  0.00  0.00    -0.352 N 
HETATM   33  H   UNK N   1      32.155  16.768   9.708  0.00  0.00     0.166 HD
ENDBRANCH  22  24
ENDBRANCH   3  22
TORSDOF 4
ENDMDL
MODEL 4
REMARK VINA RESULT:      -8.0      1.674      2.509
REMARK  4 active torsions:
REMARK  status: ('A' for Active; 'I' for Inactive)
REMARK    1  A    between atoms: C_6  and  N_12 
REMARK    2  A    between atoms: C_13  and  N_29 
REMARK    3  A    between atoms: C_14  and  C_18 
REMARK    4  A    between atoms: C_18  and  C_20 
ROOT
HETATM    1  N   UNK N   1      32.841  16.488   7.734  0.00  0.00    -0.240 N 
HETATM    2  C   UNK N   1      33.863  17.111   8.361  0.00  0.00     0.137 A 
HETATM    3  C   UNK N   1      34.340  16.281   9.334  0.00  0.00     0.079 A 
HETATM    4  C   UNK N   1      33.559  15.134   9.253  0.00  0.00     0.127 A 
HETATM    5  N   UNK N   1      32.656  15.300   8.273  0.00  0.00    -0.302 N 
ATOM      6  HN  UNK N   1      31.948  14.621   7.993  1.00  0.00     0.186 HD
ENDROOT
BRANCH   1   7
HETATM    7  C   UNK N   1      31.978  17.019   6.730  0.00  0.00     0.060 A 
HETATM    8  C   UNK N   1      30.604  17.130   6.987  0.00  0.00     0.063 A 
HETATM    9  C   UNK N   1      29.775  17.405   5.926  0.00  0.00     0.062 A 
HETATM   10  N   UNK N   1      28.441  17.441   5.934  0.00  0.00    -0.344 N 
HETATM   11  C   UNK N   1      30.241  17.577   4.662  0.00  0.00     0.060 A 
HETATM   12  C   UNK N   1      28.122  17.635   4.633  0.00  0.00     0.078 A 
HETATM   13  H   UNK N   1      27.833  17.350   6.702  0.00  0.00     0.167 HD
HETATM   14  C   UNK N   1      26.723  17.659   4.139  0.00  0.00     0.089 C 
HETATM   15  N   UNK N   1      29.209  17.727   3.822  0.00  0.00    -0.344 N 
ATOM     16  HN  UNK N   1      29.232  17.875   2.814  1.00  0.00     0.167 HD
HETATM   17  C   UNK N   1      31.598  17.531   4.359  0.00  0.00     0.034 A 
HETATM   18  C   UNK N   1      32.478  17.236   5.416  0.00  0.00     0.034 A 
ENDBRANCH   1   7
BRANCH   2  19
HETATM   19  N   UNK N   1      34.351  18.399   8.059  0.00  0.00    -0.383 N 
HETATM   20  H   UNK N   1      35.129  18.557   7.476  0.00  0.00     0.157 HD
HETATM   21  H   UNK N   1      33.891  19.177   8.447  0.00  0.00     0.157 HD
ENDBRANCH   2  19
BRANCH   3  22
HETATM   22  C   UNK N   1      35.420  16.499  10.317  0.00  0.00     0.213 C 
HETATM   23  O   UNK N   1      35.879  17.612  10.525  0.00  0.00    -0.285 OA
BRANCH  22  24
HETATM   24  C   UNK N   1      35.903  15.321  11.045  0.00  0.00     0.085 A 
HETATM   25  C   UNK N   1      36.669  14.259  10.566  0.00  0.00     0.047 A 
HETATM   26  C   UNK N   1      36.862  13.462  11.683  0.00  0.00    -0.007 A 
HETATM   27  C   UNK N   1      37.575  12.280  11.851  0.00  0.00     0.014 A 
HETATM   28  C   UNK N   1      36.207  14.041  12.730  0.00  0.00     0.043 A 
HETATM   29  C   UNK N   1      37.591  11.704  13.139  0.00  0.00     0.001 A 
HETATM   30  C   UNK N   1      36.895  12.310  14.211  0.00  0.00     0.002 A 
HETATM   31  C   UNK N   1      36.190  13.503  14.007  0.00  0.00     0.030 A 
HETATM   32  N   UNK N   1      35.622  15.168  12.358  0.00  0.00    -0.352 N 
HETATM   33  H   UNK N   1      35.091  15.775  12.924  0.00  0.00     0.166 HD
ENDBRANCH  22  24
ENDBRANCH   3  22
TORSDOF 4
ENDMDL
MODEL 5
REMARK VINA RESULT:      -8.0      2.452      9.788
REMARK  4 active torsions:
REMARK  status: ('A' for Active; 'I' for Inactive)
REMARK    1  A    between atoms: C_6  and  N_12 
REMARK    2  A    between atoms: C_13  and  N_29 
REMARK    3  A    between atoms: C_14  and  C_18 
REMARK    4  A    between atoms: C_18  and  C_20 
ROOT
HETATM    1  N   UNK N   1      35.400  13.255  13.519  0.00  0.00    -0.240 N 
HETATM    2  C   UNK N   1      35.928  14.390  13.012  0.00  0.00     0.137 A 
HETATM    3  C   UNK N   1      35.489  14.533  11.728  0.00  0.00     0.079 A 
HETATM    4  C   UNK N   1      34.669  13.434  11.497  0.00  0.00     0.127 A 
HETATM    5  N   UNK N   1      34.644  12.678  12.606  0.00  0.00    -0.302 N 
ATOM      6  HN  UNK N   1      34.127  11.807  12.723  1.00  0.00     0.186 HD
ENDROOT
BRANCH   1   7
HETATM    7  C   UNK N   1      35.670  12.653  14.784  0.00  0.00     0.060 A 
HETATM    8  C   UNK N   1      36.476  11.508  14.846  0.00  0.00     0.063 A 
HETATM    9  C   UNK N   1      36.511  10.815  16.033  0.00  0.00     0.062 A 
HETATM   10  N   UNK N   1      37.119   9.649  16.268  0.00  0.00    -0.344 N 
HETATM   11  C   UNK N   1      35.809  11.206  17.127  0.00  0.00     0.060 A 
HETATM   12  C   UNK N   1      36.753   9.352  17.537  0.00  0.00     0.078 A 
HETATM   13  H   UNK N   1      37.697   9.130  15.663  0.00  0.00     0.167 HD
HETATM   14  C   UNK N   1      37.131   8.085  18.210  0.00  0.00     0.089 C 
HETATM   15  N   UNK N   1      35.949  10.293  18.097  0.00  0.00    -0.344 N 
ATOM     16  HN  UNK N   1      35.547  10.302  19.034  1.00  0.00     0.167 HD
HETATM   17  C   UNK N   1      35.037  12.362  17.137  0.00  0.00     0.034 A 
HETATM   18  C   UNK N   1      34.962  13.091  15.937  0.00  0.00     0.034 A 
ENDBRANCH   1   7
BRANCH   2  19
HETATM   19  N   UNK N   1      36.789  15.273  13.696  0.00  0.00    -0.383 N 
HETATM   20  H   UNK N   1      36.789  16.247  13.547  0.00  0.00     0.157 HD
HETATM   21  H   UNK N   1      37.418  14.900  14.354  0.00  0.00     0.157 HD
ENDBRANCH   2  19
BRANCH   3  22
HETATM   22  C   UNK N   1      35.800  15.577  10.732  0.00  0.00     0.213 C 
HETATM   23  O   UNK N   1      36.834  16.227  10.790  0.00  0.00    -0.285 OA
BRANCH  22  24
HETATM   24  C   UNK N   1      34.821  15.787   9.661  0.00  0.00     0.085 A 
HETATM   25  C   UNK N   1      34.698  15.105   8.451  0.00  0.00     0.047 A 
HETATM   26  C   UNK N   1      33.591  15.688   7.856  0.00  0.00    -0.007 A 
HETATM   27  C   UNK N   1      32.949  15.414   6.653  0.00  0.00     0.014 A 
HETATM   28  C   UNK N   1      33.136  16.670   8.686  0.00  0.00     0.043 A 
HETATM   29  C   UNK N   1      31.818  16.190   6.324  0.00  0.00     0.001 A 
HETATM   30  C   UNK N   1      31.367  17.213   7.189  0.00  0.00     0.002 A 
HETATM   31  C   UNK N   1      32.035  17.460   8.395  0.00  0.00     0.030 A 
HETATM   32  N   UNK N   1      33.871  16.740   9.783  0.00  0.00    -0.352 N 
HETATM   33  H   UNK N   1      33.750  17.362  10.538  0.00  0.00     0.166 HD
ENDBRANCH  22  24
ENDBRANCH   3  22
TORSDOF 4
ENDMDL
MODEL 6
REMARK VINA RESULT:      -7.8      2.516      5.078
REMARK  4 active torsions:
REMARK  status: ('A' for Active; 'I' for Inactive)
REMARK    1  A    between atoms: C_6  and  N_12 
REMARK    2  A    between atoms: C_13  and  N_29 
REMARK    3  A    between atoms: C_14  and  C_18 
REMARK    4  A    between atoms: C_18  and  C_20 
ROOT
HETATM    1  N   UNK N   1      30.060  17.456   6.436  0.00  0.00    -0.240 N 
HETATM    2  C   UNK N   1      31.379  17.350   6.162  0.00  0.00     0.137 A 
HETATM    3  C   UNK N   1      32.068  17.408   7.339  0.00  0.00     0.079 A 
HETATM    4  C   UNK N   1      31.099  17.546   8.325  0.00  0.00     0.127 A 
HETATM    5  N   UNK N   1      29.892  17.577   7.737  0.00  0.00    -0.302 N 
ATOM      6  HN  UNK N   1      28.997  17.676   8.217  1.00  0.00     0.186 HD
ENDROOT
BRANCH   1   7
HETATM    7  C   UNK N   1      28.980  17.553   5.509  0.00  0.00     0.060 A 
HETATM    8  C   UNK N   1      28.672  18.795   4.935  0.00  0.00     0.063 A 
HETATM    9  C   UNK N   1      27.485  18.905   4.250  0.00  0.00     0.062 A 
HETATM   10  N   UNK N   1      26.955  20.014   3.730  0.00  0.00    -0.344 N 
HETATM   11  C   UNK N   1      26.625  17.863   4.109  0.00  0.00     0.060 A 
HETATM   12  C   UNK N   1      25.747  19.605   3.277  0.00  0.00     0.078 A 
HETATM   13  H   UNK N   1      27.348  20.916   3.685  0.00  0.00     0.167 HD
HETATM   14  C   UNK N   1      24.751  20.531   2.683  0.00  0.00     0.089 C 
HETATM   15  N   UNK N   1      25.514  18.284   3.490  0.00  0.00    -0.344 N 
ATOM     16  HN  UNK N   1      24.687  17.741   3.240  1.00  0.00     0.167 HD
HETATM   17  C   UNK N   1      26.905  16.597   4.610  0.00  0.00     0.034 A 
HETATM   18  C   UNK N   1      28.103  16.448   5.332  0.00  0.00     0.034 A 
ENDBRANCH   1   7
BRANCH   2  19
HETATM   19  N   UNK N   1      31.943  17.205   4.878  0.00  0.00    -0.383 N 
HETATM   20  H   UNK N   1      32.915  17.176   4.718  0.00  0.00     0.157 HD
HETATM   21  H   UNK N   1      31.339  17.129   4.106  0.00  0.00     0.157 HD
ENDBRANCH   2  19
BRANCH   3  22
HETATM   22  C   UNK N   1      33.523  17.373   7.585  0.00  0.00     0.213 C 
HETATM   23  O   UNK N   1      34.298  18.053   6.930  0.00  0.00    -0.285 OA
BRANCH  22  24
HETATM   24  C   UNK N   1      33.994  16.498   8.664  0.00  0.00     0.085 A 
HETATM   25  C   UNK N   1      33.902  15.109   8.757  0.00  0.00     0.047 A 
HETATM   26  C   UNK N   1      34.537  14.818   9.953  0.00  0.00    -0.007 A 
HETATM   27  C   UNK N   1      34.798  13.603  10.577  0.00  0.00     0.014 A 
HETATM   28  C   UNK N   1      34.939  15.995  10.514  0.00  0.00     0.043 A 
HETATM   29  C   UNK N   1      35.487  13.634  11.808  0.00  0.00     0.001 A 
HETATM   30  C   UNK N   1      35.885  14.864  12.383  0.00  0.00     0.002 A 
HETATM   31  C   UNK N   1      35.609  16.069  11.725  0.00  0.00     0.030 A 
HETATM   32  N   UNK N   1      34.617  17.020   9.743  0.00  0.00    -0.352 N 
HETATM   33  H   UNK N   1      34.796  17.973   9.919  0.00  0.00     0.166 HD
ENDBRANCH  22  24
ENDBRANCH   3  22
TORSDOF 4
ENDMDL
MODEL 7
REMARK VINA RESULT:      -7.8      1.852      8.781
REMARK  4 active torsions:
REMARK  status: ('A' for Active; 'I' for Inactive)
REMARK    1  A    between atoms: C_6  and  N_12 
REMARK    2  A    between atoms: C_13  and  N_29 
REMARK    3  A    between atoms: C_14  and  C_18 
REMARK    4  A    between atoms: C_18  and  C_20 
ROOT
HETATM    1  N   UNK N   1      35.140  15.998   9.310  0.00  0.00    -0.240 N 
HETATM    2  C   UNK N   1      34.595  15.852   8.083  0.00  0.00     0.137 A 
HETATM    3  C   UNK N   1      34.141  17.070   7.666  0.00  0.00     0.079 A 
HETATM    4  C   UNK N   1      34.448  17.948   8.699  0.00  0.00     0.127 A 
HETATM    5  N   UNK N   1      35.049  17.259   9.682  0.00  0.00    -0.302 N 
ATOM      6  HN  UNK N   1      35.380  17.646  10.566  1.00  0.00     0.186 HD
ENDROOT
BRANCH   1   7
HETATM    7  C   UNK N   1      35.639  14.977  10.173  0.00  0.00     0.060 A 
HETATM    8  C   UNK N   1      35.049  14.786  11.431  0.00  0.00     0.063 A 
HETATM    9  C   UNK N   1      35.705  13.975  12.327  0.00  0.00     0.062 A 
HETATM   10  N   UNK N   1      35.377  13.753  13.602  0.00  0.00    -0.344 N 
HETATM   11  C   UNK N   1      36.878  13.359  12.030  0.00  0.00     0.060 A 
HETATM   12  C   UNK N   1      36.394  12.989  14.062  0.00  0.00     0.078 A 
HETATM   13  H   UNK N   1      34.583  14.069  14.092  0.00  0.00     0.167 HD
HETATM   14  C   UNK N   1      36.505  12.557  15.477  0.00  0.00     0.089 C 
HETATM   15  N   UNK N   1      37.335  12.723  13.117  0.00  0.00    -0.344 N 
ATOM     16  HN  UNK N   1      38.187  12.171  13.214  1.00  0.00     0.167 HD
HETATM   17  C   UNK N   1      37.478  13.470  10.781  0.00  0.00     0.034 A 
HETATM   18  C   UNK N   1      36.847  14.304   9.842  0.00  0.00     0.034 A 
ENDBRANCH   1   7
BRANCH   2  19
HETATM   19  N   UNK N   1      34.509  14.644   7.359  0.00  0.00    -0.383 N 
HETATM   20  H   UNK N   1      35.028  13.840   7.593  0.00  0.00     0.157 HD
HETATM   21  H   UNK N   1      33.903  14.603   6.586  0.00  0.00     0.157 HD
ENDBRANCH   2  19
BRANCH   3  22
HETATM   22  C   UNK N   1      33.439  17.443   6.423  0.00  0.00     0.213 C 
HETATM   23  O   UNK N   1      34.048  17.834   5.438  0.00  0.00    -0.285 OA
BRANCH  22  24
HETATM   24  C   UNK N   1      31.979  17.305   6.417  0.00  0.00     0.085 A 
HETATM   25  C   UNK N   1      31.108  17.248   7.506  0.00  0.00     0.047 A 
HETATM   26  C   UNK N   1      29.856  17.156   6.920  0.00  0.00    -0.007 A 
HETATM   27  C   UNK N   1      28.585  17.104   7.483  0.00  0.00     0.014 A 
HETATM   28  C   UNK N   1      30.025  17.134   5.567  0.00  0.00     0.043 A 
HETATM   29  C   UNK N   1      27.484  17.022   6.604  0.00  0.00     0.001 A 
HETATM   30  C   UNK N   1      27.677  16.986   5.204  0.00  0.00     0.002 A 
HETATM   31  C   UNK N   1      28.971  17.045   4.670  0.00  0.00     0.030 A 
HETATM   32  N   UNK N   1      31.306  17.224   5.248  0.00  0.00    -0.352 N 
HETATM   33  H   UNK N   1      31.692  17.232   4.342  0.00  0.00     0.166 HD
ENDBRANCH  22  24
ENDBRANCH   3  22
TORSDOF 4
ENDMDL
MODEL 8
REMARK VINA RESULT:      -7.7      7.712     14.711
REMARK  4 active torsions:
REMARK  status: ('A' for Active; 'I' for Inactive)
REMARK    1  A    between atoms: C_6  and  N_12 
REMARK    2  A    between atoms: C_13  and  N_29 
REMARK    3  A    between atoms: C_14  and  C_18 
REMARK    4  A    between atoms: C_18  and  C_20 
ROOT
HETATM    1  N   UNK N   1      24.850  19.606   4.010  0.00  0.00    -0.240 N 
HETATM    2  C   UNK N   1      23.647  19.072   4.317  0.00  0.00     0.137 A 
HETATM    3  C   UNK N   1      22.706  19.637   3.505  0.00  0.00     0.079 A 
HETATM    4  C   UNK N   1      23.406  20.525   2.697  0.00  0.00     0.127 A 
HETATM    5  N   UNK N   1      24.704  20.482   3.037  0.00  0.00    -0.302 N 
ATOM      6  HN  UNK N   1      25.450  21.033   2.613  1.00  0.00     0.186 HD
ENDROOT
BRANCH   1   7
HETATM    7  C   UNK N   1      26.095  19.394   4.673  0.00  0.00     0.060 A 
HETATM    8  C   UNK N   1      26.886  18.292   4.320  0.00  0.00     0.063 A 
HETATM    9  C   UNK N   1      27.945  17.977   5.139  0.00  0.00     0.062 A 
HETATM   10  N   UNK N   1      28.747  16.913   5.047  0.00  0.00    -0.344 N 
HETATM   11  C   UNK N   1      28.245  18.695   6.251  0.00  0.00     0.060 A 
HETATM   12  C   UNK N   1      29.533  17.014   6.144  0.00  0.00     0.078 A 
HETATM   13  H   UNK N   1      28.763  16.220   4.348  0.00  0.00     0.167 HD
HETATM   14  C   UNK N   1      30.541  15.989   6.512  0.00  0.00     0.089 C 
HETATM   15  N   UNK N   1      29.254  18.104   6.905  0.00  0.00    -0.344 N 
ATOM     16  HN  UNK N   1      29.704  18.401   7.771  1.00  0.00     0.167 HD
HETATM   17  C   UNK N   1      27.528  19.828   6.618  0.00  0.00     0.034 A 
HETATM   18  C   UNK N   1      26.427  20.174   5.815  0.00  0.00     0.034 A 
ENDBRANCH   1   7
BRANCH   2  19
HETATM   19  N   UNK N   1      23.408  18.099   5.310  0.00  0.00    -0.383 N 
HETATM   20  H   UNK N   1      23.586  18.252   6.266  0.00  0.00     0.157 HD
HETATM   21  H   UNK N   1      23.046  17.227   5.034  0.00  0.00     0.157 HD
ENDBRANCH   2  19
BRANCH   3  22
HETATM   22  C   UNK N   1      21.246  19.426   3.461  0.00  0.00     0.213 C 
HETATM   23  O   UNK N   1      20.469  20.236   3.945  0.00  0.00    -0.285 OA
BRANCH  22  24
HETATM   24  C   UNK N   1      20.770  18.209   2.796  0.00  0.00     0.085 A 
HETATM   25  C   UNK N   1      20.763  16.901   3.280  0.00  0.00     0.047 A 
HETATM   26  C   UNK N   1      20.173  16.176   2.258  0.00  0.00    -0.007 A 
HETATM   27  C   UNK N   1      19.855  14.825   2.161  0.00  0.00     0.014 A 
HETATM   28  C   UNK N   1      19.890  17.038   1.239  0.00  0.00     0.043 A 
HETATM   29  C   UNK N   1      19.237  14.383   0.971  0.00  0.00     0.001 A 
HETATM   30  C   UNK N   1      18.964  15.287  -0.081  0.00  0.00     0.002 A 
HETATM   31  C   UNK N   1      19.294  16.642   0.052  0.00  0.00     0.030 A 
HETATM   32  N   UNK N   1      20.246  18.273   1.552  0.00  0.00    -0.352 N 
HETATM   33  H   UNK N   1      20.149  19.077   0.991  0.00  0.00     0.166 HD
ENDBRANCH  22  24
ENDBRANCH   3  22
TORSDOF 4
ENDMDL
MODEL 9
REMARK VINA RESULT:      -7.6      2.726      9.912
REMARK  4 active torsions:
REMARK  status: ('A' for Active; 'I' for Inactive)
REMARK    1  A    between atoms: C_6  and  N_12 
REMARK    2  A    between atoms: C_13  and  N_29 
REMARK    3  A    between atoms: C_14  and  C_18 
REMARK    4  A    between atoms: C_18  and  C_20 
ROOT
HETATM    1  N   UNK N   1      36.011  12.903  13.964  0.00  0.00    -0.240 N 
HETATM    2  C   UNK N   1      35.196  12.471  12.976  0.00  0.00     0.137 A 
HETATM    3  C   UNK N   1      35.507  13.150  11.834  0.00  0.00     0.079 A 
HETATM    4  C   UNK N   1      36.549  14.001  12.185  0.00  0.00     0.127 A 
HETATM    5  N   UNK N   1      36.823  13.826  13.488  0.00  0.00    -0.302 N 
ATOM      6  HN  UNK N   1      37.539  14.322  14.019  1.00  0.00     0.186 HD
ENDROOT
BRANCH   1   7
HETATM    7  C   UNK N   1      35.971  12.553  15.346  0.00  0.00     0.060 A 
HETATM    8  C   UNK N   1      36.463  11.306  15.757  0.00  0.00     0.063 A 
HETATM    9  C   UNK N   1      36.184  10.901  17.040  0.00  0.00     0.062 A 
HETATM   10  N   UNK N   1      36.459   9.715  17.589  0.00  0.00    -0.344 N 
HETATM   11  C   UNK N   1      35.470  11.664  17.907  0.00  0.00     0.060 A 
HETATM   12  C   UNK N   1      35.881   9.790  18.810  0.00  0.00     0.078 A 
HETATM   13  H   UNK N   1      36.963   8.965  17.199  0.00  0.00     0.167 HD
HETATM   14  C   UNK N   1      35.856   8.652  19.763  0.00  0.00     0.089 C 
HETATM   15  N   UNK N   1      35.266  10.980  19.041  0.00  0.00    -0.344 N 
ATOM     16  HN  UNK N   1      34.767  11.280  19.878  1.00  0.00     0.167 HD
HETATM   17  C   UNK N   1      35.005  12.931  17.570  0.00  0.00     0.034 A 
HETATM   18  C   UNK N   1      35.255  13.375  16.260  0.00  0.00     0.034 A 
ENDBRANCH   1   7
BRANCH   2  19
HETATM   19  N   UNK N   1      34.195  11.487  13.108  0.00  0.00    -0.383 N 
HETATM   20  H   UNK N   1      33.486  11.347  12.438  0.00  0.00     0.157 HD
HETATM   21  H   UNK N   1      34.204  10.912  13.906  0.00  0.00     0.157 HD
ENDBRANCH   2  19
BRANCH   3  22
HETATM   22  C   UNK N   1      34.894  13.076  10.493  0.00  0.00     0.213 C 
HETATM   23  O   UNK N   1      34.765  12.011   9.908  0.00  0.00    -0.285 OA
BRANCH  22  24
HETATM   24  C   UNK N   1      34.433  14.337   9.903  0.00  0.00     0.085 A 
HETATM   25  C   UNK N   1      35.194  15.426   9.476  0.00  0.00     0.047 A 
HETATM   26  C   UNK N   1      34.251  16.309   8.975  0.00  0.00    -0.007 A 
HETATM   27  C   UNK N   1      34.394  17.555   8.376  0.00  0.00     0.014 A 
HETATM   28  C   UNK N   1      33.019  15.749   9.143  0.00  0.00     0.043 A 
HETATM   29  C   UNK N   1      33.221  18.217   7.954  0.00  0.00     0.001 A 
HETATM   30  C   UNK N   1      31.950  17.628   8.147  0.00  0.00     0.002 A 
HETATM   31  C   UNK N   1      31.843  16.369   8.751  0.00  0.00     0.030 A 
HETATM   32  N   UNK N   1      33.114  14.554   9.703  0.00  0.00    -0.352 N 
HETATM   33  H   UNK N   1      32.374  13.945   9.928  0.00  0.00     0.166 HD
ENDBRANCH  22  24
ENDBRANCH   3  22
TORSDOF 4
ENDMDL
