MODEL 1
REMARK VINA RESULT:      -5.3      0.000      0.000
REMARK  1 active torsions:
REMARK  status: ('A' for Active; 'I' for Inactive)
REMARK    1  A    between atoms: C_3  and  N_11 
ROOT
HETATM    1  C   UNK N   1      32.401  16.959   3.154  0.00  0.00     0.005 A 
HETATM    2  C   UNK N   1      31.090  16.876   3.627  0.00  0.00     0.032 A 
HETATM    3  C   UNK N   1      30.795  17.062   4.991  0.00  0.00     0.067 A 
HETATM    4  C   UNK N   1      31.873  17.344   5.881  0.00  0.00     0.128 A 
HETATM    5  C   UNK N   1      33.183  17.423   5.392  0.00  0.00     0.104 A 
HETATM    6  C   UNK N   1      33.444  17.231   4.037  0.00  0.00     0.040 A 
HETATM    7  O   UNK N   1      34.204  17.689   6.233  0.00  0.00    -0.346 OA
HETATM    8  C   UNK N   1      34.068  17.897   7.594  0.00  0.00     0.202 A 
HETATM    9  C   UNK N   1      32.630  17.823   8.137  0.00  0.00     0.202 A 
HETATM   10  O   UNK N   1      31.654  17.540   7.198  0.00  0.00    -0.344 OA
ENDROOT
BRANCH   3  11
HETATM   11  N   UNK N   1      29.427  16.967   5.439  0.00  0.00    -0.376 N 
HETATM   12  C   UNK N   1      28.654  18.174   5.704  0.00  0.00     0.142 C 
HETATM   13  C   UNK N   1      27.156  17.923   5.717  0.00  0.00     0.133 C 
HETATM   14  N   UNK N   1      26.869  16.817   6.612  0.00  0.00    -0.418 N 
HETATM   15  C   UNK N   1      27.376  15.624   5.951  0.00  0.00     0.133 C 
HETATM   16  H   UNK N   1      26.406  16.866   7.519  0.00  0.00     0.153 HD
HETATM   17  C   UNK N   1      28.904  15.663   5.847  0.00  0.00     0.142 C 
ENDBRANCH   3  11
TORSDOF 1
ENDMDL
MODEL 2
REMARK VINA RESULT:      -5.3      8.819     10.998
REMARK  1 active torsions:
REMARK  status: ('A' for Active; 'I' for Inactive)
REMARK    1  A    between atoms: C_3  and  N_11 
ROOT
HETATM    1  C   UNK N   1      33.819  10.453  13.337  0.00  0.00     0.005 A 
HETATM    2  C   UNK N   1      34.616  11.161  12.436  0.00  0.00     0.032 A 
HETATM    3  C   UNK N   1      35.425  12.231  12.864  0.00  0.00     0.067 A 
HETATM    4  C   UNK N   1      35.413  12.572  14.248  0.00  0.00     0.128 A 
HETATM    5  C   UNK N   1      34.607  11.853  15.141  0.00  0.00     0.104 A 
HETATM    6  C   UNK N   1      33.814  10.801  14.686  0.00  0.00     0.040 A 
HETATM    7  O   UNK N   1      34.594  12.175  16.451  0.00  0.00    -0.346 OA
HETATM    8  C   UNK N   1      35.336  13.196  17.017  0.00  0.00     0.202 A 
HETATM    9  C   UNK N   1      36.233  13.983  16.045  0.00  0.00     0.202 A 
HETATM   10  O   UNK N   1      36.172  13.582  14.722  0.00  0.00    -0.344 OA
ENDROOT
BRANCH   3  11
HETATM   11  N   UNK N   1      36.234  12.938  11.900  0.00  0.00    -0.376 N 
HETATM   12  C   UNK N   1      37.632  12.576  11.708  0.00  0.00     0.142 C 
HETATM   13  C   UNK N   1      38.193  13.077  10.388  0.00  0.00     0.133 C 
HETATM   14  N   UNK N   1      37.917  14.496  10.264  0.00  0.00    -0.418 N 
HETATM   15  C   UNK N   1      36.482  14.609  10.052  0.00  0.00     0.133 C 
HETATM   16  H   UNK N   1      38.592  15.259  10.316  0.00  0.00     0.153 HD
HETATM   17  C   UNK N   1      35.708  14.162  11.296  0.00  0.00     0.142 C 
ENDBRANCH   3  11
TORSDOF 1
ENDMDL
MODEL 3
REMARK VINA RESULT:      -5.2      2.799      5.634
REMARK  1 active torsions:
REMARK  status: ('A' for Active; 'I' for Inactive)
REMARK    1  A    between atoms: C_3  and  N_11 
ROOT
HETATM    1  C   UNK N   1      28.772  18.596   9.047  0.00  0.00     0.005 A 
HETATM    2  C   UNK N   1      30.074  18.137   9.252  0.00  0.00     0.032 A 
HETATM    3  C   UNK N   1      30.807  17.538   8.210  0.00  0.00     0.067 A 
HETATM    4  C   UNK N   1      30.185  17.416   6.932  0.00  0.00     0.128 A 
HETATM    5  C   UNK N   1      28.877  17.881   6.742  0.00  0.00     0.104 A 
HETATM    6  C   UNK N   1      28.176  18.467   7.795  0.00  0.00     0.040 A 
HETATM    7  O   UNK N   1      28.287  17.767   5.535  0.00  0.00    -0.346 OA
HETATM    8  C   UNK N   1      28.882  17.205   4.419  0.00  0.00     0.202 A 
HETATM    9  C   UNK N   1      30.323  16.702   4.617  0.00  0.00     0.202 A 
HETATM   10  O   UNK N   1      30.838  16.859   5.891  0.00  0.00    -0.344 OA
ENDROOT
BRANCH   3  11
HETATM   11  N   UNK N   1      32.150  17.075   8.463  0.00  0.00    -0.376 N 
HETATM   12  C   UNK N   1      33.293  17.915   8.129  0.00  0.00     0.142 C 
HETATM   13  C   UNK N   1      34.561  17.499   8.855  0.00  0.00     0.133 C 
HETATM   14  N   UNK N   1      34.779  16.079   8.651  0.00  0.00    -0.418 N 
HETATM   15  C   UNK N   1      33.747  15.399   9.418  0.00  0.00     0.133 C 
HETATM   16  H   UNK N   1      35.507  15.646   8.083  0.00  0.00     0.153 HD
HETATM   17  C   UNK N   1      32.358  15.675   8.834  0.00  0.00     0.142 C 
ENDBRANCH   3  11
TORSDOF 1
ENDMDL
MODEL 4
REMARK VINA RESULT:      -5.2      2.743      5.033
REMARK  1 active torsions:
REMARK  status: ('A' for Active; 'I' for Inactive)
REMARK    1  A    between atoms: C_3  and  N_11 
ROOT
HETATM    1  C   UNK N   1      33.041  17.192   4.288  0.00  0.00     0.005 A 
HETATM    2  C   UNK N   1      33.551  16.831   5.535  0.00  0.00     0.032 A 
HETATM    3  C   UNK N   1      32.726  16.789   6.675  0.00  0.00     0.067 A 
HETATM    4  C   UNK N   1      31.348  17.121   6.521  0.00  0.00     0.128 A 
HETATM    5  C   UNK N   1      30.850  17.483   5.263  0.00  0.00     0.104 A 
HETATM    6  C   UNK N   1      31.693  17.519   4.154  0.00  0.00     0.040 A 
HETATM    7  O   UNK N   1      29.547  17.799   5.115  0.00  0.00    -0.346 OA
HETATM    8  C   UNK N   1      28.618  17.799   6.140  0.00  0.00     0.202 A 
HETATM    9  C   UNK N   1      29.154  17.392   7.524  0.00  0.00     0.202 A 
HETATM   10  O   UNK N   1      30.504  17.092   7.574  0.00  0.00    -0.344 OA
ENDROOT
BRANCH   3  11
HETATM   11  N   UNK N   1      33.293  16.411   7.947  0.00  0.00    -0.376 N 
HETATM   12  C   UNK N   1      32.953  15.129   8.552  0.00  0.00     0.142 C 
HETATM   13  C   UNK N   1      33.949  14.698   9.615  0.00  0.00     0.133 C 
HETATM   14  N   UNK N   1      34.129  15.782  10.563  0.00  0.00    -0.418 N 
HETATM   15  C   UNK N   1      34.863  16.819   9.855  0.00  0.00     0.133 C 
HETATM   16  H   UNK N   1      33.805  15.811  11.530  0.00  0.00     0.153 HD
HETATM   17  C   UNK N   1      34.016  17.416   8.726  0.00  0.00     0.142 C 
ENDBRANCH   3  11
TORSDOF 1
ENDMDL
MODEL 5
REMARK VINA RESULT:      -5.0     13.122     14.321
REMARK  1 active torsions:
REMARK  status: ('A' for Active; 'I' for Inactive)
REMARK    1  A    between atoms: C_3  and  N_11 
ROOT
HETATM    1  C   UNK N   1      25.125  26.185  -5.740  0.00  0.00     0.005 A 
HETATM    2  C   UNK N   1      26.122  25.351  -5.233  0.00  0.00     0.032 A 
HETATM    3  C   UNK N   1      27.098  25.840  -4.343  0.00  0.00     0.067 A 
HETATM    4  C   UNK N   1      27.038  27.214  -3.967  0.00  0.00     0.128 A 
HETATM    5  C   UNK N   1      26.032  28.040  -4.485  0.00  0.00     0.104 A 
HETATM    6  C   UNK N   1      25.082  27.527  -5.367  0.00  0.00     0.040 A 
HETATM    7  O   UNK N   1      25.974  29.340  -4.131  0.00  0.00    -0.346 OA
HETATM    8  C   UNK N   1      26.859  29.959  -3.266  0.00  0.00     0.202 A 
HETATM    9  C   UNK N   1      27.960  29.057  -2.684  0.00  0.00     0.202 A 
HETATM   10  O   UNK N   1      27.939  27.741  -3.112  0.00  0.00    -0.344 OA
ENDROOT
BRANCH   3  11
HETATM   11  N   UNK N   1      28.113  24.945  -3.842  0.00  0.00    -0.376 N 
HETATM   12  C   UNK N   1      29.460  24.976  -4.398  0.00  0.00     0.142 C 
HETATM   13  C   UNK N   1      30.488  24.329  -3.485  0.00  0.00     0.133 C 
HETATM   14  N   UNK N   1      30.022  23.006  -3.110  0.00  0.00    -0.418 N 
HETATM   15  C   UNK N   1      28.898  23.215  -2.210  0.00  0.00     0.133 C 
HETATM   16  H   UNK N   1      30.405  22.112  -3.417  0.00  0.00     0.153 HD
HETATM   17  C   UNK N   1      27.718  23.857  -2.947  0.00  0.00     0.142 C 
ENDBRANCH   3  11
TORSDOF 1
ENDMDL
MODEL 6
REMARK VINA RESULT:      -5.0     15.027     16.248
REMARK  1 active torsions:
REMARK  status: ('A' for Active; 'I' for Inactive)
REMARK    1  A    between atoms: C_3  and  N_11 
ROOT
HETATM    1  C   UNK N   1      26.022  25.968  -9.764  0.00  0.00     0.005 A 
HETATM    2  C   UNK N   1      26.174  26.452  -8.464  0.00  0.00     0.032 A 
HETATM    3  C   UNK N   1      25.983  25.616  -7.348  0.00  0.00     0.067 A 
HETATM    4  C   UNK N   1      25.634  24.252  -7.580  0.00  0.00     0.128 A 
HETATM    5  C   UNK N   1      25.484  23.781  -8.891  0.00  0.00     0.104 A 
HETATM    6  C   UNK N   1      25.676  24.635  -9.975  0.00  0.00     0.040 A 
HETATM    7  O   UNK N   1      25.153  22.491  -9.113  0.00  0.00    -0.346 OA
HETATM    8  C   UNK N   1      24.937  21.553  -8.119  0.00  0.00     0.202 A 
HETATM    9  C   UNK N   1      25.112  22.061  -6.677  0.00  0.00     0.202 A 
HETATM   10  O   UNK N   1      25.446  23.398  -6.553  0.00  0.00    -0.344 OA
ENDROOT
BRANCH   3  11
HETATM   11  N   UNK N   1      26.149  26.155  -6.021  0.00  0.00    -0.376 N 
HETATM   12  C   UNK N   1      27.269  25.733  -5.189  0.00  0.00     0.142 C 
HETATM   13  C   UNK N   1      27.554  26.699  -4.051  0.00  0.00     0.133 C 
HETATM   14  N   UNK N   1      26.324  26.947  -3.322  0.00  0.00    -0.418 N 
HETATM   15  C   UNK N   1      25.488  27.747  -4.203  0.00  0.00     0.133 C 
HETATM   16  H   UNK N   1      26.093  26.625  -2.382  0.00  0.00     0.153 HD
HETATM   17  C   UNK N   1      25.063  26.942  -5.435  0.00  0.00     0.142 C 
ENDBRANCH   3  11
TORSDOF 1
ENDMDL
MODEL 7
REMARK VINA RESULT:      -5.0      3.494      5.883
REMARK  1 active torsions:
REMARK  status: ('A' for Active; 'I' for Inactive)
REMARK    1  A    between atoms: C_3  and  N_11 
ROOT
HETATM    1  C   UNK N   1      27.361  19.722   4.170  0.00  0.00     0.005 A 
HETATM    2  C   UNK N   1      28.177  19.476   5.276  0.00  0.00     0.032 A 
HETATM    3  C   UNK N   1      27.982  18.342   6.087  0.00  0.00     0.067 A 
HETATM    4  C   UNK N   1      26.929  17.443   5.746  0.00  0.00     0.128 A 
HETATM    5  C   UNK N   1      26.117  17.704   4.634  0.00  0.00     0.104 A 
HETATM    6  C   UNK N   1      26.333  18.837   3.853  0.00  0.00     0.040 A 
HETATM    7  O   UNK N   1      25.120  16.855   4.310  0.00  0.00    -0.346 OA
HETATM    8  C   UNK N   1      24.811  15.702   5.009  0.00  0.00     0.202 A 
HETATM    9  C   UNK N   1      25.705  15.403   6.226  0.00  0.00     0.202 A 
HETATM   10  O   UNK N   1      26.696  16.335   6.479  0.00  0.00    -0.344 OA
ENDROOT
BRANCH   3  11
HETATM   11  N   UNK N   1      28.846  18.125   7.222  0.00  0.00    -0.376 N 
HETATM   12  C   UNK N   1      30.026  17.278   7.096  0.00  0.00     0.142 C 
HETATM   13  C   UNK N   1      31.041  17.516   8.201  0.00  0.00     0.133 C 
HETATM   14  N   UNK N   1      30.372  17.429   9.486  0.00  0.00    -0.418 N 
HETATM   15  C   UNK N   1      29.530  18.611   9.582  0.00  0.00     0.133 C 
HETATM   16  H   UNK N   1      30.472  16.689  10.180  0.00  0.00     0.153 HD
HETATM   17  C   UNK N   1      28.403  18.566   8.544  0.00  0.00     0.142 C 
ENDBRANCH   3  11
TORSDOF 1
ENDMDL
MODEL 8
REMARK VINA RESULT:      -4.9      3.618      4.898
REMARK  1 active torsions:
REMARK  status: ('A' for Active; 'I' for Inactive)
REMARK    1  A    between atoms: C_3  and  N_11 
ROOT
HETATM    1  C   UNK N   1      27.030  20.667   4.530  0.00  0.00     0.005 A 
HETATM    2  C   UNK N   1      27.193  19.483   3.810  0.00  0.00     0.032 A 
HETATM    3  C   UNK N   1      27.595  18.293   4.447  0.00  0.00     0.067 A 
HETATM    4  C   UNK N   1      27.827  18.327   5.854  0.00  0.00     0.128 A 
HETATM    5  C   UNK N   1      27.660  19.524   6.563  0.00  0.00     0.104 A 
HETATM    6  C   UNK N   1      27.265  20.686   5.903  0.00  0.00     0.040 A 
HETATM    7  O   UNK N   1      27.879  19.559   7.893  0.00  0.00    -0.346 OA
HETATM    8  C   UNK N   1      28.273  18.472   8.654  0.00  0.00     0.202 A 
HETATM    9  C   UNK N   1      28.448  17.151   7.884  0.00  0.00     0.202 A 
HETATM   10  O   UNK N   1      28.206  17.219   6.523  0.00  0.00    -0.344 OA
ENDROOT
BRANCH   3  11
HETATM   11  N   UNK N   1      27.754  17.090   3.667  0.00  0.00    -0.376 N 
HETATM   12  C   UNK N   1      29.070  16.695   3.182  0.00  0.00     0.142 C 
HETATM   13  C   UNK N   1      29.139  15.228   2.793  0.00  0.00     0.133 C 
HETATM   14  N   UNK N   1      28.049  14.928   1.884  0.00  0.00    -0.418 N 
HETATM   15  C   UNK N   1      26.834  14.978   2.682  0.00  0.00     0.133 C 
HETATM   16  H   UNK N   1      28.120  14.723   0.888  0.00  0.00     0.153 HD
HETATM   17  C   UNK N   1      26.560  16.404   3.172  0.00  0.00     0.142 C 
ENDBRANCH   3  11
TORSDOF 1
ENDMDL
MODEL 9
REMARK VINA RESULT:      -4.9      2.277      3.864
REMARK  1 active torsions:
REMARK  status: ('A' for Active; 'I' for Inactive)
REMARK    1  A    between atoms: C_3  and  N_11 
ROOT
HETATM    1  C   UNK N   1      28.982  18.325   9.282  0.00  0.00     0.005 A 
HETATM    2  C   UNK N   1      28.193  18.650   8.177  0.00  0.00     0.032 A 
HETATM    3  C   UNK N   1      28.557  18.244   6.879  0.00  0.00     0.067 A 
HETATM    4  C   UNK N   1      29.753  17.484   6.720  0.00  0.00     0.128 A 
HETATM    5  C   UNK N   1      30.534  17.166   7.839  0.00  0.00     0.104 A 
HETATM    6  C   UNK N   1      30.150  17.586   9.111  0.00  0.00     0.040 A 
HETATM    7  O   UNK N   1      31.667  16.448   7.691  0.00  0.00    -0.346 OA
HETATM    8  C   UNK N   1      32.148  15.979   6.482  0.00  0.00     0.202 A 
HETATM    9  C   UNK N   1      31.289  16.314   5.250  0.00  0.00     0.202 A 
HETATM   10  O   UNK N   1      30.151  17.059   5.503  0.00  0.00    -0.344 OA
ENDROOT
BRANCH   3  11
HETATM   11  N   UNK N   1      27.715  18.601   5.762  0.00  0.00    -0.376 N 
HETATM   12  C   UNK N   1      27.733  19.959   5.232  0.00  0.00     0.142 C 
HETATM   13  C   UNK N   1      27.166  20.048   3.825  0.00  0.00     0.133 C 
HETATM   14  N   UNK N   1      25.863  19.410   3.799  0.00  0.00    -0.418 N 
HETATM   15  C   UNK N   1      26.110  17.984   3.941  0.00  0.00     0.133 C 
HETATM   16  H   UNK N   1      24.958  19.869   3.701  0.00  0.00     0.153 HD
HETATM   17  C   UNK N   1      26.681  17.662   5.326  0.00  0.00     0.142 C 
ENDBRANCH   3  11
TORSDOF 1
ENDMDL
