MODEL 1
REMARK VINA RESULT:     -10.4      0.000      0.000
REMARK  0 active torsions:
REMARK  status: ('A' for Active; 'I' for Inactive)
ROOT
HETATM    1  C   UNK N   1      23.872  26.397 -12.139  0.00  0.00     0.001 A 
HETATM    2  C   UNK N   1      24.289  25.412 -13.062  0.00  0.00     0.001 A 
HETATM    3  C   UNK N   1      25.763  28.393  -4.258  0.00  0.00     0.001 A 
HETATM    4  C   UNK N   1      26.678  27.918  -3.292  0.00  0.00     0.001 A 
HETATM    5  C   UNK N   1      29.186  18.697 -12.551  0.00  0.00     0.001 A 
HETATM    6  C   UNK N   1      30.087  18.177 -11.594  0.00  0.00     0.001 A 
HETATM    7  C   UNK N   1      31.644  21.293  -2.955  0.00  0.00     0.001 A 
HETATM    8  C   UNK N   1      32.032  20.280  -3.862  0.00  0.00     0.001 A 
HETATM    9  C   UNK N   1      24.278  26.330 -10.794  0.00  0.00     0.016 A 
HETATM   10  C   UNK N   1      25.116  24.351 -12.648  0.00  0.00     0.016 A 
HETATM   11  C   UNK N   1      25.554  27.679  -5.452  0.00  0.00     0.016 A 
HETATM   12  C   UNK N   1      27.389  26.724  -3.510  0.00  0.00     0.016 A 
HETATM   13  C   UNK N   1      28.404  19.828 -12.254  0.00  0.00     0.016 A 
HETATM   14  C   UNK N   1      30.208  18.784 -10.330  0.00  0.00     0.016 A 
HETATM   15  C   UNK N   1      30.698  22.263  -3.334  0.00  0.00     0.016 A 
HETATM   16  C   UNK N   1      31.475  20.230  -5.154  0.00  0.00     0.016 A 
HETATM   17  C   UNK N   1      25.094  25.267 -10.415  0.00  0.00     0.022 A 
HETATM   18  C   UNK N   1      25.496  24.314 -11.308  0.00  0.00     0.022 A 
HETATM   19  C   UNK N   1      26.272  26.501  -5.639  0.00  0.00     0.022 A 
HETATM   20  C   UNK N   1      27.155  26.041  -4.701  0.00  0.00     0.022 A 
HETATM   21  C   UNK N   1      28.547  20.405 -10.994  0.00  0.00     0.022 A 
HETATM   22  C   UNK N   1      29.417  19.898 -10.068  0.00  0.00     0.022 A 
HETATM   23  C   UNK N   1      30.166  22.181  -4.618  0.00  0.00     0.022 A 
HETATM   24  C   UNK N   1      30.540  21.205  -5.493  0.00  0.00     0.022 A 
HETATM   25  C   UNK N   1      25.717  24.939  -9.130  0.00  0.00     0.119 A 
HETATM   26  C   UNK N   1      26.359  23.419 -10.564  0.00  0.00     0.119 A 
HETATM   27  C   UNK N   1      26.315  25.562  -6.762  0.00  0.00     0.119 A 
HETATM   28  C   UNK N   1      27.900  21.569 -10.383  0.00  0.00     0.119 A 
HETATM   29  C   UNK N   1      27.726  24.832  -5.262  0.00  0.00     0.119 A 
HETATM   30  C   UNK N   1      29.288  20.751  -8.904  0.00  0.00     0.119 A 
HETATM   31  C   UNK N   1      29.241  22.966  -5.269  0.00  0.00     0.119 A 
HETATM   32  C   UNK N   1      29.833  21.416  -6.654  0.00  0.00     0.119 A 
HETATM   33  N   UNK N   1      26.452  23.881  -9.224  0.00  0.00    -0.327 N 
ATOM     34  HN  UNK N   1      26.999  23.457  -8.475  1.00  0.00     0.169 HD
HETATM   35  N   UNK N   1      27.159  24.611  -6.544  0.00  0.00    -0.327 N 
ATOM     36  HN  UNK N   1      27.378  23.841  -7.178  1.00  0.00     0.169 HD
HETATM   37  N   UNK N   1      28.333  21.766  -9.180  0.00  0.00    -0.327 N 
ATOM     38  HN  UNK N   1      28.042  22.510  -8.547  1.00  0.00     0.169 HD
HETATM   39  N   UNK N   1      29.027  22.503  -6.528  0.00  0.00    -0.327 N 
HETATM   40  N   UNK N   1      25.580  25.735  -7.963  0.00  0.00    -0.327 N 
HETATM   41  N   UNK N   1      26.977  22.408 -11.068  0.00  0.00    -0.327 N 
ATOM     42  HN  UNK N   1      26.788  22.188 -12.046  1.00  0.00     0.169 HD
HETATM   43  N   UNK N   1      28.631  24.112  -4.695  0.00  0.00    -0.327 N 
ATOM     44  HN  UNK N   1      28.934  24.387  -3.761  1.00  0.00     0.169 HD
HETATM   45  N   UNK N   1      29.946  20.598  -7.807  0.00  0.00    -0.327 N 
ATOM     46  HN  UNK N   1      30.605  19.820  -7.763  1.00  0.00     0.169 HD
HETATM   47  H   UNK N   1      28.417  22.875  -7.206  0.00  0.00     0.169 HD
HETATM   48  H   UNK N   1      24.923  26.467  -7.990  0.00  0.00     0.169 HD
ENDROOT
TORSDOF 0
ENDMDL
MODEL 2
REMARK VINA RESULT:     -10.0     13.075     16.394
REMARK  0 active torsions:
REMARK  status: ('A' for Active; 'I' for Inactive)
ROOT
HETATM    1  C   UNK N   1      31.428   8.669   4.706  0.00  0.00     0.001 A 
HETATM    2  C   UNK N   1      30.365   8.214   3.893  0.00  0.00     0.001 A 
HETATM    3  C   UNK N   1      33.521  15.896   8.319  0.00  0.00     0.001 A 
HETATM    4  C   UNK N   1      32.935  17.178   8.420  0.00  0.00     0.001 A 
HETATM    5  C   UNK N   1      23.946  11.942   0.122  0.00  0.00     0.001 A 
HETATM    6  C   UNK N   1      23.352  13.224   0.177  0.00  0.00     0.001 A 
HETATM    7  C   UNK N   1      26.423  20.742   4.737  0.00  0.00     0.001 A 
HETATM    8  C   UNK N   1      25.382  20.300   3.889  0.00  0.00     0.001 A 
HETATM    9  C   UNK N   1      31.566  10.039   4.997  0.00  0.00     0.016 A 
HETATM   10  C   UNK N   1      29.432   9.124   3.364  0.00  0.00     0.016 A 
HETATM   11  C   UNK N   1      32.989  14.937   7.440  0.00  0.00     0.016 A 
HETATM   12  C   UNK N   1      31.812  17.511   7.641  0.00  0.00     0.016 A 
HETATM   13  C   UNK N   1      25.136  11.678   0.825  0.00  0.00     0.016 A 
HETATM   14  C   UNK N   1      23.947  14.252   0.931  0.00  0.00     0.016 A 
HETATM   15  C   UNK N   1      27.439  19.854   5.138  0.00  0.00     0.016 A 
HETATM   16  C   UNK N   1      25.350  18.968   3.435  0.00  0.00     0.016 A 
HETATM   17  C   UNK N   1      30.628  10.914   4.456  0.00  0.00     0.022 A 
HETATM   18  C   UNK N   1      29.601  10.473   3.668  0.00  0.00     0.022 A 
HETATM   19  C   UNK N   1      31.878  15.297   6.681  0.00  0.00     0.022 A 
HETATM   20  C   UNK N   1      31.313  16.538   6.778  0.00  0.00     0.022 A 
HETATM   21  C   UNK N   1      25.699  12.717   1.563  0.00  0.00     0.022 A 
HETATM   22  C   UNK N   1      25.125  13.956   1.611  0.00  0.00     0.022 A 
HETATM   23  C   UNK N   1      27.377  18.545   4.669  0.00  0.00     0.022 A 
HETATM   24  C   UNK N   1      26.373  18.119   3.850  0.00  0.00     0.022 A 
HETATM   25  C   UNK N   1      30.463  12.363   4.601  0.00  0.00     0.119 A 
HETATM   26  C   UNK N   1      28.822  11.650   3.344  0.00  0.00     0.119 A 
HETATM   27  C   UNK N   1      31.075  14.536   5.720  0.00  0.00     0.119 A 
HETATM   28  C   UNK N   1      26.905  12.770   2.395  0.00  0.00     0.119 A 
HETATM   29  C   UNK N   1      30.175  16.522   5.879  0.00  0.00     0.119 A 
HETATM   30  C   UNK N   1      25.984  14.753   2.462  0.00  0.00     0.119 A 
HETATM   31  C   UNK N   1      28.203  17.465   4.879  0.00  0.00     0.119 A 
HETATM   32  C   UNK N   1      26.612  16.792   3.581  0.00  0.00     0.119 A 
HETATM   33  N   UNK N   1      29.417  12.780   3.968  0.00  0.00    -0.327 N 
ATOM     34  HN  UNK N   1      29.080  13.741   3.926  1.00  0.00     0.169 HD
HETATM   35  N   UNK N   1      30.093  15.242   5.270  0.00  0.00    -0.327 N 
ATOM     36  HN  UNK N   1      29.387  14.936   4.599  1.00  0.00     0.169 HD
HETATM   37  N   UNK N   1      27.063  13.945   2.913  0.00  0.00    -0.327 N 
ATOM     38  HN  UNK N   1      27.821  14.237   3.530  1.00  0.00     0.169 HD
HETATM   39  N   UNK N   1      27.741  16.376   4.212  0.00  0.00    -0.327 N 
HETATM   40  N   UNK N   1      31.310  13.175   5.399  0.00  0.00    -0.327 N 
HETATM   41  N   UNK N   1      27.737  11.645   2.650  0.00  0.00    -0.327 N 
ATOM     42  HN  UNK N   1      27.449  10.753   2.247  1.00  0.00     0.169 HD
HETATM   43  N   UNK N   1      29.357  17.500   5.706  0.00  0.00    -0.327 N 
ATOM     44  HN  UNK N   1      29.552  18.369   6.203  1.00  0.00     0.169 HD
HETATM   45  N   UNK N   1      25.783  15.992   2.755  0.00  0.00    -0.327 N 
ATOM     46  HN  UNK N   1      24.956  16.436   2.356  1.00  0.00     0.169 HD
HETATM   47  H   UNK N   1      28.140  15.476   4.190  0.00  0.00     0.169 HD
HETATM   48  H   UNK N   1      32.126  12.760   5.760  0.00  0.00     0.169 HD
ENDROOT
TORSDOF 0
ENDMDL
MODEL 3
REMARK VINA RESULT:      -9.9     13.133     16.206
REMARK  0 active torsions:
REMARK  status: ('A' for Active; 'I' for Inactive)
ROOT
HETATM    1  C   UNK N   1      25.611  20.528   4.500  0.00  0.00     0.001 A 
HETATM    2  C   UNK N   1      26.627  20.905   5.407  0.00  0.00     0.001 A 
HETATM    3  C   UNK N   1      23.512  13.544   0.440  0.00  0.00     0.001 A 
HETATM    4  C   UNK N   1      23.994  12.216   0.405  0.00  0.00     0.001 A 
HETATM    5  C   UNK N   1      33.475  17.170   8.319  0.00  0.00     0.001 A 
HETATM    6  C   UNK N   1      34.002  15.858   8.280  0.00  0.00     0.001 A 
HETATM    7  C   UNK N   1      30.758   8.557   3.492  0.00  0.00     0.001 A 
HETATM    8  C   UNK N   1      31.800   8.944   4.366  0.00  0.00     0.001 A 
HETATM    9  C   UNK N   1      25.662  19.280   3.853  0.00  0.00     0.016 A 
HETATM   10  C   UNK N   1      27.703  20.039   5.673  0.00  0.00     0.016 A 
HETATM   11  C   UNK N   1      24.243  14.551   1.095  0.00  0.00     0.016 A 
HETATM   12  C   UNK N   1      25.213  11.885   1.024  0.00  0.00     0.016 A 
HETATM   13  C   UNK N   1      32.315  17.495   7.593  0.00  0.00     0.016 A 
HETATM   14  C   UNK N   1      33.373  14.863   7.508  0.00  0.00     0.016 A 
HETATM   15  C   UNK N   1      29.767   9.482   3.112  0.00  0.00     0.016 A 
HETATM   16  C   UNK N   1      31.860  10.259   4.864  0.00  0.00     0.016 A 
HETATM   17  C   UNK N   1      26.742  18.447   4.135  0.00  0.00     0.022 A 
HETATM   18  C   UNK N   1      27.725  18.813   5.011  0.00  0.00     0.022 A 
HETATM   19  C   UNK N   1      25.447  14.191   1.698  0.00  0.00     0.022 A 
HETATM   20  C   UNK N   1      25.913  12.906   1.662  0.00  0.00     0.022 A 
HETATM   21  C   UNK N   1      31.717  16.487   6.839  0.00  0.00     0.022 A 
HETATM   22  C   UNK N   1      32.230  15.220   6.799  0.00  0.00     0.022 A 
HETATM   23  C   UNK N   1      29.860  10.774   3.623  0.00  0.00     0.022 A 
HETATM   24  C   UNK N   1      30.865  11.147   4.464  0.00  0.00     0.022 A 
HETATM   25  C   UNK N   1      27.062  17.093   3.675  0.00  0.00     0.119 A 
HETATM   26  C   UNK N   1      28.630  17.684   5.079  0.00  0.00     0.119 A 
HETATM   27  C   UNK N   1      26.409  14.973   2.477  0.00  0.00     0.119 A 
HETATM   28  C   UNK N   1      30.521  16.492   5.992  0.00  0.00     0.119 A 
HETATM   29  C   UNK N   1      27.150  12.918   2.418  0.00  0.00     0.119 A 
HETATM   30  C   UNK N   1      31.351  14.469   5.927  0.00  0.00     0.119 A 
HETATM   31  C   UNK N   1      29.061  11.880   3.442  0.00  0.00     0.119 A 
HETATM   32  C   UNK N   1      30.657  12.471   4.774  0.00  0.00     0.119 A 
HETATM   33  N   UNK N   1      28.143  16.655   4.229  0.00  0.00    -0.327 N 
ATOM     34  HN  UNK N   1      28.569  15.739   4.085  1.00  0.00     0.169 HD
HETATM   35  N   UNK N   1      27.381  14.235   2.896  0.00  0.00    -0.327 N 
ATOM     36  HN  UNK N   1      28.170  14.542   3.467  1.00  0.00     0.169 HD
HETATM   37  N   UNK N   1      30.313  15.326   5.471  0.00  0.00    -0.327 N 
ATOM     38  HN  UNK N   1      29.547  15.070   4.848  1.00  0.00     0.169 HD
HETATM   39  N   UNK N   1      29.543  12.935   4.148  0.00  0.00    -0.327 N 
HETATM   40  N   UNK N   1      26.238  16.346   2.793  0.00  0.00    -0.327 N 
HETATM   41  N   UNK N   1      29.669  17.621   5.837  0.00  0.00    -0.327 N 
ATOM     42  HN  UNK N   1      29.903  18.456   6.374  1.00  0.00     0.169 HD
HETATM   43  N   UNK N   1      27.885  11.887   2.646  0.00  0.00    -0.327 N 
ATOM     44  HN  UNK N   1      27.601  11.003   2.222  1.00  0.00     0.169 HD
HETATM   45  N   UNK N   1      31.501  13.224   5.628  0.00  0.00    -0.327 N 
ATOM     46  HN  UNK N   1      32.297  12.739   6.042  1.00  0.00     0.169 HD
HETATM   47  H   UNK N   1      29.167  13.844   4.196  0.00  0.00     0.169 HD
HETATM   48  H   UNK N   1      25.488  16.818   2.367  0.00  0.00     0.169 HD
ENDROOT
TORSDOF 0
ENDMDL
MODEL 4
REMARK VINA RESULT:      -9.9     13.128     16.335
REMARK  0 active torsions:
REMARK  status: ('A' for Active; 'I' for Inactive)
ROOT
HETATM    1  C   UNK N   1      33.256  17.229   8.548  0.00  0.00     0.001 A 
HETATM    2  C   UNK N   1      33.790  15.921   8.578  0.00  0.00     0.001 A 
HETATM    3  C   UNK N   1      26.666  20.921   4.997  0.00  0.00     0.001 A 
HETATM    4  C   UNK N   1      25.576  20.491   4.206  0.00  0.00     0.001 A 
HETATM    5  C   UNK N   1      31.980   8.833   4.600  0.00  0.00     0.001 A 
HETATM    6  C   UNK N   1      30.920   8.379   3.782  0.00  0.00     0.001 A 
HETATM    7  C   UNK N   1      23.786  13.337   0.425  0.00  0.00     0.001 A 
HETATM    8  C   UNK N   1      24.341  12.037   0.419  0.00  0.00     0.001 A 
HETATM    9  C   UNK N   1      32.199  17.548   7.675  0.00  0.00     0.016 A 
HETATM   10  C   UNK N   1      33.272  14.920   7.735  0.00  0.00     0.016 A 
HETATM   11  C   UNK N   1      27.739  20.051   5.264  0.00  0.00     0.016 A 
HETATM   12  C   UNK N   1      25.552  19.188   3.675  0.00  0.00     0.016 A 
HETATM   13  C   UNK N   1      32.033  10.176   5.019  0.00  0.00     0.016 A 
HETATM   14  C   UNK N   1      29.908   9.267   3.373  0.00  0.00     0.016 A 
HETATM   15  C   UNK N   1      24.402  14.371   1.156  0.00  0.00     0.016 A 
HETATM   16  C   UNK N   1      25.518  11.762   1.140  0.00  0.00     0.016 A 
HETATM   17  C   UNK N   1      31.712  16.536   6.852  0.00  0.00     0.022 A 
HETATM   18  C   UNK N   1      32.229  15.272   6.880  0.00  0.00     0.022 A 
HETATM   19  C   UNK N   1      27.685  18.769   4.723  0.00  0.00     0.022 A 
HETATM   20  C   UNK N   1      26.631  18.355   3.956  0.00  0.00     0.022 A 
HETATM   21  C   UNK N   1      31.016  11.028   4.597  0.00  0.00     0.022 A 
HETATM   22  C   UNK N   1      29.994  10.588   3.802  0.00  0.00     0.022 A 
HETATM   23  C   UNK N   1      25.565  14.063   1.856  0.00  0.00     0.022 A 
HETATM   24  C   UNK N   1      26.101  12.810   1.849  0.00  0.00     0.022 A 
HETATM   25  C   UNK N   1      30.611  16.526   5.884  0.00  0.00     0.119 A 
HETATM   26  C   UNK N   1      31.442  14.505   5.936  0.00  0.00     0.119 A 
HETATM   27  C   UNK N   1      28.601  17.632   4.840  0.00  0.00     0.119 A 
HETATM   28  C   UNK N   1      30.776  12.451   4.855  0.00  0.00     0.119 A 
HETATM   29  C   UNK N   1      26.914  16.974   3.616  0.00  0.00     0.119 A 
HETATM   30  C   UNK N   1      29.147  11.742   3.579  0.00  0.00     0.119 A 
HETATM   31  C   UNK N   1      26.381  14.841   2.646  0.00  0.00     0.119 A 
HETATM   32  C   UNK N   1      27.231  12.853   2.632  0.00  0.00     0.119 A 
HETATM   33  N   UNK N   1      30.454  15.353   5.368  0.00  0.00    -0.327 N 
ATOM     34  HN  UNK N   1      29.749  15.084   4.681  1.00  0.00     0.169 HD
HETATM   35  N   UNK N   1      28.148  16.600   4.210  0.00  0.00    -0.327 N 
ATOM     36  HN  UNK N   1      28.596  15.685   4.150  1.00  0.00     0.169 HD
HETATM   37  N   UNK N   1      29.697  12.857   4.268  0.00  0.00    -0.327 N 
ATOM     38  HN  UNK N   1      29.311  13.801   4.295  1.00  0.00     0.169 HD
HETATM   39  N   UNK N   1      27.414  14.104   3.132  0.00  0.00    -0.327 N 
HETATM   40  N   UNK N   1      29.787  17.651   5.617  0.00  0.00    -0.327 N 
HETATM   41  N   UNK N   1      31.593  13.247   5.706  0.00  0.00    -0.327 N 
ATOM     42  HN  UNK N   1      32.367  12.778   6.176  1.00  0.00     0.169 HD
HETATM   43  N   UNK N   1      26.141  16.212   2.925  0.00  0.00    -0.327 N 
ATOM     44  HN  UNK N   1      25.288  16.625   2.547  1.00  0.00     0.169 HD
HETATM   45  N   UNK N   1      28.072  11.737   2.869  0.00  0.00    -0.327 N 
ATOM     46  HN  UNK N   1      27.802  10.852   2.438  1.00  0.00     0.169 HD
HETATM   47  H   UNK N   1      28.142  14.411   3.720  0.00  0.00     0.169 HD
HETATM   48  H   UNK N   1      30.061  18.513   6.004  0.00  0.00     0.169 HD
ENDROOT
TORSDOF 0
ENDMDL
MODEL 5
REMARK VINA RESULT:      -9.9     12.990     17.153
REMARK  0 active torsions:
REMARK  status: ('A' for Active; 'I' for Inactive)
ROOT
HETATM    1  C   UNK N   1      34.327  15.921   7.247  0.00  0.00     0.001 A 
HETATM    2  C   UNK N   1      33.822  17.241   7.275  0.00  0.00     0.001 A 
HETATM    3  C   UNK N   1      31.957   8.684   3.830  0.00  0.00     0.001 A 
HETATM    4  C   UNK N   1      30.902   8.266   2.987  0.00  0.00     0.001 A 
HETATM    5  C   UNK N   1      26.770  20.805   4.648  0.00  0.00     0.001 A 
HETATM    6  C   UNK N   1      25.684  20.410   3.834  0.00  0.00     0.001 A 
HETATM    7  C   UNK N   1      23.994  11.964   0.291  0.00  0.00     0.001 A 
HETATM    8  C   UNK N   1      23.465  13.273   0.353  0.00  0.00     0.001 A 
HETATM    9  C   UNK N   1      33.555  14.875   6.709  0.00  0.00     0.016 A 
HETATM   10  C   UNK N   1      32.541  17.526   6.766  0.00  0.00     0.016 A 
HETATM   11  C   UNK N   1      31.947   9.969   4.400  0.00  0.00     0.016 A 
HETATM   12  C   UNK N   1      29.827   9.130   2.711  0.00  0.00     0.016 A 
HETATM   13  C   UNK N   1      27.770  19.880   5.001  0.00  0.00     0.016 A 
HETATM   14  C   UNK N   1      25.589  19.085   3.370  0.00  0.00     0.016 A 
HETATM   15  C   UNK N   1      25.206  11.655   0.935  0.00  0.00     0.016 A 
HETATM   16  C   UNK N   1      24.144  14.283   1.062  0.00  0.00     0.016 A 
HETATM   17  C   UNK N   1      32.291  15.189   6.217  0.00  0.00     0.022 A 
HETATM   18  C   UNK N   1      31.803  16.465   6.246  0.00  0.00     0.022 A 
HETATM   19  C   UNK N   1      30.868  10.801   4.108  0.00  0.00     0.022 A 
HETATM   20  C   UNK N   1      29.847  10.394   3.295  0.00  0.00     0.022 A 
HETATM   21  C   UNK N   1      27.647  18.577   4.525  0.00  0.00     0.022 A 
HETATM   22  C   UNK N   1      26.594  18.196   3.741  0.00  0.00     0.022 A 
HETATM   23  C   UNK N   1      25.849  12.677   1.628  0.00  0.00     0.022 A 
HETATM   24  C   UNK N   1      25.339  13.940   1.689  0.00  0.00     0.022 A 
HETATM   25  C   UNK N   1      31.276  14.358   5.563  0.00  0.00     0.119 A 
HETATM   26  C   UNK N   1      30.502  16.402   5.610  0.00  0.00     0.119 A 
HETATM   27  C   UNK N   1      30.578  12.181   4.501  0.00  0.00     0.119 A 
HETATM   28  C   UNK N   1      28.500  17.398   4.699  0.00  0.00     0.119 A 
HETATM   29  C   UNK N   1      28.948  11.528   3.199  0.00  0.00     0.119 A 
HETATM   30  C   UNK N   1      26.809  16.794   3.450  0.00  0.00     0.119 A 
HETATM   31  C   UNK N   1      27.025  12.688   2.344  0.00  0.00     0.119 A 
HETATM   32  C   UNK N   1      26.213  14.689   2.440  0.00  0.00     0.119 A 
HETATM   33  N   UNK N   1      30.254  15.063   5.207  0.00  0.00    -0.327 N 
ATOM     34  HN  UNK N   1      29.423  14.721   4.723  1.00  0.00     0.169 HD
HETATM   35  N   UNK N   1      29.478  12.597   3.968  0.00  0.00    -0.327 N 
ATOM     36  HN  UNK N   1      29.066  13.524   4.080  1.00  0.00     0.169 HD
HETATM   37  N   UNK N   1      28.015  16.374   4.076  0.00  0.00    -0.327 N 
ATOM     38  HN  UNK N   1      28.420  15.439   4.039  1.00  0.00     0.169 HD
HETATM   39  N   UNK N   1      27.261  13.927   2.851  0.00  0.00    -0.327 N 
HETATM   40  N   UNK N   1      31.444  12.974   5.297  0.00  0.00    -0.327 N 
HETATM   41  N   UNK N   1      29.737  17.417   5.402  0.00  0.00    -0.327 N 
ATOM     42  HN  UNK N   1      30.046  18.315   5.774  1.00  0.00     0.169 HD
HETATM   43  N   UNK N   1      27.872  11.559   2.494  0.00  0.00    -0.327 N 
ATOM     44  HN  UNK N   1      27.607  10.705   2.003  1.00  0.00     0.169 HD
HETATM   45  N   UNK N   1      26.025  16.063   2.734  0.00  0.00    -0.327 N 
ATOM     46  HN  UNK N   1      25.196  16.513   2.346  1.00  0.00     0.169 HD
HETATM   47  H   UNK N   1      28.027  14.211   3.400  0.00  0.00     0.169 HD
HETATM   48  H   UNK N   1      32.226  12.529   5.696  0.00  0.00     0.169 HD
ENDROOT
TORSDOF 0
ENDMDL
MODEL 6
REMARK VINA RESULT:      -9.9     13.056     16.360
REMARK  0 active torsions:
REMARK  status: ('A' for Active; 'I' for Inactive)
ROOT
HETATM    1  C   UNK N   1      24.143  12.090   0.419  0.00  0.00     0.001 A 
HETATM    2  C   UNK N   1      23.550  13.370   0.509  0.00  0.00     0.001 A 
HETATM    3  C   UNK N   1      30.827   8.352   3.741  0.00  0.00     0.001 A 
HETATM    4  C   UNK N   1      31.822   8.715   4.675  0.00  0.00     0.001 A 
HETATM    5  C   UNK N   1      25.786  20.558   4.066  0.00  0.00     0.001 A 
HETATM    6  C   UNK N   1      26.788  20.962   4.978  0.00  0.00     0.001 A 
HETATM    7  C   UNK N   1      33.859  15.888   8.292  0.00  0.00     0.001 A 
HETATM    8  C   UNK N   1      33.292  17.181   8.350  0.00  0.00     0.001 A 
HETATM    9  C   UNK N   1      25.406  11.849   0.991  0.00  0.00     0.016 A 
HETATM   10  C   UNK N   1      24.214  14.419   1.169  0.00  0.00     0.016 A 
HETATM   11  C   UNK N   1      29.938   9.318   3.235  0.00  0.00     0.016 A 
HETATM   12  C   UNK N   1      31.939  10.048   5.109  0.00  0.00     0.016 A 
HETATM   13  C   UNK N   1      25.768  19.245   3.562  0.00  0.00     0.016 A 
HETATM   14  C   UNK N   1      27.783  20.056   5.387  0.00  0.00     0.016 A 
HETATM   15  C   UNK N   1      33.266  14.884   7.503  0.00  0.00     0.016 A 
HETATM   16  C   UNK N   1      32.128  17.481   7.618  0.00  0.00     0.016 A 
HETATM   17  C   UNK N   1      26.039  12.910   1.634  0.00  0.00     0.022 A 
HETATM   18  C   UNK N   1      25.465  14.147   1.719  0.00  0.00     0.022 A 
HETATM   19  C   UNK N   1      30.080  10.629   3.683  0.00  0.00     0.022 A 
HETATM   20  C   UNK N   1      31.045  10.979   4.586  0.00  0.00     0.022 A 
HETATM   21  C   UNK N   1      26.767  18.372   3.987  0.00  0.00     0.022 A 
HETATM   22  C   UNK N   1      27.738  18.766   4.866  0.00  0.00     0.022 A 
HETATM   23  C   UNK N   1      32.117  15.217   6.791  0.00  0.00     0.022 A 
HETATM   24  C   UNK N   1      31.570  16.465   6.846  0.00  0.00     0.022 A 
HETATM   25  C   UNK N   1      27.312  12.978   2.358  0.00  0.00     0.119 A 
HETATM   26  C   UNK N   1      26.387  14.955   2.492  0.00  0.00     0.119 A 
HETATM   27  C   UNK N   1      29.310  11.840   3.390  0.00  0.00     0.119 A 
HETATM   28  C   UNK N   1      27.026  16.966   3.665  0.00  0.00     0.119 A 
HETATM   29  C   UNK N   1      30.854  12.395   4.833  0.00  0.00     0.119 A 
HETATM   30  C   UNK N   1      28.580  17.605   5.066  0.00  0.00     0.119 A 
HETATM   31  C   UNK N   1      31.323  14.471   5.950  0.00  0.00     0.119 A 
HETATM   32  C   UNK N   1      30.458  16.450   6.037  0.00  0.00     0.119 A 
HETATM   33  N   UNK N   1      27.502  14.154   2.858  0.00  0.00    -0.327 N 
ATOM     34  HN  UNK N   1      28.303  14.451   3.415  1.00  0.00     0.169 HD
HETATM   35  N   UNK N   1      29.753  12.850   4.060  0.00  0.00    -0.327 N 
ATOM     36  HN  UNK N   1      29.381  13.800   4.038  1.00  0.00     0.169 HD
HETATM   37  N   UNK N   1      28.070  16.528   4.291  0.00  0.00    -0.327 N 
ATOM     38  HN  UNK N   1      28.456  15.585   4.239  1.00  0.00     0.169 HD
HETATM   39  N   UNK N   1      30.294  15.223   5.478  0.00  0.00    -0.327 N 
HETATM   40  N   UNK N   1      28.174  11.866   2.540  0.00  0.00    -0.327 N 
HETATM   41  N   UNK N   1      26.183  16.180   2.831  0.00  0.00    -0.327 N 
ATOM     42  HN  UNK N   1      25.341  16.628   2.469  1.00  0.00     0.169 HD
HETATM   43  N   UNK N   1      31.549  13.101   5.655  0.00  0.00    -0.327 N 
ATOM     44  HN  UNK N   1      32.324  12.640   6.132  1.00  0.00     0.169 HD
HETATM   45  N   UNK N   1      29.617  17.573   5.830  0.00  0.00    -0.327 N 
ATOM     46  HN  UNK N   1      29.855  18.430   6.329  1.00  0.00     0.169 HD
HETATM   47  H   UNK N   1      29.581  14.938   4.860  0.00  0.00     0.169 HD
HETATM   48  H   UNK N   1      27.968  11.046   2.036  0.00  0.00     0.169 HD
ENDROOT
TORSDOF 0
ENDMDL
MODEL 7
REMARK VINA RESULT:      -9.9     13.695     15.284
REMARK  0 active torsions:
REMARK  status: ('A' for Active; 'I' for Inactive)
ROOT
HETATM    1  C   UNK N   1      27.026   9.890   0.736  0.00  0.00     0.001 A 
HETATM    2  C   UNK N   1      25.614   9.940   0.766  0.00  0.00     0.001 A 
HETATM    3  C   UNK N   1      33.242  14.817   3.336  0.00  0.00     0.001 A 
HETATM    4  C   UNK N   1      33.330  16.039   4.041  0.00  0.00     0.001 A 
HETATM    5  C   UNK N   1      20.068  15.735   3.000  0.00  0.00     0.001 A 
HETATM    6  C   UNK N   1      20.123  16.975   3.677  0.00  0.00     0.001 A 
HETATM    7  C   UNK N   1      27.707  21.663   6.369  0.00  0.00     0.001 A 
HETATM    8  C   UNK N   1      26.295  21.736   6.362  0.00  0.00     0.001 A 
HETATM    9  C   UNK N   1      27.787  11.011   1.115  0.00  0.00     0.016 A 
HETATM   10  C   UNK N   1      24.951  11.112   1.174  0.00  0.00     0.016 A 
HETATM   11  C   UNK N   1      31.999  14.352   2.870  0.00  0.00     0.016 A 
HETATM   12  C   UNK N   1      32.176  16.806   4.284  0.00  0.00     0.016 A 
HETATM   13  C   UNK N   1      21.251  15.049   2.669  0.00  0.00     0.016 A 
HETATM   14  C   UNK N   1      21.364  17.540   4.024  0.00  0.00     0.016 A 
HETATM   15  C   UNK N   1      28.365  20.548   5.817  0.00  0.00     0.016 A 
HETATM   16  C   UNK N   1      25.532  20.695   5.801  0.00  0.00     0.016 A 
HETATM   17  C   UNK N   1      27.100  12.156   1.511  0.00  0.00     0.022 A 
HETATM   18  C   UNK N   1      25.735  12.204   1.538  0.00  0.00     0.022 A 
HETATM   19  C   UNK N   1      30.875  15.135   3.126  0.00  0.00     0.022 A 
HETATM   20  C   UNK N   1      30.963  16.317   3.806  0.00  0.00     0.022 A 
HETATM   21  C   UNK N   1      22.463  15.635   3.027  0.00  0.00     0.022 A 
HETATM   22  C   UNK N   1      22.514  16.836   3.678  0.00  0.00     0.022 A 
HETATM   23  C   UNK N   1      27.578  19.538   5.270  0.00  0.00     0.022 A 
HETATM   24  C   UNK N   1      26.217  19.608   5.262  0.00  0.00     0.022 A 
HETATM   25  C   UNK N   1      27.583  13.450   2.000  0.00  0.00     0.119 A 
HETATM   26  C   UNK N   1      25.399  13.520   2.044  0.00  0.00     0.119 A 
HETATM   27  C   UNK N   1      29.459  14.922   2.818  0.00  0.00     0.119 A 
HETATM   28  C   UNK N   1      23.846  15.189   2.840  0.00  0.00     0.119 A 
HETATM   29  C   UNK N   1      29.603  16.812   3.907  0.00  0.00     0.119 A 
HETATM   30  C   UNK N   1      23.922  17.114   3.876  0.00  0.00     0.119 A 
HETATM   31  C   UNK N   1      27.919  18.348   4.670  0.00  0.00     0.119 A 
HETATM   32  C   UNK N   1      25.761  18.462   4.657  0.00  0.00     0.119 A 
HETATM   33  N   UNK N   1      26.601  14.227   2.315  0.00  0.00    -0.327 N 
ATOM     34  HN  UNK N   1      26.674  15.173   2.691  1.00  0.00     0.169 HD
HETATM   35  N   UNK N   1      28.732  15.884   3.277  0.00  0.00    -0.327 N 
ATOM     36  HN  UNK N   1      27.717  15.964   3.202  1.00  0.00     0.169 HD
HETATM   37  N   UNK N   1      24.683  16.043   3.334  0.00  0.00    -0.327 N 
ATOM     38  HN  UNK N   1      25.700  15.964   3.333  1.00  0.00     0.169 HD
HETATM   39  N   UNK N   1      26.803  17.673   4.286  0.00  0.00    -0.327 N 
HETATM   40  N   UNK N   1      28.957  13.764   2.171  0.00  0.00    -0.327 N 
HETATM   41  N   UNK N   1      24.201  13.939   2.260  0.00  0.00    -0.327 N 
ATOM     42  HN  UNK N   1      23.436  13.320   1.990  1.00  0.00     0.169 HD
HETATM   43  N   UNK N   1      29.255  17.894   4.510  0.00  0.00    -0.327 N 
ATOM     44  HN  UNK N   1      29.997  18.472   4.906  1.00  0.00     0.169 HD
HETATM   45  N   UNK N   1      24.388  18.166   4.456  0.00  0.00    -0.327 N 
ATOM     46  HN  UNK N   1      23.711  18.847   4.800  1.00  0.00     0.169 HD
HETATM   47  H   UNK N   1      26.760  16.799   3.834  0.00  0.00     0.169 HD
HETATM   48  H   UNK N   1      29.615  13.126   1.812  0.00  0.00     0.169 HD
ENDROOT
TORSDOF 0
ENDMDL
MODEL 8
REMARK VINA RESULT:      -9.8     13.085     14.511
REMARK  0 active torsions:
REMARK  status: ('A' for Active; 'I' for Inactive)
ROOT
HETATM    1  C   UNK N   1      22.861  13.153   0.276  0.00  0.00     0.001 A 
HETATM    2  C   UNK N   1      23.434  11.891  -0.000  0.00  0.00     0.001 A 
HETATM    3  C   UNK N   1      25.473  20.269   3.771  0.00  0.00     0.001 A 
HETATM    4  C   UNK N   1      26.697  20.744   4.294  0.00  0.00     0.001 A 
HETATM    5  C   UNK N   1      30.689   8.277   1.906  0.00  0.00     0.001 A 
HETATM    6  C   UNK N   1      31.917   8.711   2.454  0.00  0.00     0.001 A 
HETATM    7  C   UNK N   1      33.934  17.085   5.998  0.00  0.00     0.001 A 
HETATM    8  C   UNK N   1      34.496  15.810   5.761  0.00  0.00     0.001 A 
HETATM    9  C   UNK N   1      23.553  14.092   1.063  0.00  0.00     0.016 A 
HETATM   10  C   UNK N   1      24.703  11.557   0.508  0.00  0.00     0.016 A 
HETATM   11  C   UNK N   1      25.319  18.912   3.437  0.00  0.00     0.016 A 
HETATM   12  C   UNK N   1      27.776  19.863   4.490  0.00  0.00     0.016 A 
HETATM   13  C   UNK N   1      29.591   9.154   1.831  0.00  0.00     0.016 A 
HETATM   14  C   UNK N   1      32.055  10.026   2.937  0.00  0.00     0.016 A 
HETATM   15  C   UNK N   1      32.607  17.360   5.619  0.00  0.00     0.016 A 
HETATM   16  C   UNK N   1      33.734  14.799   5.145  0.00  0.00     0.016 A 
HETATM   17  C   UNK N   1      24.805  13.730   1.554  0.00  0.00     0.022 A 
HETATM   18  C   UNK N   1      25.357  12.509   1.287  0.00  0.00     0.022 A 
HETATM   19  C   UNK N   1      26.406  18.065   3.644  0.00  0.00     0.022 A 
HETATM   20  C   UNK N   1      27.589  18.525   4.152  0.00  0.00     0.022 A 
HETATM   21  C   UNK N   1      29.761  10.449   2.317  0.00  0.00     0.022 A 
HETATM   22  C   UNK N   1      30.949  10.865   2.851  0.00  0.00     0.022 A 
HETATM   23  C   UNK N   1      31.882  16.336   5.014  0.00  0.00     0.022 A 
HETATM   24  C   UNK N   1      32.424  15.106   4.786  0.00  0.00     0.022 A 
HETATM   25  C   UNK N   1      25.784  14.478   2.348  0.00  0.00     0.119 A 
HETATM   26  C   UNK N   1      26.663  12.523   1.915  0.00  0.00     0.119 A 
HETATM   27  C   UNK N   1      26.585  16.637   3.371  0.00  0.00     0.119 A 
HETATM   28  C   UNK N   1      28.840  11.587   2.381  0.00  0.00     0.119 A 
HETATM   29  C   UNK N   1      28.474  17.377   4.184  0.00  0.00     0.119 A 
HETATM   30  C   UNK N   1      30.741  12.245   3.239  0.00  0.00     0.119 A 
HETATM   31  C   UNK N   1      30.591  16.296   4.540  0.00  0.00     0.119 A 
HETATM   32  C   UNK N   1      31.451  14.346   4.181  0.00  0.00     0.119 A 
HETATM   33  N   UNK N   1      26.855  13.783   2.544  0.00  0.00    -0.327 N 
ATOM     34  HN  UNK N   1      27.686  14.084   3.054  1.00  0.00     0.169 HD
HETATM   35  N   UNK N   1      27.778  16.249   3.674  0.00  0.00    -0.327 N 
ATOM     36  HN  UNK N   1      28.151  15.306   3.567  1.00  0.00     0.169 HD
HETATM   37  N   UNK N   1      29.410  12.621   2.910  0.00  0.00    -0.327 N 
ATOM     38  HN  UNK N   1      28.984  13.534   3.064  1.00  0.00     0.169 HD
HETATM   39  N   UNK N   1      30.312  15.071   4.023  0.00  0.00    -0.327 N 
HETATM   40  N   UNK N   1      25.593  15.818   2.773  0.00  0.00    -0.327 N 
HETATM   41  N   UNK N   1      27.518  11.563   1.852  0.00  0.00    -0.327 N 
ATOM     42  HN  UNK N   1      27.222  10.707   1.383  1.00  0.00     0.169 HD
HETATM   43  N   UNK N   1      29.701  17.402   4.571  0.00  0.00    -0.327 N 
ATOM     44  HN  UNK N   1      30.064  18.286   4.929  1.00  0.00     0.169 HD
HETATM   45  N   UNK N   1      31.633  12.996   3.789  0.00  0.00    -0.327 N 
ATOM     46  HN  UNK N   1      32.550  12.582   3.958  1.00  0.00     0.169 HD
HETATM   47  H   UNK N   1      29.465  14.772   3.620  0.00  0.00     0.169 HD
HETATM   48  H   UNK N   1      24.701  16.212   2.641  0.00  0.00     0.169 HD
ENDROOT
TORSDOF 0
ENDMDL
MODEL 9
REMARK VINA RESULT:      -9.3     14.067     16.500
REMARK  0 active torsions:
REMARK  status: ('A' for Active; 'I' for Inactive)
ROOT
HETATM    1  C   UNK N   1      23.880  14.375   2.293  0.00  0.00     0.001 A 
HETATM    2  C   UNK N   1      23.682  15.200   3.423  0.00  0.00     0.001 A 
HETATM    3  C   UNK N   1      30.370  10.421  -1.159  0.00  0.00     0.001 A 
HETATM    4  C   UNK N   1      31.734  10.250  -0.832  0.00  0.00     0.001 A 
HETATM    5  C   UNK N   1      28.772  18.722   8.992  0.00  0.00     0.001 A 
HETATM    6  C   UNK N   1      30.140  18.597   9.327  0.00  0.00     0.001 A 
HETATM    7  C   UNK N   1      36.677  13.692   4.860  0.00  0.00     0.001 A 
HETATM    8  C   UNK N   1      36.489  14.552   5.966  0.00  0.00     0.001 A 
HETATM    9  C   UNK N   1      25.180  14.017   1.893  0.00  0.00     0.016 A 
HETATM   10  C   UNK N   1      24.781  15.675   4.162  0.00  0.00     0.016 A 
HETATM   11  C   UNK N   1      29.578  11.343  -0.451  0.00  0.00     0.016 A 
HETATM   12  C   UNK N   1      32.318  11.002   0.203  0.00  0.00     0.016 A 
HETATM   13  C   UNK N   1      28.246  18.044   7.877  0.00  0.00     0.016 A 
HETATM   14  C   UNK N   1      30.993  17.797   8.545  0.00  0.00     0.016 A 
HETATM   15  C   UNK N   1      35.590  13.344   4.036  0.00  0.00     0.016 A 
HETATM   16  C   UNK N   1      35.214  15.072   6.255  0.00  0.00     0.016 A 
HETATM   17  C   UNK N   1      26.247  14.505   2.642  0.00  0.00     0.022 A 
HETATM   18  C   UNK N   1      26.054  15.304   3.734  0.00  0.00     0.022 A 
HETATM   19  C   UNK N   1      30.185  12.073   0.568  0.00  0.00     0.022 A 
HETATM   20  C   UNK N   1      31.506  11.908   0.881  0.00  0.00     0.022 A 
HETATM   21  C   UNK N   1      29.117  17.259   7.124  0.00  0.00     0.022 A 
HETATM   22  C   UNK N   1      30.441  17.144   7.447  0.00  0.00     0.022 A 
HETATM   23  C   UNK N   1      34.343  13.879   4.351  0.00  0.00     0.022 A 
HETATM   24  C   UNK N   1      34.162  14.709   5.417  0.00  0.00     0.022 A 
HETATM   25  C   UNK N   1      27.691  14.286   2.523  0.00  0.00     0.119 A 
HETATM   26  C   UNK N   1      27.376  15.562   4.270  0.00  0.00     0.119 A 
HETATM   27  C   UNK N   1      29.645  13.064   1.502  0.00  0.00     0.119 A 
HETATM   28  C   UNK N   1      28.893  16.437   5.932  0.00  0.00     0.119 A 
HETATM   29  C   UNK N   1      31.756  12.797   2.000  0.00  0.00     0.119 A 
HETATM   30  C   UNK N   1      31.011  16.261   6.450  0.00  0.00     0.119 A 
HETATM   31  C   UNK N   1      33.114  13.730   3.750  0.00  0.00     0.119 A 
HETATM   32  C   UNK N   1      32.830  15.047   5.440  0.00  0.00     0.119 A 
HETATM   33  N   UNK N   1      28.335  14.887   3.467  0.00  0.00    -0.327 N 
ATOM     34  HN  UNK N   1      29.345  14.878   3.612  1.00  0.00     0.169 HD
HETATM   35  N   UNK N   1      30.549  13.469   2.328  0.00  0.00    -0.327 N 
ATOM     36  HN  UNK N   1      30.421  14.148   3.079  1.00  0.00     0.169 HD
HETATM   37  N   UNK N   1      29.987  15.861   5.549  0.00  0.00    -0.327 N 
ATOM     38  HN  UNK N   1      30.095  15.237   4.750  1.00  0.00     0.169 HD
HETATM   39  N   UNK N   1      32.170  14.447   4.414  0.00  0.00    -0.327 N 
HETATM   40  N   UNK N   1      28.282  13.455   1.535  0.00  0.00    -0.327 N 
HETATM   41  N   UNK N   1      27.616  16.245   5.334  0.00  0.00    -0.327 N 
ATOM     42  HN  UNK N   1      26.820  16.691   5.789  1.00  0.00     0.169 HD
HETATM   43  N   UNK N   1      32.882  12.913   2.612  0.00  0.00    -0.327 N 
ATOM     44  HN  UNK N   1      33.671  12.374   2.253  1.00  0.00     0.169 HD
HETATM   45  N   UNK N   1      32.249  15.905   6.407  0.00  0.00    -0.327 N 
ATOM     46  HN  UNK N   1      32.865  16.274   7.132  1.00  0.00     0.169 HD
HETATM   47  H   UNK N   1      31.212  14.518   4.197  0.00  0.00     0.169 HD
HETATM   48  H   UNK N   1      27.698  13.123   0.816  0.00  0.00     0.169 HD
ENDROOT
TORSDOF 0
ENDMDL
