MODEL 1
REMARK VINA RESULT:      -7.7      0.000      0.000
REMARK  2 active torsions:
REMARK  status: ('A' for Active; 'I' for Inactive)
REMARK    1  A    between atoms: C_2  and  O_23 
REMARK    2  A    between atoms: C_17  and  C_18 
ROOT
HETATM    1  C   UNK N   1      25.835  26.866  -4.020  0.00  0.00     0.032 C 
HETATM    2  C   UNK N   1      25.617  27.196  -5.498  0.00  0.00     0.118 C 
HETATM    3  C   UNK N   1      25.739  25.967  -6.408  0.00  0.00     0.037 C 
HETATM    4  C   UNK N   1      26.564  24.813  -5.819  0.00  0.00    -0.004 C 
HETATM    5  C   UNK N   1      27.726  25.315  -4.916  0.00  0.00    -0.036 C 
HETATM    6  C   UNK N   1      27.145  26.112  -3.729  0.00  0.00     0.012 C 
HETATM    7  C   UNK N   1      27.081  23.947  -6.972  0.00  0.00     0.006 C 
HETATM    8  C   UNK N   1      27.877  22.755  -6.444  0.00  0.00     0.006 C 
HETATM    9  C   UNK N   1      29.047  23.219  -5.571  0.00  0.00    -0.005 C 
HETATM   10  C   UNK N   1      28.511  24.080  -4.386  0.00  0.00    -0.002 C 
HETATM   11  C   UNK N   1      29.795  22.010  -4.990  0.00  0.00    -0.001 C 
HETATM   12  C   UNK N   1      30.957  22.430  -4.095  0.00  0.00    -0.030 C 
HETATM   13  C   UNK N   1      30.415  23.237  -2.912  0.00  0.00     0.011 C 
HETATM   14  C   UNK N   1      29.661  24.476  -3.430  0.00  0.00     0.006 C 
HETATM   15  C   UNK N   1      30.438  21.036  -5.967  0.00  0.00     0.006 C 
HETATM   16  C   UNK N   1      31.499  20.313  -5.118  0.00  0.00     0.013 C 
HETATM   17  C   UNK N   1      31.513  21.048  -3.766  0.00  0.00     0.063 C 
HETATM   18  C   UNK N   1      32.010  23.269  -4.845  0.00  0.00     0.016 C 
HETATM   19  C   UNK N   1      28.669  26.235  -5.700  0.00  0.00     0.016 C 
ENDROOT
BRANCH  17  20
HETATM   20  C   UNK N   1      32.833  21.012  -3.035  0.00  0.00     0.128 C 
HETATM   21  O   UNK N   1      32.908  21.369  -1.872  0.00  0.00    -0.298 OA
HETATM   22  C   UNK N   1      34.066  20.570  -3.748  0.00  0.00     0.091 C 
ENDBRANCH  17  20
BRANCH   2  23
HETATM   23  O   UNK N   1      26.509  28.185  -5.913  0.00  0.00    -0.396 OA
HETATM   24  H   UNK N   1      27.022  28.984  -5.714  0.00  0.00     0.210 HD
ENDBRANCH   2  23
TORSDOF 2
ENDMDL
MODEL 2
REMARK VINA RESULT:      -7.3      4.144      5.652
REMARK  2 active torsions:
REMARK  status: ('A' for Active; 'I' for Inactive)
REMARK    1  A    between atoms: C_2  and  O_23 
REMARK    2  A    between atoms: C_17  and  C_18 
ROOT
HETATM    1  C   UNK N   1      26.484  29.789  -3.378  0.00  0.00     0.032 C 
HETATM    2  C   UNK N   1      27.861  30.337  -3.756  0.00  0.00     0.118 C 
HETATM    3  C   UNK N   1      28.192  30.147  -5.242  0.00  0.00     0.037 C 
HETATM    4  C   UNK N   1      27.414  29.016  -5.932  0.00  0.00    -0.004 C 
HETATM    5  C   UNK N   1      27.117  27.829  -4.973  0.00  0.00    -0.036 C 
HETATM    6  C   UNK N   1      26.252  28.326  -3.795  0.00  0.00     0.012 C 
HETATM    7  C   UNK N   1      28.205  28.561  -7.162  0.00  0.00     0.006 C 
HETATM    8  C   UNK N   1      27.458  27.463  -7.916  0.00  0.00     0.006 C 
HETATM    9  C   UNK N   1      27.174  26.266  -7.003  0.00  0.00    -0.005 C 
HETATM   10  C   UNK N   1      26.348  26.732  -5.764  0.00  0.00    -0.002 C 
HETATM   11  C   UNK N   1      26.360  25.200  -7.753  0.00  0.00    -0.001 C 
HETATM   12  C   UNK N   1      26.038  23.999  -6.870  0.00  0.00    -0.030 C 
HETATM   13  C   UNK N   1      25.190  24.460  -5.682  0.00  0.00     0.011 C 
HETATM   14  C   UNK N   1      25.959  25.526  -4.878  0.00  0.00     0.006 C 
HETATM   15  C   UNK N   1      26.985  24.570  -8.989  0.00  0.00     0.006 C 
HETATM   16  C   UNK N   1      26.213  23.250  -9.157  0.00  0.00     0.013 C 
HETATM   17  C   UNK N   1      25.328  23.130  -7.904  0.00  0.00     0.063 C 
HETATM   18  C   UNK N   1      27.302  23.288  -6.349  0.00  0.00     0.016 C 
HETATM   19  C   UNK N   1      28.416  27.247  -4.405  0.00  0.00     0.016 C 
ENDROOT
BRANCH  17  20
HETATM   20  C   UNK N   1      25.003  21.717  -7.485  0.00  0.00     0.128 C 
HETATM   21  O   UNK N   1      24.186  21.502  -6.607  0.00  0.00    -0.298 OA
HETATM   22  C   UNK N   1      25.712  20.571  -8.125  0.00  0.00     0.091 C 
ENDBRANCH  17  20
BRANCH   2  23
HETATM   23  O   UNK N   1      28.852  29.749  -2.969  0.00  0.00    -0.396 OA
HETATM   24  H   UNK N   1      29.122  29.345  -2.130  0.00  0.00     0.210 HD
ENDBRANCH   2  23
TORSDOF 2
ENDMDL
MODEL 3
REMARK VINA RESULT:      -7.2     22.396     26.263
REMARK  2 active torsions:
REMARK  status: ('A' for Active; 'I' for Inactive)
REMARK    1  A    between atoms: C_2  and  O_23 
REMARK    2  A    between atoms: C_17  and  C_18 
ROOT
HETATM    1  C   UNK N   1      33.614   8.350  19.863  0.00  0.00     0.032 C 
HETATM    2  C   UNK N   1      34.463   8.854  21.032  0.00  0.00     0.118 C 
HETATM    3  C   UNK N   1      34.733  10.363  20.967  0.00  0.00     0.037 C 
HETATM    4  C   UNK N   1      34.618  10.975  19.562  0.00  0.00    -0.004 C 
HETATM    5  C   UNK N   1      35.064   9.987  18.447  0.00  0.00    -0.036 C 
HETATM    6  C   UNK N   1      34.158   8.737  18.477  0.00  0.00     0.012 C 
HETATM    7  C   UNK N   1      35.436  12.269  19.526  0.00  0.00     0.006 C 
HETATM    8  C   UNK N   1      35.326  12.947  18.162  0.00  0.00     0.006 C 
HETATM    9  C   UNK N   1      35.784  12.006  17.043  0.00  0.00    -0.005 C 
HETATM   10  C   UNK N   1      34.932  10.699  17.070  0.00  0.00    -0.002 C 
HETATM   11  C   UNK N   1      35.601  12.674  15.672  0.00  0.00    -0.001 C 
HETATM   12  C   UNK N   1      36.027  11.759  14.528  0.00  0.00    -0.030 C 
HETATM   13  C   UNK N   1      35.155  10.502  14.537  0.00  0.00     0.011 C 
HETATM   14  C   UNK N   1      35.304   9.775  15.887  0.00  0.00     0.006 C 
HETATM   15  C   UNK N   1      36.370  13.959  15.400  0.00  0.00     0.006 C 
HETATM   16  C   UNK N   1      36.399  14.049  13.864  0.00  0.00     0.013 C 
HETATM   17  C   UNK N   1      35.806  12.720  13.363  0.00  0.00     0.063 C 
HETATM   18  C   UNK N   1      37.511  11.352  14.613  0.00  0.00     0.016 C 
HETATM   19  C   UNK N   1      36.513   9.536  18.663  0.00  0.00     0.016 C 
ENDROOT
BRANCH  17  20
HETATM   20  C   UNK N   1      36.307  12.267  12.014  0.00  0.00     0.128 C 
HETATM   21  O   UNK N   1      35.791  11.320  11.446  0.00  0.00    -0.298 OA
HETATM   22  C   UNK N   1      37.467  12.959  11.381  0.00  0.00     0.091 C 
ENDBRANCH  17  20
BRANCH   2  23
HETATM   23  O   UNK N   1      35.671   8.158  21.093  0.00  0.00    -0.396 OA
HETATM   24  H   UNK N   1      36.540   7.958  20.711  0.00  0.00     0.210 HD
ENDBRANCH   2  23
TORSDOF 2
ENDMDL
MODEL 4
REMARK VINA RESULT:      -7.1      1.567      1.999
REMARK  2 active torsions:
REMARK  status: ('A' for Active; 'I' for Inactive)
REMARK    1  A    between atoms: C_2  and  O_23 
REMARK    2  A    between atoms: C_17  and  C_18 
ROOT
HETATM    1  C   UNK N   1      25.949  27.131  -3.428  0.00  0.00     0.032 C 
HETATM    2  C   UNK N   1      25.476  27.878  -4.676  0.00  0.00     0.118 C 
HETATM    3  C   UNK N   1      25.103  26.938  -5.829  0.00  0.00     0.037 C 
HETATM    4  C   UNK N   1      25.759  25.550  -5.762  0.00  0.00    -0.004 C 
HETATM    5  C   UNK N   1      27.181  25.596  -5.134  0.00  0.00    -0.036 C 
HETATM    6  C   UNK N   1      27.086  26.126  -3.688  0.00  0.00     0.012 C 
HETATM    7  C   UNK N   1      25.787  24.956  -7.173  0.00  0.00     0.006 C 
HETATM    8  C   UNK N   1      26.393  23.554  -7.163  0.00  0.00     0.006 C 
HETATM    9  C   UNK N   1      27.806  23.571  -6.574  0.00  0.00    -0.005 C 
HETATM   10  C   UNK N   1      27.768  24.155  -5.128  0.00  0.00    -0.002 C 
HETATM   11  C   UNK N   1      28.376  22.145  -6.504  0.00  0.00    -0.001 C 
HETATM   12  C   UNK N   1      29.777  22.117  -5.901  0.00  0.00    -0.030 C 
HETATM   13  C   UNK N   1      29.720  22.651  -4.468  0.00  0.00     0.011 C 
HETATM   14  C   UNK N   1      29.166  24.088  -4.471  0.00  0.00     0.006 C 
HETATM   15  C   UNK N   1      28.539  21.381  -7.810  0.00  0.00     0.006 C 
HETATM   16  C   UNK N   1      29.575  20.295  -7.471  0.00  0.00     0.013 C 
HETATM   17  C   UNK N   1      30.067  20.626  -6.051  0.00  0.00     0.063 C 
HETATM   18  C   UNK N   1      30.790  22.946  -6.715  0.00  0.00     0.016 C 
HETATM   19  C   UNK N   1      28.100  26.530  -5.930  0.00  0.00     0.016 C 
ENDROOT
BRANCH  17  20
HETATM   20  C   UNK N   1      31.477  20.183  -5.745  0.00  0.00     0.128 C 
HETATM   21  O   UNK N   1      31.880  20.144  -4.596  0.00  0.00    -0.298 OA
HETATM   22  C   UNK N   1      32.401  19.821  -6.859  0.00  0.00     0.091 C 
ENDBRANCH  17  20
BRANCH   2  23
HETATM   23  O   UNK N   1      26.448  28.786  -5.099  0.00  0.00    -0.396 OA
HETATM   24  H   UNK N   1      27.384  29.016  -5.208  0.00  0.00     0.210 HD
ENDBRANCH   2  23
TORSDOF 2
ENDMDL
MODEL 5
REMARK VINA RESULT:      -7.1      1.627      7.021
REMARK  2 active torsions:
REMARK  status: ('A' for Active; 'I' for Inactive)
REMARK    1  A    between atoms: C_2  and  O_23 
REMARK    2  A    between atoms: C_17  and  C_18 
ROOT
HETATM    1  C   UNK N   1      32.821  19.696  -4.676  0.00  0.00     0.032 C 
HETATM    2  C   UNK N   1      33.695  20.490  -3.704  0.00  0.00     0.118 C 
HETATM    3  C   UNK N   1      32.877  21.286  -2.679  0.00  0.00     0.037 C 
HETATM    4  C   UNK N   1      31.437  21.600  -3.113  0.00  0.00    -0.004 C 
HETATM    5  C   UNK N   1      31.315  21.821  -4.648  0.00  0.00    -0.036 C 
HETATM    6  C   UNK N   1      31.744  20.535  -5.386  0.00  0.00     0.012 C 
HETATM    7  C   UNK N   1      30.948  22.821  -2.329  0.00  0.00     0.006 C 
HETATM    8  C   UNK N   1      29.502  23.157  -2.688  0.00  0.00     0.006 C 
HETATM    9  C   UNK N   1      29.354  23.407  -4.192  0.00  0.00    -0.005 C 
HETATM   10  C   UNK N   1      29.832  22.151  -4.985  0.00  0.00    -0.002 C 
HETATM   11  C   UNK N   1      27.884  23.673  -4.551  0.00  0.00    -0.001 C 
HETATM   12  C   UNK N   1      27.691  23.906  -6.045  0.00  0.00    -0.030 C 
HETATM   13  C   UNK N   1      28.121  22.652  -6.810  0.00  0.00     0.011 C 
HETATM   14  C   UNK N   1      29.598  22.336  -6.502  0.00  0.00     0.006 C 
HETATM   15  C   UNK N   1      27.206  24.880  -3.916  0.00  0.00     0.006 C 
HETATM   16  C   UNK N   1      26.014  25.160  -4.847  0.00  0.00     0.013 C 
HETATM   17  C   UNK N   1      26.196  24.212  -6.045  0.00  0.00     0.063 C 
HETATM   18  C   UNK N   1      28.487  25.119  -6.565  0.00  0.00     0.016 C 
HETATM   19  C   UNK N   1      32.222  22.967  -5.108  0.00  0.00     0.016 C 
ENDROOT
BRANCH  17  20
HETATM   20  C   UNK N   1      25.612  24.707  -7.346  0.00  0.00     0.128 C 
HETATM   21  O   UNK N   1      25.129  23.927  -8.147  0.00  0.00    -0.298 OA
HETATM   22  C   UNK N   1      25.656  26.162  -7.674  0.00  0.00     0.091 C 
ENDBRANCH  17  20
BRANCH   2  23
HETATM   23  O   UNK N   1      34.544  21.349  -4.403  0.00  0.00    -0.396 OA
HETATM   24  H   UNK N   1      35.084  22.154  -4.425  0.00  0.00     0.210 HD
ENDBRANCH   2  23
TORSDOF 2
ENDMDL
MODEL 6
REMARK VINA RESULT:      -7.1      1.350      6.676
REMARK  2 active torsions:
REMARK  status: ('A' for Active; 'I' for Inactive)
REMARK    1  A    between atoms: C_2  and  O_23 
REMARK    2  A    between atoms: C_17  and  C_18 
ROOT
HETATM    1  C   UNK N   1      33.102  22.183  -4.851  0.00  0.00     0.032 C 
HETATM    2  C   UNK N   1      32.581  20.747  -4.941  0.00  0.00     0.118 C 
HETATM    3  C   UNK N   1      31.354  20.614  -5.852  0.00  0.00     0.037 C 
HETATM    4  C   UNK N   1      30.557  21.912  -6.049  0.00  0.00    -0.004 C 
HETATM    5  C   UNK N   1      30.576  22.817  -4.784  0.00  0.00    -0.036 C 
HETATM    6  C   UNK N   1      32.032  23.219  -4.464  0.00  0.00     0.012 C 
HETATM    7  C   UNK N   1      29.127  21.548  -6.457  0.00  0.00     0.006 C 
HETATM    8  C   UNK N   1      28.295  22.804  -6.708  0.00  0.00     0.006 C 
HETATM    9  C   UNK N   1      28.273  23.705  -5.469  0.00  0.00    -0.005 C 
HETATM   10  C   UNK N   1      29.731  24.091  -5.072  0.00  0.00    -0.002 C 
HETATM   11  C   UNK N   1      27.492  24.996  -5.758  0.00  0.00    -0.001 C 
HETATM   12  C   UNK N   1      27.465  25.931  -4.553  0.00  0.00    -0.030 C 
HETATM   13  C   UNK N   1      28.898  26.339  -4.200  0.00  0.00     0.011 C 
HETATM   14  C   UNK N   1      29.733  25.083  -3.885  0.00  0.00     0.006 C 
HETATM   15  C   UNK N   1      26.024  24.869  -6.137  0.00  0.00     0.006 C 
HETATM   16  C   UNK N   1      25.445  26.261  -5.831  0.00  0.00     0.013 C 
HETATM   17  C   UNK N   1      26.577  27.031  -5.128  0.00  0.00     0.063 C 
HETATM   18  C   UNK N   1      26.798  25.292  -3.320  0.00  0.00     0.016 C 
HETATM   19  C   UNK N   1      30.004  22.074  -3.572  0.00  0.00     0.016 C 
ENDROOT
BRANCH  17  20
HETATM   20  C   UNK N   1      26.121  28.098  -4.164  0.00  0.00     0.128 C 
HETATM   21  O   UNK N   1      25.282  27.851  -3.315  0.00  0.00    -0.298 OA
HETATM   22  C   UNK N   1      26.672  29.480  -4.269  0.00  0.00     0.091 C 
ENDBRANCH  17  20
BRANCH   2  23
HETATM   23  O   UNK N   1      32.284  20.257  -3.669  0.00  0.00    -0.396 OA
HETATM   24  H   UNK N   1      32.484  19.649  -2.940  0.00  0.00     0.210 HD
ENDBRANCH   2  23
TORSDOF 2
ENDMDL
MODEL 7
REMARK VINA RESULT:      -7.1     19.903     23.962
REMARK  2 active torsions:
REMARK  status: ('A' for Active; 'I' for Inactive)
REMARK    1  A    between atoms: C_2  and  O_23 
REMARK    2  A    between atoms: C_17  and  C_18 
ROOT
HETATM    1  C   UNK N   1      35.409  11.492  18.687  0.00  0.00     0.032 C 
HETATM    2  C   UNK N   1      35.285   9.967  18.649  0.00  0.00     0.118 C 
HETATM    3  C   UNK N   1      36.274   9.312  17.676  0.00  0.00     0.037 C 
HETATM    4  C   UNK N   1      36.784  10.237  16.560  0.00  0.00    -0.004 C 
HETATM    5  C   UNK N   1      35.711  11.269  16.109  0.00  0.00    -0.036 C 
HETATM    6  C   UNK N   1      35.328  12.166  17.305  0.00  0.00     0.012 C 
HETATM    7  C   UNK N   1      37.259   9.372  15.390  0.00  0.00     0.006 C 
HETATM    8  C   UNK N   1      37.818  10.237  14.262  0.00  0.00     0.006 C 
HETATM    9  C   UNK N   1      36.774  11.248  13.777  0.00  0.00    -0.005 C 
HETATM   10  C   UNK N   1      36.312  12.142  14.969  0.00  0.00    -0.002 C 
HETATM   11  C   UNK N   1      37.372  12.159  12.694  0.00  0.00    -0.001 C 
HETATM   12  C   UNK N   1      36.368  13.195  12.199  0.00  0.00    -0.030 C 
HETATM   13  C   UNK N   1      35.955  14.095  13.366  0.00  0.00     0.011 C 
HETATM   14  C   UNK N   1      35.334  13.239  14.487  0.00  0.00     0.006 C 
HETATM   15  C   UNK N   1      37.865  11.506  11.411  0.00  0.00     0.006 C 
HETATM   16  C   UNK N   1      37.879  12.661  10.395  0.00  0.00     0.013 C 
HETATM   17  C   UNK N   1      37.221  13.851  11.117  0.00  0.00     0.063 C 
HETATM   18  C   UNK N   1      35.111  12.556  11.578  0.00  0.00     0.016 C 
HETATM   19  C   UNK N   1      34.446  10.561  15.612  0.00  0.00     0.016 C 
ENDROOT
BRANCH  17  20
HETATM   20  C   UNK N   1      36.520  14.836  10.214  0.00  0.00     0.128 C 
HETATM   21  O   UNK N   1      36.392  16.001  10.546  0.00  0.00    -0.298 OA
HETATM   22  C   UNK N   1      35.945  14.376   8.916  0.00  0.00     0.091 C 
ENDBRANCH  17  20
BRANCH   2  23
HETATM   23  O   UNK N   1      33.981   9.593  18.324  0.00  0.00    -0.396 OA
HETATM   24  H   UNK N   1      33.053   9.837  18.182  0.00  0.00     0.210 HD
ENDBRANCH   2  23
TORSDOF 2
ENDMDL
MODEL 8
REMARK VINA RESULT:      -6.8     13.138     17.500
REMARK  2 active torsions:
REMARK  status: ('A' for Active; 'I' for Inactive)
REMARK    1  A    between atoms: C_2  and  O_23 
REMARK    2  A    between atoms: C_17  and  C_18 
ROOT
HETATM    1  C   UNK N   1      35.130  12.771  12.097  0.00  0.00     0.032 C 
HETATM    2  C   UNK N   1      36.203  13.723  12.629  0.00  0.00     0.118 C 
HETATM    3  C   UNK N   1      35.932  15.189  12.267  0.00  0.00     0.037 C 
HETATM    4  C   UNK N   1      35.026  15.391  11.043  0.00  0.00    -0.004 C 
HETATM    5  C   UNK N   1      35.217  14.278   9.974  0.00  0.00    -0.036 C 
HETATM    6  C   UNK N   1      34.855  12.909  10.589  0.00  0.00     0.012 C 
HETATM    7  C   UNK N   1      35.296  16.781  10.461  0.00  0.00     0.006 C 
HETATM    8  C   UNK N   1      34.390  17.056   9.262  0.00  0.00     0.006 C 
HETATM    9  C   UNK N   1      34.575  15.990   8.179  0.00  0.00    -0.005 C 
HETATM   10  C   UNK N   1      34.276  14.578   8.771  0.00  0.00    -0.002 C 
HETATM   11  C   UNK N   1      33.609  16.238   7.011  0.00  0.00    -0.001 C 
HETATM   12  C   UNK N   1      33.747  15.183   5.918  0.00  0.00    -0.030 C 
HETATM   13  C   UNK N   1      33.408  13.808   6.499  0.00  0.00     0.011 C 
HETATM   14  C   UNK N   1      34.355  13.492   7.673  0.00  0.00     0.006 C 
HETATM   15  C   UNK N   1      33.736  17.550   6.250  0.00  0.00     0.006 C 
HETATM   16  C   UNK N   1      33.055  17.259   4.902  0.00  0.00     0.013 C 
HETATM   17  C   UNK N   1      32.748  15.751   4.914  0.00  0.00     0.063 C 
HETATM   18  C   UNK N   1      35.161  15.143   5.306  0.00  0.00     0.016 C 
HETATM   19  C   UNK N   1      36.672  14.222   9.496  0.00  0.00     0.016 C 
ENDROOT
BRANCH  17  20
HETATM   20  C   UNK N   1      32.716  15.096   3.555  0.00  0.00     0.128 C 
HETATM   21  O   UNK N   1      33.248  15.627   2.596  0.00  0.00    -0.298 OA
HETATM   22  C   UNK N   1      31.996  13.802   3.371  0.00  0.00     0.091 C 
ENDBRANCH  17  20
BRANCH   2  23
HETATM   23  O   UNK N   1      37.463  13.344  12.163  0.00  0.00    -0.396 OA
HETATM   24  H   UNK N   1      38.379  13.579  11.949  0.00  0.00     0.210 HD
ENDBRANCH   2  23
TORSDOF 2
ENDMDL
MODEL 9
REMARK VINA RESULT:      -6.7     19.854     23.682
REMARK  2 active torsions:
REMARK  status: ('A' for Active; 'I' for Inactive)
REMARK    1  A    between atoms: C_2  and  O_23 
REMARK    2  A    between atoms: C_17  and  C_18 
ROOT
HETATM    1  C   UNK N   1      38.165  12.198   9.723  0.00  0.00     0.032 C 
HETATM    2  C   UNK N   1      37.174  13.226   9.175  0.00  0.00     0.118 C 
HETATM    3  C   UNK N   1      36.751  14.264  10.223  0.00  0.00     0.037 C 
HETATM    4  C   UNK N   1      36.915  13.807  11.680  0.00  0.00    -0.004 C 
HETATM    5  C   UNK N   1      36.670  12.281  11.855  0.00  0.00    -0.036 C 
HETATM    6  C   UNK N   1      37.700  11.498  11.012  0.00  0.00     0.012 C 
HETATM    7  C   UNK N   1      35.969  14.631  12.558  0.00  0.00     0.006 C 
HETATM    8  C   UNK N   1      36.118  14.250  14.030  0.00  0.00     0.006 C 
HETATM    9  C   UNK N   1      35.857  12.755  14.238  0.00  0.00    -0.005 C 
HETATM   10  C   UNK N   1      36.839  11.920  13.359  0.00  0.00    -0.002 C 
HETATM   11  C   UNK N   1      36.080  12.370  15.709  0.00  0.00    -0.001 C 
HETATM   12  C   UNK N   1      35.850  10.883  15.954  0.00  0.00    -0.030 C 
HETATM   13  C   UNK N   1      36.848  10.075  15.121  0.00  0.00     0.011 C 
HETATM   14  C   UNK N   1      36.667  10.407  13.627  0.00  0.00     0.006 C 
HETATM   15  C   UNK N   1      35.203  13.040  16.758  0.00  0.00     0.006 C 
HETATM   16  C   UNK N   1      35.292  12.091  17.966  0.00  0.00     0.013 C 
HETATM   17  C   UNK N   1      36.063  10.857  17.465  0.00  0.00     0.063 C 
HETATM   18  C   UNK N   1      34.416  10.438  15.605  0.00  0.00     0.016 C 
HETATM   19  C   UNK N   1      35.265  11.895  11.380  0.00  0.00     0.016 C 
ENDROOT
BRANCH  17  20
HETATM   20  C   UNK N   1      35.726   9.565  18.168  0.00  0.00     0.128 C 
HETATM   21  O   UNK N   1      36.462   8.598  18.077  0.00  0.00    -0.298 OA
HETATM   22  C   UNK N   1      34.464   9.455  18.957  0.00  0.00     0.091 C 
ENDBRANCH  17  20
BRANCH   2  23
HETATM   23  O   UNK N   1      36.047  12.588   8.657  0.00  0.00    -0.396 OA
HETATM   24  H   UNK N   1      35.453  12.419   7.909  0.00  0.00     0.210 HD
ENDBRANCH   2  23
TORSDOF 2
ENDMDL
