MODEL 1
REMARK VINA RESULT:      -5.8      0.000      0.000
REMARK  3 active torsions:
REMARK  status: ('A' for Active; 'I' for Inactive)
REMARK    1  A    between atoms: C_9  and  N_8 
REMARK    2  A    between atoms: C_12  and  C_14 
REMARK    3  A    between atoms: C_14  and  O_15 
ROOT
HETATM    1  C   UNK N   1      29.783  24.524  -4.344  0.00  0.00     0.128 A 
HETATM    2  C   UNK N   1      30.816  23.771  -3.790  0.00  0.00     0.117 A 
HETATM    3  C   UNK N   1      30.547  22.972  -2.682  0.00  0.00     0.272 A 
HETATM    4  O   UNK N   1      31.429  22.309  -2.165  0.00  0.00    -0.266 OA
HETATM    5  N   UNK N   1      29.281  22.939  -2.164  0.00  0.00    -0.274 N 
HETATM    6  C   UNK N   1      28.276  23.690  -2.710  0.00  0.00     0.331 A 
HETATM    7  O   UNK N   1      27.170  23.660  -2.193  0.00  0.00    -0.246 OA
HETATM    8  N   UNK N   1      28.520  24.485  -3.821  0.00  0.00    -0.281 N 
HETATM    9 Cl   UNK N   1      32.430  23.869  -4.476  0.00  0.00    -0.077 Cl
HETATM   10  H   UNK N   1      29.091  22.367  -1.386  0.00  0.00     0.173 HD
ENDROOT
BRANCH   8  11
HETATM   11  C   UNK N   1      27.507  25.402  -4.384  0.00  0.00     0.235 C 
HETATM   12  C   UNK N   1      27.630  25.698  -5.863  0.00  0.00     0.094 C 
HETATM   13  C   UNK N   1      26.662  26.819  -5.920  0.00  0.00     0.205 C 
HETATM   14  C   UNK N   1      27.060  27.586  -4.680  0.00  0.00     0.181 C 
HETATM   15  F   UNK N   1      26.797  27.571  -7.072  0.00  0.00    -0.246 F 
HETATM   16  O   UNK N   1      27.451  26.641  -3.704  0.00  0.00    -0.356 OA
BRANCH  14  17
HETATM   17  C   UNK N   1      25.900  28.425  -4.168  0.00  0.00     0.199 C 
BRANCH  17  18
HETATM   18  O   UNK N   1      25.421  27.914  -2.960  0.00  0.00    -0.398 OA
HETATM   19  H   UNK N   1      25.988  27.820  -2.179  0.00  0.00     0.209 HD
ENDBRANCH  17  18
ENDBRANCH  14  17
ENDBRANCH   8  11
TORSDOF 3
ENDMDL
MODEL 2
REMARK VINA RESULT:      -5.7     15.456     17.927
REMARK  3 active torsions:
REMARK  status: ('A' for Active; 'I' for Inactive)
REMARK    1  A    between atoms: C_9  and  N_8 
REMARK    2  A    between atoms: C_12  and  C_14 
REMARK    3  A    between atoms: C_14  and  O_15 
ROOT
HETATM    1  C   UNK N   1      34.347  14.207  10.524  0.00  0.00     0.128 A 
HETATM    2  C   UNK N   1      35.078  13.581  11.532  0.00  0.00     0.117 A 
HETATM    3  C   UNK N   1      36.068  14.304  12.193  0.00  0.00     0.272 A 
HETATM    4  O   UNK N   1      36.735  13.786  13.071  0.00  0.00    -0.266 OA
HETATM    5  N   UNK N   1      36.300  15.606  11.844  0.00  0.00    -0.274 N 
HETATM    6  C   UNK N   1      35.584  16.207  10.845  0.00  0.00     0.331 A 
HETATM    7  O   UNK N   1      35.849  17.359  10.540  0.00  0.00    -0.246 OA
HETATM    8  N   UNK N   1      34.585  15.509  10.182  0.00  0.00    -0.281 N 
HETATM    9 Cl   UNK N   1      34.759  11.899  11.924  0.00  0.00    -0.077 Cl
HETATM   10  H   UNK N   1      36.995  16.118  12.317  0.00  0.00     0.173 HD
ENDROOT
BRANCH   8  11
HETATM   11  C   UNK N   1      33.856  16.066   9.022  0.00  0.00     0.235 C 
HETATM   12  C   UNK N   1      32.441  15.566   8.827  0.00  0.00     0.094 C 
HETATM   13  C   UNK N   1      32.223  16.121   7.470  0.00  0.00     0.205 C 
HETATM   14  C   UNK N   1      33.539  15.769   6.816  0.00  0.00     0.181 C 
HETATM   15  F   UNK N   1      31.144  15.539   6.832  0.00  0.00    -0.246 F 
HETATM   16  O   UNK N   1      34.546  15.882   7.802  0.00  0.00    -0.356 OA
BRANCH  14  17
HETATM   17  C   UNK N   1      33.831  16.702   5.651  0.00  0.00     0.199 C 
BRANCH  17  18
HETATM   18  O   UNK N   1      34.207  17.963   6.117  0.00  0.00    -0.398 OA
HETATM   19  H   UNK N   1      35.112  18.155   6.410  0.00  0.00     0.209 HD
ENDBRANCH  17  18
ENDBRANCH  14  17
ENDBRANCH   8  11
TORSDOF 3
ENDMDL
MODEL 3
REMARK VINA RESULT:      -5.7     16.170     17.566
REMARK  3 active torsions:
REMARK  status: ('A' for Active; 'I' for Inactive)
REMARK    1  A    between atoms: C_9  and  N_8 
REMARK    2  A    between atoms: C_12  and  C_14 
REMARK    3  A    between atoms: C_14  and  O_15 
ROOT
HETATM    1  C   UNK N   1      22.511  13.924   8.661  0.00  0.00     0.128 A 
HETATM    2  C   UNK N   1      23.053  13.064   9.614  0.00  0.00     0.117 A 
HETATM    3  C   UNK N   1      22.235  12.596  10.639  0.00  0.00     0.272 A 
HETATM    4  O   UNK N   1      22.677  11.852  11.497  0.00  0.00    -0.266 OA
HETATM    5  N   UNK N   1      20.924  12.985  10.689  0.00  0.00    -0.274 N 
HETATM    6  C   UNK N   1      20.406  13.838   9.753  0.00  0.00     0.331 A 
HETATM    7  O   UNK N   1      19.241  14.189   9.857  0.00  0.00    -0.246 OA
HETATM    8  N   UNK N   1      21.200  14.306   8.717  0.00  0.00    -0.281 N 
HETATM    9 Cl   UNK N   1      24.749  12.616   9.521  0.00  0.00    -0.077 Cl
HETATM   10  H   UNK N   1      20.346  12.646  11.410  0.00  0.00     0.173 HD
ENDROOT
BRANCH   8  11
HETATM   11  C   UNK N   1      20.730  15.316   7.744  0.00  0.00     0.235 C 
HETATM   12  C   UNK N   1      20.362  14.793   6.372  0.00  0.00     0.094 C 
HETATM   13  C   UNK N   1      20.247  16.103   5.688  0.00  0.00     0.205 C 
HETATM   14  C   UNK N   1      21.472  16.803   6.230  0.00  0.00     0.181 C 
HETATM   15  F   UNK N   1      20.273  15.981   4.312  0.00  0.00    -0.246 F 
HETATM   16  O   UNK N   1      21.649  16.375   7.565  0.00  0.00    -0.356 OA
BRANCH  14  17
HETATM   17  C   UNK N   1      21.302  18.313   6.175  0.00  0.00     0.199 C 
BRANCH  17  18
HETATM   18  O   UNK N   1      20.841  18.797   7.401  0.00  0.00    -0.398 OA
HETATM   19  H   UNK N   1      19.912  19.035   7.545  0.00  0.00     0.209 HD
ENDBRANCH  17  18
ENDBRANCH  14  17
ENDBRANCH   8  11
TORSDOF 3
ENDMDL
MODEL 4
REMARK VINA RESULT:      -5.7     17.519     18.708
REMARK  3 active torsions:
REMARK  status: ('A' for Active; 'I' for Inactive)
REMARK    1  A    between atoms: C_9  and  N_8 
REMARK    2  A    between atoms: C_12  and  C_14 
REMARK    3  A    between atoms: C_14  and  O_15 
ROOT
HETATM    1  C   UNK N   1      22.613  13.694   9.335  0.00  0.00     0.128 A 
HETATM    2  C   UNK N   1      23.505  12.991  10.143  0.00  0.00     0.117 A 
HETATM    3  C   UNK N   1      23.000  12.186  11.160  0.00  0.00     0.272 A 
HETATM    4  O   UNK N   1      23.751  11.567  11.894  0.00  0.00    -0.266 OA
HETATM    5  N   UNK N   1      21.648  12.100  11.345  0.00  0.00    -0.274 N 
HETATM    6  C   UNK N   1      20.781  12.802  10.552  0.00  0.00     0.331 A 
HETATM    7  O   UNK N   1      19.583  12.724  10.776  0.00  0.00    -0.246 OA
HETATM    8  N   UNK N   1      21.263  13.600   9.525  0.00  0.00    -0.281 N 
HETATM    9 Cl   UNK N   1      25.234  13.158   9.882  0.00  0.00    -0.077 Cl
HETATM   10  H   UNK N   1      21.293  11.524  12.060  0.00  0.00     0.173 HD
ENDROOT
BRANCH   8  11
HETATM   11  C   UNK N   1      20.386  14.468   8.711  0.00  0.00     0.235 C 
HETATM   12  C   UNK N   1      21.047  15.171   7.545  0.00  0.00     0.094 C 
HETATM   13  C   UNK N   1      19.939  16.102   7.223  0.00  0.00     0.205 C 
HETATM   14  C   UNK N   1      19.549  16.553   8.612  0.00  0.00     0.181 C 
HETATM   15  F   UNK N   1      20.350  17.151   6.422  0.00  0.00    -0.246 F 
HETATM   16  O   UNK N   1      19.720  15.451   9.479  0.00  0.00    -0.356 OA
BRANCH  14  17
HETATM   17  C   UNK N   1      18.106  17.031   8.640  0.00  0.00     0.199 C 
BRANCH  17  18
HETATM   18  O   UNK N   1      17.961  18.096   9.531  0.00  0.00    -0.398 OA
HETATM   19  H   UNK N   1      18.708  18.656   9.791  0.00  0.00     0.209 HD
ENDBRANCH  17  18
ENDBRANCH  14  17
ENDBRANCH   8  11
TORSDOF 3
ENDMDL
MODEL 5
REMARK VINA RESULT:      -5.6     20.303     22.288
REMARK  3 active torsions:
REMARK  status: ('A' for Active; 'I' for Inactive)
REMARK    1  A    between atoms: C_9  and  N_8 
REMARK    2  A    between atoms: C_12  and  C_14 
REMARK    3  A    between atoms: C_14  and  O_15 
ROOT
HETATM    1  C   UNK N   1      35.048  12.739  13.762  0.00  0.00     0.128 A 
HETATM    2  C   UNK N   1      34.630  12.013  14.876  0.00  0.00     0.117 A 
HETATM    3  C   UNK N   1      35.133  12.353  16.129  0.00  0.00     0.272 A 
HETATM    4  O   UNK N   1      34.799  11.732  17.122  0.00  0.00    -0.266 OA
HETATM    5  N   UNK N   1      36.021  13.387  16.242  0.00  0.00    -0.274 N 
HETATM    6  C   UNK N   1      36.433  14.087  15.141  0.00  0.00     0.331 A 
HETATM    7  O   UNK N   1      37.256  14.978  15.282  0.00  0.00    -0.246 OA
HETATM    8  N   UNK N   1      35.935  13.773  13.885  0.00  0.00    -0.281 N 
HETATM    9 Cl   UNK N   1      33.509  10.676  14.673  0.00  0.00    -0.077 Cl
HETATM   10  H   UNK N   1      36.370  13.631  17.130  0.00  0.00     0.173 HD
ENDROOT
BRANCH   8  11
HETATM   11  C   UNK N   1      36.426  14.415  12.647  0.00  0.00     0.235 C 
HETATM   12  C   UNK N   1      35.472  15.383  11.980  0.00  0.00     0.094 C 
HETATM   13  C   UNK N   1      36.213  15.540  10.705  0.00  0.00     0.205 C 
HETATM   14  C   UNK N   1      36.584  14.101  10.426  0.00  0.00     0.181 C 
HETATM   15  F   UNK N   1      35.430  16.087   9.707  0.00  0.00    -0.246 F 
HETATM   16  O   UNK N   1      36.839  13.480  11.670  0.00  0.00    -0.356 OA
BRANCH  14  17
HETATM   17  C   UNK N   1      37.812  14.023   9.534  0.00  0.00     0.199 C 
BRANCH  17  18
HETATM   18  O   UNK N   1      38.761  14.972   9.923  0.00  0.00    -0.398 OA
HETATM   19  H   UNK N   1      39.219  14.923  10.776  0.00  0.00     0.209 HD
ENDBRANCH  17  18
ENDBRANCH  14  17
ENDBRANCH   8  11
TORSDOF 3
ENDMDL
MODEL 6
REMARK VINA RESULT:      -5.5     11.868     13.108
REMARK  3 active torsions:
REMARK  status: ('A' for Active; 'I' for Inactive)
REMARK    1  A    between atoms: C_9  and  N_8 
REMARK    2  A    between atoms: C_12  and  C_14 
REMARK    3  A    between atoms: C_14  and  O_15 
ROOT
HETATM    1  C   UNK N   1      30.411  17.427   6.642  0.00  0.00     0.128 A 
HETATM    2  C   UNK N   1      31.567  16.837   7.152  0.00  0.00     0.117 A 
HETATM    3  C   UNK N   1      31.629  16.546   8.512  0.00  0.00     0.272 A 
HETATM    4  O   UNK N   1      32.628  16.041   8.994  0.00  0.00    -0.266 OA
HETATM    5  N   UNK N   1      30.563  16.840   9.316  0.00  0.00    -0.274 N 
HETATM    6  C   UNK N   1      29.437  17.428   8.807  0.00  0.00     0.331 A 
HETATM    7  O   UNK N   1      28.523  17.708   9.567  0.00  0.00    -0.246 OA
HETATM    8  N   UNK N   1      29.349  17.716   7.452  0.00  0.00    -0.281 N 
HETATM    9 Cl   UNK N   1      32.919  16.504   6.082  0.00  0.00    -0.077 Cl
HETATM   10  H   UNK N   1      30.606  16.626  10.275  0.00  0.00     0.173 HD
ENDROOT
BRANCH   8  11
HETATM   11  C   UNK N   1      28.209  18.453   6.866  0.00  0.00     0.235 C 
HETATM   12  C   UNK N   1      28.167  18.512   5.354  0.00  0.00     0.094 C 
HETATM   13  C   UNK N   1      27.100  19.535   5.228  0.00  0.00     0.205 C 
HETATM   14  C   UNK N   1      27.541  20.520   6.286  0.00  0.00     0.181 C 
HETATM   15  F   UNK N   1      27.059  20.097   3.967  0.00  0.00    -0.246 F 
HETATM   16  O   UNK N   1      28.105  19.778   7.348  0.00  0.00    -0.356 OA
BRANCH  14  17
HETATM   17  C   UNK N   1      26.363  21.343   6.782  0.00  0.00     0.199 C 
BRANCH  17  18
HETATM   18  O   UNK N   1      25.958  20.906   8.045  0.00  0.00    -0.398 OA
HETATM   19  H   UNK N   1      25.940  19.966   8.284  0.00  0.00     0.209 HD
ENDBRANCH  17  18
ENDBRANCH  14  17
ENDBRANCH   8  11
TORSDOF 3
ENDMDL
MODEL 7
REMARK VINA RESULT:      -5.5      3.523      5.489
REMARK  3 active torsions:
REMARK  status: ('A' for Active; 'I' for Inactive)
REMARK    1  A    between atoms: C_9  and  N_8 
REMARK    2  A    between atoms: C_12  and  C_14 
REMARK    3  A    between atoms: C_14  and  O_15 
ROOT
HETATM    1  C   UNK N   1      27.851  23.057  -6.597  0.00  0.00     0.128 A 
HETATM    2  C   UNK N   1      26.913  22.736  -7.576  0.00  0.00     0.117 A 
HETATM    3  C   UNK N   1      25.573  23.040  -7.349  0.00  0.00     0.272 A 
HETATM    4  O   UNK N   1      24.724  22.762  -8.178  0.00  0.00    -0.266 OA
HETATM    5  N   UNK N   1      25.207  23.644  -6.178  0.00  0.00    -0.274 N 
HETATM    6  C   UNK N   1      26.135  23.946  -5.220  0.00  0.00     0.331 A 
HETATM    7  O   UNK N   1      25.759  24.452  -4.173  0.00  0.00    -0.246 OA
HETATM    8  N   UNK N   1      27.477  23.663  -5.431  0.00  0.00    -0.281 N 
HETATM    9 Cl   UNK N   1      27.431  21.935  -9.051  0.00  0.00    -0.077 Cl
HETATM   10  H   UNK N   1      24.260  23.865  -6.023  0.00  0.00     0.173 HD
ENDROOT
BRANCH   8  11
HETATM   11  C   UNK N   1      28.508  23.861  -4.389  0.00  0.00     0.235 C 
HETATM   12  C   UNK N   1      29.301  25.147  -4.478  0.00  0.00     0.094 C 
HETATM   13  C   UNK N   1      30.348  24.799  -3.488  0.00  0.00     0.205 C 
HETATM   14  C   UNK N   1      30.646  23.374  -3.894  0.00  0.00     0.181 C 
HETATM   15  F   UNK N   1      31.456  25.620  -3.586  0.00  0.00    -0.246 F 
HETATM   16  O   UNK N   1      29.432  22.792  -4.323  0.00  0.00    -0.356 OA
BRANCH  14  17
HETATM   17  C   UNK N   1      31.227  22.590  -2.728  0.00  0.00     0.199 C 
BRANCH  17  18
HETATM   18  O   UNK N   1      30.595  22.947  -1.535  0.00  0.00    -0.398 OA
HETATM   19  H   UNK N   1      31.075  23.004  -0.695  0.00  0.00     0.209 HD
ENDBRANCH  17  18
ENDBRANCH  14  17
ENDBRANCH   8  11
TORSDOF 3
ENDMDL
MODEL 8
REMARK VINA RESULT:      -5.4     16.749     19.647
REMARK  3 active torsions:
REMARK  status: ('A' for Active; 'I' for Inactive)
REMARK    1  A    between atoms: C_9  and  N_8 
REMARK    2  A    between atoms: C_12  and  C_14 
REMARK    3  A    between atoms: C_14  and  O_15 
ROOT
HETATM    1  C   UNK N   1      33.916  14.901   9.187  0.00  0.00     0.128 A 
HETATM    2  C   UNK N   1      33.124  15.632   8.303  0.00  0.00     0.117 A 
HETATM    3  C   UNK N   1      33.311  17.009   8.214  0.00  0.00     0.272 A 
HETATM    4  O   UNK N   1      32.628  17.681   7.461  0.00  0.00    -0.266 OA
HETATM    5  N   UNK N   1      34.262  17.613   8.988  0.00  0.00    -0.274 N 
HETATM    6  C   UNK N   1      35.028  16.888   9.860  0.00  0.00     0.331 A 
HETATM    7  O   UNK N   1      35.840  17.473  10.559  0.00  0.00    -0.246 OA
HETATM    8  N   UNK N   1      34.867  15.513   9.956  0.00  0.00    -0.281 N 
HETATM    9 Cl   UNK N   1      31.897  14.812   7.351  0.00  0.00    -0.077 Cl
HETATM   10  H   UNK N   1      34.398  18.586   8.918  0.00  0.00     0.173 HD
ENDROOT
BRANCH   8  11
HETATM   11  C   UNK N   1      35.582  14.693  10.957  0.00  0.00     0.235 C 
HETATM   12  C   UNK N   1      36.003  13.312  10.504  0.00  0.00     0.094 C 
HETATM   13  C   UNK N   1      36.386  12.778  11.833  0.00  0.00     0.205 C 
HETATM   14  C   UNK N   1      35.232  13.281  12.671  0.00  0.00     0.181 C 
HETATM   15  F   UNK N   1      36.480  11.399  11.837  0.00  0.00    -0.246 F 
HETATM   16  O   UNK N   1      34.858  14.545  12.163  0.00  0.00    -0.356 OA
BRANCH  14  17
HETATM   17  C   UNK N   1      35.637  13.396  14.132  0.00  0.00     0.199 C 
BRANCH  17  18
HETATM   18  O   UNK N   1      36.984  13.747  14.241  0.00  0.00    -0.398 OA
HETATM   19  H   UNK N   1      37.268  14.575  14.659  0.00  0.00     0.209 HD
ENDBRANCH  17  18
ENDBRANCH  14  17
ENDBRANCH   8  11
TORSDOF 3
ENDMDL
MODEL 9
REMARK VINA RESULT:      -5.4     13.049     15.308
REMARK  3 active torsions:
REMARK  status: ('A' for Active; 'I' for Inactive)
REMARK    1  A    between atoms: C_9  and  N_8 
REMARK    2  A    between atoms: C_12  and  C_14 
REMARK    3  A    between atoms: C_14  and  O_15 
ROOT
HETATM    1  C   UNK N   1      33.732  15.753   8.412  0.00  0.00     0.128 A 
HETATM    2  C   UNK N   1      34.420  15.386   9.567  0.00  0.00     0.117 A 
HETATM    3  C   UNK N   1      35.164  16.351  10.241  0.00  0.00     0.272 A 
HETATM    4  O   UNK N   1      35.788  16.063  11.248  0.00  0.00    -0.266 OA
HETATM    5  N   UNK N   1      35.205  17.631   9.761  0.00  0.00    -0.274 N 
HETATM    6  C   UNK N   1      34.534  17.977   8.620  0.00  0.00     0.331 A 
HETATM    7  O   UNK N   1      34.628  19.122   8.206  0.00  0.00    -0.246 OA
HETATM    8  N   UNK N   1      33.776  17.035   7.940  0.00  0.00    -0.281 N 
HETATM    9 Cl   UNK N   1      34.358  13.723  10.127  0.00  0.00    -0.077 Cl
HETATM   10  H   UNK N   1      35.725  18.312  10.244  0.00  0.00     0.173 HD
ENDROOT
BRANCH   8  11
HETATM   11  C   UNK N   1      33.124  17.320   6.644  0.00  0.00     0.235 C 
HETATM   12  C   UNK N   1      31.617  17.182   6.616  0.00  0.00     0.094 C 
HETATM   13  C   UNK N   1      31.440  17.259   5.146  0.00  0.00     0.205 C 
HETATM   14  C   UNK N   1      32.566  16.360   4.689  0.00  0.00     0.181 C 
HETATM   15  F   UNK N   1      30.201  16.801   4.742  0.00  0.00    -0.246 F 
HETATM   16  O   UNK N   1      33.644  16.540   5.585  0.00  0.00    -0.356 OA
BRANCH  14  17
HETATM   17  C   UNK N   1      32.992  16.707   3.271  0.00  0.00     0.199 C 
BRANCH  17  18
HETATM   18  O   UNK N   1      31.951  17.339   2.588  0.00  0.00    -0.398 OA
HETATM   19  H   UNK N   1      31.424  18.045   2.993  0.00  0.00     0.209 HD
ENDBRANCH  17  18
ENDBRANCH  14  17
ENDBRANCH   8  11
TORSDOF 3
ENDMDL
