MODEL 1
REMARK VINA RESULT:      -7.4      0.000      0.000
REMARK  2 active torsions:
REMARK  status: ('A' for Active; 'I' for Inactive)
REMARK    1  A    between atoms: C_13  and  O_20 
REMARK    2  A    between atoms: C_14  and  O_19 
ROOT
HETATM    1  C   UNK N   1      25.503  24.046  -5.865  0.00  0.00     0.001 A 
HETATM    2  C   UNK N   1      26.539  24.348  -4.980  0.00  0.00     0.001 A 
HETATM    3  C   UNK N   1      27.795  23.766  -5.154  0.00  0.00     0.008 A 
HETATM    4  C   UNK N   1      28.031  22.861  -6.200  0.00  0.00    -0.040 A 
HETATM    5  C   UNK N   1      26.983  22.579  -7.106  0.00  0.00    -0.034 A 
HETATM    6  C   UNK N   1      25.726  23.169  -6.928  0.00  0.00     0.009 A 
HETATM    7  C   UNK N   1      27.195  21.657  -8.278  0.00  0.00     0.153 C 
HETATM    8  N   UNK N   1      28.613  21.476  -8.598  0.00  0.00    -0.412 N 
HETATM    9  C   UNK N   1      29.324  21.059  -7.397  0.00  0.00     0.090 C 
HETATM   10  C   UNK N   1      29.402  22.234  -6.414  0.00  0.00     0.075 C 
HETATM   11  C   UNK N   1      30.266  21.905  -5.202  0.00  0.00    -0.038 A 
HETATM   12  C   UNK N   1      30.152  22.644  -4.016  0.00  0.00     0.047 A 
HETATM   13  C   UNK N   1      30.968  22.379  -2.919  0.00  0.00     0.099 A 
HETATM   14  C   UNK N   1      31.932  21.369  -2.997  0.00  0.00     0.099 A 
HETATM   15  C   UNK N   1      32.068  20.627  -4.174  0.00  0.00     0.047 A 
HETATM   16  C   UNK N   1      31.251  20.888  -5.279  0.00  0.00    -0.048 A 
HETATM   17  C   UNK N   1      31.458  20.069  -6.527  0.00  0.00     0.041 C 
HETATM   18  C   UNK N   1      30.727  20.606  -7.756  0.00  0.00     0.030 C 
HETATM   19  H   UNK N   1      29.034  21.619  -9.516  0.00  0.00     0.153 HD
ENDROOT
BRANCH  13  20
HETATM   20  O   UNK N   1      30.826  23.099  -1.793  0.00  0.00    -0.358 OA
HETATM   21  H   UNK N   1      30.699  22.665  -0.972  0.00  0.00     0.217 HD
ENDBRANCH  13  20
BRANCH  14  22
HETATM   22  O   UNK N   1      32.731  21.111  -1.948  0.00  0.00    -0.358 OA
HETATM   23  H   UNK N   1      33.306  21.768  -1.608  0.00  0.00     0.217 HD
ENDBRANCH  14  22
TORSDOF 2
ENDMDL
MODEL 2
REMARK VINA RESULT:      -7.3     11.005     12.562
REMARK  2 active torsions:
REMARK  status: ('A' for Active; 'I' for Inactive)
REMARK    1  A    between atoms: C_13  and  O_20 
REMARK    2  A    between atoms: C_14  and  O_19 
ROOT
HETATM    1  C   UNK N   1      25.712  16.146   3.148  0.00  0.00     0.001 A 
HETATM    2  C   UNK N   1      25.668  16.930   4.302  0.00  0.00     0.001 A 
HETATM    3  C   UNK N   1      26.855  17.356   4.899  0.00  0.00     0.008 A 
HETATM    4  C   UNK N   1      28.100  16.990   4.367  0.00  0.00    -0.040 A 
HETATM    5  C   UNK N   1      28.135  16.216   3.185  0.00  0.00    -0.034 A 
HETATM    6  C   UNK N   1      26.942  15.795   2.588  0.00  0.00     0.009 A 
HETATM    7  C   UNK N   1      29.443  15.840   2.540  0.00  0.00     0.153 C 
HETATM    8  N   UNK N   1      30.551  16.689   2.985  0.00  0.00    -0.412 N 
HETATM    9  C   UNK N   1      30.601  16.684   4.441  0.00  0.00     0.090 C 
HETATM   10  C   UNK N   1      29.403  17.464   4.997  0.00  0.00     0.075 C 
HETATM   11  C   UNK N   1      29.482  17.624   6.511  0.00  0.00    -0.038 A 
HETATM   12  C   UNK N   1      28.337  17.928   7.262  0.00  0.00     0.047 A 
HETATM   13  C   UNK N   1      28.409  18.118   8.640  0.00  0.00     0.099 A 
HETATM   14  C   UNK N   1      29.641  18.022   9.294  0.00  0.00     0.099 A 
HETATM   15  C   UNK N   1      30.795  17.729   8.561  0.00  0.00     0.047 A 
HETATM   16  C   UNK N   1      30.730  17.536   7.177  0.00  0.00    -0.048 A 
HETATM   17  C   UNK N   1      32.011  17.243   6.439  0.00  0.00     0.041 C 
HETATM   18  C   UNK N   1      31.889  17.327   4.918  0.00  0.00     0.030 C 
HETATM   19  H   UNK N   1      31.187  17.201   2.373  0.00  0.00     0.153 HD
ENDROOT
BRANCH  13  20
HETATM   20  O   UNK N   1      27.291  18.398   9.332  0.00  0.00    -0.358 OA
HETATM   21  H   UNK N   1      26.517  17.887   9.199  0.00  0.00     0.217 HD
ENDBRANCH  13  20
BRANCH  14  22
HETATM   22  O   UNK N   1      29.723  18.214  10.621  0.00  0.00    -0.358 OA
HETATM   23  H   UNK N   1      29.421  17.560  11.220  0.00  0.00     0.217 HD
ENDBRANCH  14  22
TORSDOF 2
ENDMDL
MODEL 3
REMARK VINA RESULT:      -7.3     21.700     24.631
REMARK  2 active torsions:
REMARK  status: ('A' for Active; 'I' for Inactive)
REMARK    1  A    between atoms: C_13  and  O_20 
REMARK    2  A    between atoms: C_14  and  O_19 
ROOT
HETATM    1  C   UNK N   1      35.279  13.051  19.561  0.00  0.00     0.001 A 
HETATM    2  C   UNK N   1      35.156  13.818  18.401  0.00  0.00     0.001 A 
HETATM    3  C   UNK N   1      35.177  13.197  17.151  0.00  0.00     0.008 A 
HETATM    4  C   UNK N   1      35.341  11.808  17.039  0.00  0.00    -0.040 A 
HETATM    5  C   UNK N   1      35.440  11.037  18.220  0.00  0.00    -0.034 A 
HETATM    6  C   UNK N   1      35.414  11.664  19.470  0.00  0.00     0.009 A 
HETATM    7  C   UNK N   1      35.563   9.537  18.160  0.00  0.00     0.153 C 
HETATM    8  N   UNK N   1      35.136   8.991  16.870  0.00  0.00    -0.412 N 
HETATM    9  C   UNK N   1      35.854   9.674  15.802  0.00  0.00     0.090 C 
HETATM   10  C   UNK N   1      35.346  11.116  15.683  0.00  0.00     0.075 C 
HETATM   11  C   UNK N   1      35.952  11.835  14.484  0.00  0.00    -0.038 A 
HETATM   12  C   UNK N   1      35.957  13.236  14.413  0.00  0.00     0.047 A 
HETATM   13  C   UNK N   1      36.469  13.900  13.301  0.00  0.00     0.099 A 
HETATM   14  C   UNK N   1      36.975  13.167  12.224  0.00  0.00     0.099 A 
HETATM   15  C   UNK N   1      36.970  11.769  12.271  0.00  0.00     0.047 A 
HETATM   16  C   UNK N   1      36.458  11.096  13.385  0.00  0.00    -0.048 A 
HETATM   17  C   UNK N   1      36.461   9.589  13.370  0.00  0.00     0.041 C 
HETATM   18  C   UNK N   1      35.636   8.950  14.486  0.00  0.00     0.030 C 
HETATM   19  H   UNK N   1      34.446   8.251  16.740  0.00  0.00     0.153 HD
ENDROOT
BRANCH  13  20
HETATM   20  O   UNK N   1      36.469  15.244  13.269  0.00  0.00    -0.358 OA
HETATM   21  H   UNK N   1      37.280  15.713  13.296  0.00  0.00     0.217 HD
ENDBRANCH  13  20
BRANCH  14  22
HETATM   22  O   UNK N   1      37.463  13.796  11.142  0.00  0.00    -0.358 OA
HETATM   23  H   UNK N   1      36.943  13.897  10.370  0.00  0.00     0.217 HD
ENDBRANCH  14  22
TORSDOF 2
ENDMDL
MODEL 4
REMARK VINA RESULT:      -7.1     11.705     13.338
REMARK  2 active torsions:
REMARK  status: ('A' for Active; 'I' for Inactive)
REMARK    1  A    between atoms: C_13  and  O_20 
REMARK    2  A    between atoms: C_14  and  O_19 
ROOT
HETATM    1  C   UNK N   1      27.001  19.954   3.437  0.00  0.00     0.001 A 
HETATM    2  C   UNK N   1      25.755  20.564   3.285  0.00  0.00     0.001 A 
HETATM    3  C   UNK N   1      24.607  19.929   3.760  0.00  0.00     0.008 A 
HETATM    4  C   UNK N   1      24.682  18.671   4.374  0.00  0.00    -0.040 A 
HETATM    5  C   UNK N   1      25.950  18.070   4.546  0.00  0.00    -0.034 A 
HETATM    6  C   UNK N   1      27.098  18.713   4.071  0.00  0.00     0.009 A 
HETATM    7  C   UNK N   1      26.095  16.745   5.247  0.00  0.00     0.153 C 
HETATM    8  N   UNK N   1      24.925  16.412   6.063  0.00  0.00    -0.412 N 
HETATM    9  C   UNK N   1      23.727  16.504   5.238  0.00  0.00     0.090 C 
HETATM   10  C   UNK N   1      23.439  17.975   4.915  0.00  0.00     0.075 C 
HETATM   11  C   UNK N   1      22.113  18.148   4.182  0.00  0.00    -0.038 A 
HETATM   12  C   UNK N   1      21.846  19.310   3.443  0.00  0.00     0.047 A 
HETATM   13  C   UNK N   1      20.620  19.494   2.808  0.00  0.00     0.099 A 
HETATM   14  C   UNK N   1      19.627  18.516   2.914  0.00  0.00     0.099 A 
HETATM   15  C   UNK N   1      19.871  17.355   3.653  0.00  0.00     0.047 A 
HETATM   16  C   UNK N   1      21.100  17.163   4.294  0.00  0.00    -0.048 A 
HETATM   17  C   UNK N   1      21.296  15.901   5.092  0.00  0.00     0.041 C 
HETATM   18  C   UNK N   1      22.543  15.908   5.976  0.00  0.00     0.030 C 
HETATM   19  H   UNK N   1      24.946  16.157   7.050  0.00  0.00     0.153 HD
ENDROOT
BRANCH  13  20
HETATM   20  O   UNK N   1      20.400  20.615   2.100  0.00  0.00    -0.358 OA
HETATM   21  H   UNK N   1      20.612  20.641   1.187  0.00  0.00     0.217 HD
ENDBRANCH  13  20
BRANCH  14  22
HETATM   22  O   UNK N   1      18.438  18.688   2.312  0.00  0.00    -0.358 OA
HETATM   23  H   UNK N   1      18.346  19.273   1.588  0.00  0.00     0.217 HD
ENDBRANCH  14  22
TORSDOF 2
ENDMDL
MODEL 5
REMARK VINA RESULT:      -7.0     21.620     24.455
REMARK  2 active torsions:
REMARK  status: ('A' for Active; 'I' for Inactive)
REMARK    1  A    between atoms: C_13  and  O_20 
REMARK    2  A    between atoms: C_14  and  O_19 
ROOT
HETATM    1  C   UNK N   1      35.477  13.939  11.791  0.00  0.00     0.001 A 
HETATM    2  C   UNK N   1      35.793  14.534  13.014  0.00  0.00     0.001 A 
HETATM    3  C   UNK N   1      35.990  13.739  14.144  0.00  0.00     0.008 A 
HETATM    4  C   UNK N   1      35.856  12.344  14.075  0.00  0.00    -0.040 A 
HETATM    5  C   UNK N   1      35.559  11.748  12.828  0.00  0.00    -0.034 A 
HETATM    6  C   UNK N   1      35.366  12.550  11.698  0.00  0.00     0.009 A 
HETATM    7  C   UNK N   1      35.456  10.253  12.686  0.00  0.00     0.153 C 
HETATM    8  N   UNK N   1      36.101   9.540  13.791  0.00  0.00    -0.412 N 
HETATM    9  C   UNK N   1      35.574  10.038  15.054  0.00  0.00     0.090 C 
HETATM   10  C   UNK N   1      36.087  11.463  15.296  0.00  0.00     0.075 C 
HETATM   11  C   UNK N   1      35.693  11.983  16.673  0.00  0.00    -0.038 A 
HETATM   12  C   UNK N   1      35.692  13.359  16.950  0.00  0.00     0.047 A 
HETATM   13  C   UNK N   1      35.375  13.839  18.218  0.00  0.00     0.099 A 
HETATM   14  C   UNK N   1      35.065  12.943  19.245  0.00  0.00     0.099 A 
HETATM   15  C   UNK N   1      35.070  11.568  18.992  0.00  0.00     0.047 A 
HETATM   16  C   UNK N   1      35.387  11.078  17.720  0.00  0.00    -0.048 A 
HETATM   17  C   UNK N   1      35.394   9.586  17.514  0.00  0.00     0.041 C 
HETATM   18  C   UNK N   1      36.018   9.140  16.192  0.00  0.00     0.030 C 
HETATM   19  H   UNK N   1      36.807   8.810  13.691  0.00  0.00     0.153 HD
ENDROOT
BRANCH  13  20
HETATM   20  O   UNK N   1      35.374  15.164  18.447  0.00  0.00    -0.358 OA
HETATM   21  H   UNK N   1      36.157  15.662  18.315  0.00  0.00     0.217 HD
ENDBRANCH  13  20
BRANCH  14  22
HETATM   22  O   UNK N   1      34.768  13.395  20.475  0.00  0.00    -0.358 OA
HETATM   23  H   UNK N   1      34.430  14.259  20.600  0.00  0.00     0.217 HD
ENDBRANCH  14  22
TORSDOF 2
ENDMDL
MODEL 6
REMARK VINA RESULT:      -7.0     11.182     13.486
REMARK  2 active torsions:
REMARK  status: ('A' for Active; 'I' for Inactive)
REMARK    1  A    between atoms: C_13  and  O_20 
REMARK    2  A    between atoms: C_14  and  O_19 
ROOT
HETATM    1  C   UNK N   1      28.847  15.738   2.677  0.00  0.00     0.001 A 
HETATM    2  C   UNK N   1      30.154  15.616   3.153  0.00  0.00     0.001 A 
HETATM    3  C   UNK N   1      30.442  15.918   4.484  0.00  0.00     0.008 A 
HETATM    4  C   UNK N   1      29.436  16.365   5.354  0.00  0.00    -0.040 A 
HETATM    5  C   UNK N   1      28.111  16.463   4.871  0.00  0.00    -0.034 A 
HETATM    6  C   UNK N   1      27.828  16.155   3.536  0.00  0.00     0.009 A 
HETATM    7  C   UNK N   1      26.983  16.885   5.776  0.00  0.00     0.153 C 
HETATM    8  N   UNK N   1      27.319  16.741   7.194  0.00  0.00    -0.412 N 
HETATM    9  C   UNK N   1      28.568  17.442   7.462  0.00  0.00     0.090 C 
HETATM   10  C   UNK N   1      29.731  16.678   6.815  0.00  0.00     0.075 C 
HETATM   11  C   UNK N   1      31.082  17.279   7.187  0.00  0.00    -0.038 A 
HETATM   12  C   UNK N   1      32.223  17.018   6.414  0.00  0.00     0.047 A 
HETATM   13  C   UNK N   1      33.469  17.527   6.772  0.00  0.00     0.099 A 
HETATM   14  C   UNK N   1      33.599  18.300   7.929  0.00  0.00     0.099 A 
HETATM   15  C   UNK N   1      32.475  18.564   8.719  0.00  0.00     0.047 A 
HETATM   16  C   UNK N   1      31.220  18.057   8.364  0.00  0.00    -0.048 A 
HETATM   17  C   UNK N   1      30.051  18.358   9.265  0.00  0.00     0.041 C 
HETATM   18  C   UNK N   1      28.798  17.540   8.958  0.00  0.00     0.030 C 
HETATM   19  H   UNK N   1      26.766  16.233   7.884  0.00  0.00     0.153 HD
ENDROOT
BRANCH  13  20
HETATM   20  O   UNK N   1      34.540  17.266   6.004  0.00  0.00    -0.358 OA
HETATM   21  H   UNK N   1      35.021  17.971   5.616  0.00  0.00     0.217 HD
ENDBRANCH  13  20
BRANCH  14  22
HETATM   22  O   UNK N   1      34.798  18.788   8.289  0.00  0.00    -0.358 OA
HETATM   23  H   UNK N   1      35.162  19.535   7.858  0.00  0.00     0.217 HD
ENDBRANCH  14  22
TORSDOF 2
ENDMDL
MODEL 7
REMARK VINA RESULT:      -6.9      1.956      2.886
REMARK  2 active torsions:
REMARK  status: ('A' for Active; 'I' for Inactive)
REMARK    1  A    between atoms: C_13  and  O_20 
REMARK    2  A    between atoms: C_14  and  O_19 
ROOT
HETATM    1  C   UNK N   1      25.572  27.483  -4.079  0.00  0.00     0.001 A 
HETATM    2  C   UNK N   1      26.749  27.097  -3.435  0.00  0.00     0.001 A 
HETATM    3  C   UNK N   1      27.590  26.156  -4.029  0.00  0.00     0.008 A 
HETATM    4  C   UNK N   1      27.262  25.573  -5.263  0.00  0.00    -0.040 A 
HETATM    5  C   UNK N   1      26.081  25.988  -5.920  0.00  0.00    -0.034 A 
HETATM    6  C   UNK N   1      25.243  26.935  -5.320  0.00  0.00     0.009 A 
HETATM    7  C   UNK N   1      25.708  25.437  -7.270  0.00  0.00     0.153 C 
HETATM    8  N   UNK N   1      26.847  24.828  -7.961  0.00  0.00    -0.412 N 
HETATM    9  C   UNK N   1      27.466  23.843  -7.084  0.00  0.00     0.090 C 
HETATM   10  C   UNK N   1      28.182  24.561  -5.933  0.00  0.00     0.075 C 
HETATM   11  C   UNK N   1      28.976  23.591  -5.065  0.00  0.00    -0.038 A 
HETATM   12  C   UNK N   1      29.360  23.941  -3.762  0.00  0.00     0.047 A 
HETATM   13  C   UNK N   1      30.124  23.079  -2.979  0.00  0.00     0.099 A 
HETATM   14  C   UNK N   1      30.533  21.847  -3.497  0.00  0.00     0.099 A 
HETATM   15  C   UNK N   1      30.169  21.483  -4.797  0.00  0.00     0.047 A 
HETATM   16  C   UNK N   1      29.401  22.344  -5.589  0.00  0.00    -0.048 A 
HETATM   17  C   UNK N   1      29.057  21.906  -6.989  0.00  0.00     0.041 C 
HETATM   18  C   UNK N   1      28.468  23.013  -7.863  0.00  0.00     0.030 C 
HETATM   19  H   UNK N   1      27.157  25.057  -8.905  0.00  0.00     0.153 HD
ENDROOT
BRANCH  13  20
HETATM   20  O   UNK N   1      30.466  23.440  -1.731  0.00  0.00    -0.358 OA
HETATM   21  H   UNK N   1      30.586  24.346  -1.522  0.00  0.00     0.217 HD
ENDBRANCH  13  20
BRANCH  14  22
HETATM   22  O   UNK N   1      31.278  21.011  -2.754  0.00  0.00    -0.358 OA
HETATM   23  H   UNK N   1      31.713  21.313  -1.982  0.00  0.00     0.217 HD
ENDBRANCH  14  22
TORSDOF 2
ENDMDL
MODEL 8
REMARK VINA RESULT:      -6.8      2.858      5.874
REMARK  2 active torsions:
REMARK  status: ('A' for Active; 'I' for Inactive)
REMARK    1  A    between atoms: C_13  and  O_20 
REMARK    2  A    between atoms: C_14  and  O_19 
ROOT
HETATM    1  C   UNK N   1      30.921  22.477  -2.939  0.00  0.00     0.001 A 
HETATM    2  C   UNK N   1      29.924  23.261  -2.356  0.00  0.00     0.001 A 
HETATM    3  C   UNK N   1      28.816  23.650  -3.110  0.00  0.00     0.008 A 
HETATM    4  C   UNK N   1      28.696  23.281  -4.457  0.00  0.00    -0.040 A 
HETATM    5  C   UNK N   1      29.698  22.467  -5.033  0.00  0.00    -0.034 A 
HETATM    6  C   UNK N   1      30.805  22.077  -4.271  0.00  0.00     0.009 A 
HETATM    7  C   UNK N   1      29.594  21.996  -6.459  0.00  0.00     0.153 C 
HETATM    8  N   UNK N   1      28.228  22.088  -6.981  0.00  0.00    -0.412 N 
HETATM    9  C   UNK N   1      27.731  23.443  -6.780  0.00  0.00     0.090 C 
HETATM   10  C   UNK N   1      27.482  23.681  -5.286  0.00  0.00     0.075 C 
HETATM   11  C   UNK N   1      26.819  25.029  -5.028  0.00  0.00    -0.038 A 
HETATM   12  C   UNK N   1      26.870  25.625  -3.759  0.00  0.00     0.047 A 
HETATM   13  C   UNK N   1      26.228  26.835  -3.504  0.00  0.00     0.099 A 
HETATM   14  C   UNK N   1      25.507  27.468  -4.519  0.00  0.00     0.099 A 
HETATM   15  C   UNK N   1      25.436  26.886  -5.789  0.00  0.00     0.047 A 
HETATM   16  C   UNK N   1      26.078  25.671  -6.052  0.00  0.00    -0.048 A 
HETATM   17  C   UNK N   1      25.950  25.083  -7.433  0.00  0.00     0.041 C 
HETATM   18  C   UNK N   1      26.437  23.639  -7.547  0.00  0.00     0.030 C 
HETATM   19  H   UNK N   1      27.708  21.326  -7.415  0.00  0.00     0.153 HD
ENDROOT
BRANCH  13  20
HETATM   20  O   UNK N   1      26.305  27.383  -2.279  0.00  0.00    -0.358 OA
HETATM   21  H   UNK N   1      26.217  26.844  -1.518  0.00  0.00     0.217 HD
ENDBRANCH  13  20
BRANCH  14  22
HETATM   22  O   UNK N   1      24.877  28.631  -4.282  0.00  0.00    -0.358 OA
HETATM   23  H   UNK N   1      25.212  29.437  -4.620  0.00  0.00     0.217 HD
ENDBRANCH  14  22
TORSDOF 2
ENDMDL
MODEL 9
REMARK VINA RESULT:      -6.7      3.813      5.583
REMARK  2 active torsions:
REMARK  status: ('A' for Active; 'I' for Inactive)
REMARK    1  A    between atoms: C_13  and  O_20 
REMARK    2  A    between atoms: C_14  and  O_19 
ROOT
HETATM    1  C   UNK N   1      25.799  27.960  -4.808  0.00  0.00     0.001 A 
HETATM    2  C   UNK N   1      24.998  26.907  -5.252  0.00  0.00     0.001 A 
HETATM    3  C   UNK N   1      25.553  25.640  -5.438  0.00  0.00     0.008 A 
HETATM    4  C   UNK N   1      26.917  25.410  -5.201  0.00  0.00    -0.040 A 
HETATM    5  C   UNK N   1      27.715  26.476  -4.728  0.00  0.00    -0.034 A 
HETATM    6  C   UNK N   1      27.152  27.743  -4.541  0.00  0.00     0.009 A 
HETATM    7  C   UNK N   1      29.172  26.273  -4.406  0.00  0.00     0.153 C 
HETATM    8  N   UNK N   1      29.512  24.861  -4.216  0.00  0.00    -0.412 N 
HETATM    9  C   UNK N   1      29.064  24.102  -5.376  0.00  0.00     0.090 C 
HETATM   10  C   UNK N   1      27.532  24.029  -5.379  0.00  0.00     0.075 C 
HETATM   11  C   UNK N   1      27.009  23.119  -6.485  0.00  0.00    -0.038 A 
HETATM   12  C   UNK N   1      25.682  23.219  -6.931  0.00  0.00     0.047 A 
HETATM   13  C   UNK N   1      25.184  22.363  -7.910  0.00  0.00     0.099 A 
HETATM   14  C   UNK N   1      26.008  21.373  -8.454  0.00  0.00     0.099 A 
HETATM   15  C   UNK N   1      27.330  21.251  -8.017  0.00  0.00     0.047 A 
HETATM   16  C   UNK N   1      27.837  22.109  -7.034  0.00  0.00    -0.048 A 
HETATM   17  C   UNK N   1      29.263  21.916  -6.589  0.00  0.00     0.041 C 
HETATM   18  C   UNK N   1      29.638  22.698  -5.331  0.00  0.00     0.030 C 
HETATM   19  H   UNK N   1      29.987  24.471  -3.402  0.00  0.00     0.153 HD
ENDROOT
BRANCH  13  20
HETATM   20  O   UNK N   1      23.911  22.492  -8.322  0.00  0.00    -0.358 OA
HETATM   21  H   UNK N   1      23.566  21.907  -8.967  0.00  0.00     0.217 HD
ENDBRANCH  13  20
BRANCH  14  22
HETATM   22  O   UNK N   1      25.535  20.536  -9.392  0.00  0.00    -0.358 OA
HETATM   23  H   UNK N   1      25.129  20.865 -10.170  0.00  0.00     0.217 HD
ENDBRANCH  14  22
TORSDOF 2
ENDMDL
