MODEL 1
REMARK VINA RESULT:      -4.4      0.000      0.000
REMARK  3 active torsions:
REMARK  status: ('A' for Active; 'I' for Inactive)
REMARK    1  A    between atoms: O_1  and  C_2 
REMARK    2  A    between atoms: C_5  and  O_9 
REMARK    3  A    between atoms: C_7  and  O_8 
ROOT
HETATM    1  C   UNK N   1      22.661  13.304   9.346  0.00  0.00     0.070 A 
HETATM    2  C   UNK N   1      21.518  12.914  10.050  0.00  0.00     0.073 A 
HETATM    3  C   UNK N   1      23.929  12.975   9.831  0.00  0.00     0.073 A 
HETATM    4  C   UNK N   1      24.058  12.254  11.022  0.00  0.00     0.070 A 
HETATM    5  C   UNK N   1      22.914  11.862  11.728  0.00  0.00     0.073 A 
HETATM    6  C   UNK N   1      21.643  12.192  11.241  0.00  0.00     0.070 A 
ENDROOT
BRANCH   1   7
HETATM    7  O   UNK N   1      22.540  13.997   8.204  0.00  0.00    -0.361 OA
HETATM    8  H   UNK N   1      23.128  14.703   8.019  0.00  0.00     0.217 HD
ENDBRANCH   1   7
BRANCH   6   9
HETATM    9  O   UNK N   1      20.543  11.818  11.914  0.00  0.00    -0.361 OA
HETATM   10  H   UNK N   1      20.595  11.135  12.552  0.00  0.00     0.217 HD
ENDBRANCH   6   9
BRANCH   4  11
HETATM   11  O   UNK N   1      25.279  11.940  11.483  0.00  0.00    -0.361 OA
HETATM   12  H   UNK N   1      25.508  12.136  12.371  0.00  0.00     0.217 HD
ENDBRANCH   4  11
TORSDOF 3
ENDMDL
MODEL 2
REMARK VINA RESULT:      -4.4      0.038      2.758
REMARK  3 active torsions:
REMARK  status: ('A' for Active; 'I' for Inactive)
REMARK    1  A    between atoms: O_1  and  C_2 
REMARK    2  A    between atoms: C_5  and  O_9 
REMARK    3  A    between atoms: C_7  and  O_8 
ROOT
HETATM    1  C   UNK N   1      21.649  12.209  11.212  0.00  0.00     0.070 A 
HETATM    2  C   UNK N   1      21.524  12.949  10.032  0.00  0.00     0.073 A 
HETATM    3  C   UNK N   1      22.915  11.869  11.695  0.00  0.00     0.073 A 
HETATM    4  C   UNK N   1      24.060  12.266  10.999  0.00  0.00     0.070 A 
HETATM    5  C   UNK N   1      23.937  13.007   9.817  0.00  0.00     0.073 A 
HETATM    6  C   UNK N   1      22.667  13.348   9.334  0.00  0.00     0.070 A 
ENDROOT
BRANCH   1   7
HETATM    7  O   UNK N   1      20.551  11.826  11.882  0.00  0.00    -0.361 OA
HETATM    8  H   UNK N   1      19.729  11.764  11.437  0.00  0.00     0.217 HD
ENDBRANCH   1   7
BRANCH   6   9
HETATM    9  O   UNK N   1      22.543  14.058   8.201  0.00  0.00    -0.361 OA
HETATM   10  H   UNK N   1      21.698  14.354   7.924  0.00  0.00     0.217 HD
ENDBRANCH   6   9
BRANCH   4  11
HETATM   11  O   UNK N   1      25.274  11.937  11.467  0.00  0.00    -0.361 OA
HETATM   12  H   UNK N   1      25.409  11.836  12.389  0.00  0.00     0.217 HD
ENDBRANCH   4  11
TORSDOF 3
ENDMDL
MODEL 3
REMARK VINA RESULT:      -4.4      0.042      3.375
REMARK  3 active torsions:
REMARK  status: ('A' for Active; 'I' for Inactive)
REMARK    1  A    between atoms: O_1  and  C_2 
REMARK    2  A    between atoms: C_5  and  O_9 
REMARK    3  A    between atoms: C_7  and  O_8 
ROOT
HETATM    1  C   UNK N   1      21.634  12.209  11.221  0.00  0.00     0.070 A 
HETATM    2  C   UNK N   1      22.898  11.863  11.706  0.00  0.00     0.073 A 
HETATM    3  C   UNK N   1      21.514  12.956  10.046  0.00  0.00     0.073 A 
HETATM    4  C   UNK N   1      22.659  13.358   9.352  0.00  0.00     0.070 A 
HETATM    5  C   UNK N   1      23.927  13.012   9.836  0.00  0.00     0.073 A 
HETATM    6  C   UNK N   1      24.045  12.263  11.015  0.00  0.00     0.070 A 
ENDROOT
BRANCH   1   7
HETATM    7  O   UNK N   1      20.533  11.824  11.885  0.00  0.00    -0.361 OA
HETATM    8  H   UNK N   1      20.561  11.071  12.441  0.00  0.00     0.217 HD
ENDBRANCH   1   7
BRANCH   6   9
HETATM    9  O   UNK N   1      25.259  11.929  11.483  0.00  0.00    -0.361 OA
HETATM   10  H   UNK N   1      25.491  12.131  12.368  0.00  0.00     0.217 HD
ENDBRANCH   6   9
BRANCH   4  11
HETATM   11  O   UNK N   1      22.539  14.074   8.224  0.00  0.00    -0.361 OA
HETATM   12  H   UNK N   1      22.825  14.967   8.203  0.00  0.00     0.217 HD
ENDBRANCH   4  11
TORSDOF 3
ENDMDL
MODEL 4
REMARK VINA RESULT:      -4.4      0.055      2.758
REMARK  3 active torsions:
REMARK  status: ('A' for Active; 'I' for Inactive)
REMARK    1  A    between atoms: O_1  and  C_2 
REMARK    2  A    between atoms: C_5  and  O_9 
REMARK    3  A    between atoms: C_7  and  O_8 
ROOT
HETATM    1  C   UNK N   1      24.070  12.269  11.003  0.00  0.00     0.070 A 
HETATM    2  C   UNK N   1      22.917  11.886  11.695  0.00  0.00     0.073 A 
HETATM    3  C   UNK N   1      23.964  12.988   9.810  0.00  0.00     0.073 A 
HETATM    4  C   UNK N   1      22.705  13.325   9.305  0.00  0.00     0.070 A 
HETATM    5  C   UNK N   1      21.549  12.942   9.997  0.00  0.00     0.073 A 
HETATM    6  C   UNK N   1      21.657  12.222  11.194  0.00  0.00     0.070 A 
ENDROOT
BRANCH   1   7
HETATM    7  O   UNK N   1      25.280  11.946  11.485  0.00  0.00    -0.361 OA
HETATM    8  H   UNK N   1      25.682  12.484  12.138  0.00  0.00     0.217 HD
ENDBRANCH   1   7
BRANCH   6   9
HETATM    9  O   UNK N   1      20.552  11.852  11.861  0.00  0.00    -0.361 OA
HETATM   10  H   UNK N   1      19.938  12.500  12.145  0.00  0.00     0.217 HD
ENDBRANCH   6   9
BRANCH   4  11
HETATM   11  O   UNK N   1      22.609  14.016   8.158  0.00  0.00    -0.361 OA
HETATM   12  H   UNK N   1      23.048  14.839   8.069  0.00  0.00     0.217 HD
ENDBRANCH   4  11
TORSDOF 3
ENDMDL
MODEL 5
REMARK VINA RESULT:      -4.4      0.053      3.391
REMARK  3 active torsions:
REMARK  status: ('A' for Active; 'I' for Inactive)
REMARK    1  A    between atoms: O_1  and  C_2 
REMARK    2  A    between atoms: C_5  and  O_9 
REMARK    3  A    between atoms: C_7  and  O_8 
ROOT
HETATM    1  C   UNK N   1      24.085  12.262  11.008  0.00  0.00     0.070 A 
HETATM    2  C   UNK N   1      23.975  12.981   9.814  0.00  0.00     0.073 A 
HETATM    3  C   UNK N   1      22.936  11.876  11.702  0.00  0.00     0.073 A 
HETATM    4  C   UNK N   1      21.673  12.208  11.204  0.00  0.00     0.070 A 
HETATM    5  C   UNK N   1      21.560  12.928  10.008  0.00  0.00     0.073 A 
HETATM    6  C   UNK N   1      22.714  13.314   9.313  0.00  0.00     0.070 A 
ENDROOT
BRANCH   1   7
HETATM    7  O   UNK N   1      25.297  11.943  11.488  0.00  0.00    -0.361 OA
HETATM    8  H   UNK N   1      25.388  11.655  12.375  0.00  0.00     0.217 HD
ENDBRANCH   1   7
BRANCH   6   9
HETATM    9  O   UNK N   1      22.612  14.005   8.165  0.00  0.00    -0.361 OA
HETATM   10  H   UNK N   1      23.044  13.696   7.394  0.00  0.00     0.217 HD
ENDBRANCH   6   9
BRANCH   4  11
HETATM   11  O   UNK N   1      20.572  11.835  11.874  0.00  0.00    -0.361 OA
HETATM   12  H   UNK N   1      20.313  10.934  11.885  0.00  0.00     0.217 HD
ENDBRANCH   4  11
TORSDOF 3
ENDMDL
MODEL 6
REMARK VINA RESULT:      -4.3      8.799     10.499
REMARK  3 active torsions:
REMARK  status: ('A' for Active; 'I' for Inactive)
REMARK    1  A    between atoms: O_1  and  C_2 
REMARK    2  A    between atoms: C_5  and  O_9 
REMARK    3  A    between atoms: C_7  and  O_8 
ROOT
HETATM    1  C   UNK N   1      21.475  20.370   2.912  0.00  0.00     0.070 A 
HETATM    2  C   UNK N   1      22.271  19.341   3.424  0.00  0.00     0.073 A 
HETATM    3  C   UNK N   1      20.147  20.117   2.557  0.00  0.00     0.073 A 
HETATM    4  C   UNK N   1      19.612  18.836   2.714  0.00  0.00     0.070 A 
HETATM    5  C   UNK N   1      20.408  17.804   3.227  0.00  0.00     0.073 A 
HETATM    6  C   UNK N   1      21.739  18.058   3.581  0.00  0.00     0.070 A 
ENDROOT
BRANCH   1   7
HETATM    7  O   UNK N   1      21.986  21.601   2.760  0.00  0.00    -0.361 OA
HETATM    8  H   UNK N   1      22.728  21.734   2.204  0.00  0.00     0.217 HD
ENDBRANCH   1   7
BRANCH   6   9
HETATM    9  O   UNK N   1      22.508  17.073   4.074  0.00  0.00    -0.361 OA
HETATM   10  H   UNK N   1      22.145  16.453   4.676  0.00  0.00     0.217 HD
ENDBRANCH   6   9
BRANCH   4  11
HETATM   11  O   UNK N   1      18.336  18.599   2.372  0.00  0.00    -0.361 OA
HETATM   12  H   UNK N   1      17.644  19.079   2.783  0.00  0.00     0.217 HD
ENDBRANCH   4  11
TORSDOF 3
ENDMDL
MODEL 7
REMARK VINA RESULT:      -4.2      8.801     10.404
REMARK  3 active torsions:
REMARK  status: ('A' for Active; 'I' for Inactive)
REMARK    1  A    between atoms: O_1  and  C_2 
REMARK    2  A    between atoms: C_5  and  O_9 
REMARK    3  A    between atoms: C_7  and  O_8 
ROOT
HETATM    1  C   UNK N   1      19.629  18.860   2.721  0.00  0.00     0.070 A 
HETATM    2  C   UNK N   1      20.169  20.139   2.556  0.00  0.00     0.073 A 
HETATM    3  C   UNK N   1      20.418  17.828   3.235  0.00  0.00     0.073 A 
HETATM    4  C   UNK N   1      21.749  18.072   3.586  0.00  0.00     0.070 A 
HETATM    5  C   UNK N   1      22.291  19.353   3.421  0.00  0.00     0.073 A 
HETATM    6  C   UNK N   1      21.499  20.387   2.906  0.00  0.00     0.070 A 
ENDROOT
BRANCH   1   7
HETATM    7  O   UNK N   1      18.352  18.624   2.385  0.00  0.00    -0.361 OA
HETATM    8  H   UNK N   1      17.676  18.708   3.028  0.00  0.00     0.217 HD
ENDBRANCH   1   7
BRANCH   6   9
HETATM    9  O   UNK N   1      22.014  21.617   2.746  0.00  0.00    -0.361 OA
HETATM   10  H   UNK N   1      22.114  22.182   3.486  0.00  0.00     0.217 HD
ENDBRANCH   6   9
BRANCH   4  11
HETATM   11  O   UNK N   1      22.502  17.077   4.079  0.00  0.00    -0.361 OA
HETATM   12  H   UNK N   1      23.097  16.617   3.519  0.00  0.00     0.217 HD
ENDBRANCH   4  11
TORSDOF 3
ENDMDL
MODEL 8
REMARK VINA RESULT:      -4.2      8.797     10.190
REMARK  3 active torsions:
REMARK  status: ('A' for Active; 'I' for Inactive)
REMARK    1  A    between atoms: O_1  and  C_2 
REMARK    2  A    between atoms: C_5  and  O_9 
REMARK    3  A    between atoms: C_7  and  O_8 
ROOT
HETATM    1  C   UNK N   1      21.477  20.369   2.914  0.00  0.00     0.070 A 
HETATM    2  C   UNK N   1      20.149  20.118   2.558  0.00  0.00     0.073 A 
HETATM    3  C   UNK N   1      22.272  19.340   3.426  0.00  0.00     0.073 A 
HETATM    4  C   UNK N   1      21.740  18.057   3.583  0.00  0.00     0.070 A 
HETATM    5  C   UNK N   1      20.409  17.804   3.227  0.00  0.00     0.073 A 
HETATM    6  C   UNK N   1      19.614  18.836   2.714  0.00  0.00     0.070 A 
ENDROOT
BRANCH   1   7
HETATM    7  O   UNK N   1      21.990  21.600   2.764  0.00  0.00    -0.361 OA
HETATM    8  H   UNK N   1      22.918  21.716   2.704  0.00  0.00     0.217 HD
ENDBRANCH   1   7
BRANCH   6   9
HETATM    9  O   UNK N   1      18.337  18.599   2.371  0.00  0.00    -0.361 OA
HETATM   10  H   UNK N   1      17.846  17.941   2.822  0.00  0.00     0.217 HD
ENDBRANCH   6   9
BRANCH   4  11
HETATM   11  O   UNK N   1      22.507  17.072   4.076  0.00  0.00    -0.361 OA
HETATM   12  H   UNK N   1      23.384  17.255   4.351  0.00  0.00     0.217 HD
ENDBRANCH   4  11
TORSDOF 3
ENDMDL
MODEL 9
REMARK VINA RESULT:      -4.2      8.751     10.443
REMARK  3 active torsions:
REMARK  status: ('A' for Active; 'I' for Inactive)
REMARK    1  A    between atoms: O_1  and  C_2 
REMARK    2  A    between atoms: C_5  and  O_9 
REMARK    3  A    between atoms: C_7  and  O_8 
ROOT
HETATM    1  C   UNK N   1      21.659  18.077   3.653  0.00  0.00     0.070 A 
HETATM    2  C   UNK N   1      20.333  17.848   3.275  0.00  0.00     0.073 A 
HETATM    3  C   UNK N   1      22.232  19.338   3.472  0.00  0.00     0.073 A 
HETATM    4  C   UNK N   1      21.480  20.374   2.912  0.00  0.00     0.070 A 
HETATM    5  C   UNK N   1      20.151  20.147   2.532  0.00  0.00     0.073 A 
HETATM    6  C   UNK N   1      19.578  18.882   2.715  0.00  0.00     0.070 A 
ENDROOT
BRANCH   1   7
HETATM    7  O   UNK N   1      22.383  17.084   4.191  0.00  0.00    -0.361 OA
HETATM    8  H   UNK N   1      23.106  17.282   4.754  0.00  0.00     0.217 HD
ENDBRANCH   1   7
BRANCH   6   9
HETATM    9  O   UNK N   1      18.304  18.659   2.353  0.00  0.00    -0.361 OA
HETATM   10  H   UNK N   1      18.117  18.173   1.574  0.00  0.00     0.217 HD
ENDBRANCH   6   9
BRANCH   4  11
HETATM   11  O   UNK N   1      22.035  21.584   2.740  0.00  0.00    -0.361 OA
HETATM   12  H   UNK N   1      21.889  22.058   1.944  0.00  0.00     0.217 HD
ENDBRANCH   4  11
TORSDOF 3
ENDMDL
