MODEL 1
REMARK VINA RESULT:      -9.1      0.000      0.000
REMARK  8 active torsions:
REMARK  status: ('A' for Active; 'I' for Inactive)
REMARK    1  A    between atoms: C_2  and  C_17 
REMARK    2  A    between atoms: C_7  and  C_5 
REMARK    3  A    between atoms: C_10  and  C_13 
REMARK    4  A    between atoms: C_13  and  C_14 
REMARK    5  A    between atoms: C_14  and  O_16 
REMARK    6  A    between atoms: C_21  and  N_24 
REMARK    7  A    between atoms: N_24  and  C_25 
REMARK    8  A    between atoms: C_29  and  C_32 
ROOT
HETATM    1  C   UNK N   1      32.870  16.509   8.234  0.00  0.00     0.042 A 
HETATM    2  N   UNK N   1      33.515  16.948   9.359  0.00  0.00    -0.363 N 
ATOM      3  HN  UNK N   1      33.159  17.769   9.848  1.00  0.00     0.165 HD
HETATM    4  C   UNK N   1      34.619  16.313   9.841  0.00  0.00     0.117 A 
HETATM    5  C   UNK N   1      35.137  15.211   9.158  0.00  0.00     0.048 A 
HETATM    6  C   UNK N   1      34.521  14.797   7.971  0.00  0.00     0.033 A 
HETATM    7  C   UNK N   1      33.400  15.449   7.502  0.00  0.00     0.033 A 
ENDROOT
BRANCH   1   8
HETATM    8  C   UNK N   1      31.600  17.114   7.814  0.00  0.00    -0.009 A 
HETATM    9  C   UNK N   1      31.085  16.850   6.545  0.00  0.00     0.014 A 
HETATM   10  C   UNK N   1      29.853  17.375   6.171  0.00  0.00     0.008 A 
HETATM   11  C   UNK N   1      29.132  18.200   7.051  0.00  0.00    -0.054 A 
HETATM   12  C   UNK N   1      29.667  18.505   8.303  0.00  0.00     0.008 A 
HETATM   13  C   UNK N   1      30.899  17.971   8.681  0.00  0.00     0.014 A 
BRANCH  11  14
HETATM   14  C   UNK N   1      27.704  18.554   6.763  0.00  0.00     0.018 C 
HETATM   15  C   UNK N   1      27.305  20.029   6.906  0.00  0.00     0.010 C 
HETATM   16  C   UNK N   1      27.523  20.816   5.613  0.00  0.00     0.006 C 
HETATM   17  C   UNK N   1      26.908  20.114   4.397  0.00  0.00    -0.005 C 
HETATM   18  C   UNK N   1      27.475  18.702   4.252  0.00  0.00     0.006 C 
HETATM   19  C   UNK N   1      27.156  17.886   5.504  0.00  0.00     0.010 C 
BRANCH  17  20
HETATM   20  C   UNK N   1      25.367  20.230   4.322  0.00  0.00     0.114 C 
BRANCH  20  21
HETATM   21  C   UNK N   1      24.793  20.715   3.016  0.00  0.00     0.139 C 
HETATM   22  O   UNK N   1      25.498  20.773   2.024  0.00  0.00    -0.650 OA
BRANCH  21  23
HETATM   23  O   UNK N   1      23.494  21.065   2.934  0.00  0.00    -0.776 OA
HETATM   24  H   UNK N   1      23.234  21.958   3.049  0.00  0.00     0.167 HD
ENDBRANCH  21  23
ENDBRANCH  20  21
ENDBRANCH  17  20
ENDBRANCH  11  14
ENDBRANCH   1   8
BRANCH   5  25
HETATM   25  N   UNK N   1      35.948  14.271   9.835  0.00  0.00    -0.354 N 
HETATM   26  H   UNK N   1      36.605  13.706   9.369  0.00  0.00     0.166 HD
BRANCH  25  27
HETATM   27  C   UNK N   1      35.741  14.206  11.240  0.00  0.00     0.048 A 
HETATM   28  C   UNK N   1      36.375  15.094  12.107  0.00  0.00     0.117 A 
HETATM   29  N   UNK N   1      36.390  14.832  13.448  0.00  0.00    -0.360 N 
HETATM   30  C   UNK N   1      35.806  13.711  13.968  0.00  0.00     0.116 A 
ATOM     31  HN  UNK N   1      36.850  15.490  14.076  1.00  0.00     0.165 HD
HETATM   32  C   UNK N   1      35.122  12.833  13.132  0.00  0.00     0.036 A 
HETATM   33  C   UNK N   1      35.099  13.077  11.775  0.00  0.00     0.033 A 
BRANCH  30  34
HETATM   34  C   UNK N   1      35.948  13.388  15.422  0.00  0.00     0.432 C 
HETATM   35  F   UNK N   1      34.691  13.352  15.997  0.00  0.00    -0.165 F 
HETATM   36  F   UNK N   1      36.702  14.352  16.075  0.00  0.00    -0.165 F 
HETATM   37  F   UNK N   1      36.559  12.160  15.571  0.00  0.00    -0.165 F 
ENDBRANCH  30  34
ENDBRANCH  25  27
ENDBRANCH   5  25
TORSDOF 8
ENDMDL
MODEL 2
REMARK VINA RESULT:      -9.0      1.035      1.472
REMARK  8 active torsions:
REMARK  status: ('A' for Active; 'I' for Inactive)
REMARK    1  A    between atoms: C_2  and  C_17 
REMARK    2  A    between atoms: C_7  and  C_5 
REMARK    3  A    between atoms: C_10  and  C_13 
REMARK    4  A    between atoms: C_13  and  C_14 
REMARK    5  A    between atoms: C_14  and  O_16 
REMARK    6  A    between atoms: C_21  and  N_24 
REMARK    7  A    between atoms: N_24  and  C_25 
REMARK    8  A    between atoms: C_29  and  C_32 
ROOT
HETATM    1  C   UNK N   1      33.551  16.417   8.832  0.00  0.00     0.042 A 
HETATM    2  N   UNK N   1      34.151  17.144   9.825  0.00  0.00    -0.363 N 
ATOM      3  HN  UNK N   1      33.745  18.036  10.104  1.00  0.00     0.165 HD
HETATM    4  C   UNK N   1      35.277  16.701  10.450  0.00  0.00     0.117 A 
HETATM    5  C   UNK N   1      35.863  15.498  10.050  0.00  0.00     0.048 A 
HETATM    6  C   UNK N   1      35.291  14.784   8.991  0.00  0.00     0.033 A 
HETATM    7  C   UNK N   1      34.147  15.245   8.375  0.00  0.00     0.033 A 
ENDROOT
BRANCH   1   8
HETATM    8  C   UNK N   1      32.259  16.837   8.274  0.00  0.00    -0.009 A 
HETATM    9  C   UNK N   1      31.702  16.141   7.201  0.00  0.00     0.014 A 
HETATM   10  C   UNK N   1      30.451  16.502   6.713  0.00  0.00     0.008 A 
HETATM   11  C   UNK N   1      29.753  17.587   7.270  0.00  0.00    -0.054 A 
HETATM   12  C   UNK N   1      30.329  18.315   8.312  0.00  0.00     0.008 A 
HETATM   13  C   UNK N   1      31.579  17.947   8.808  0.00  0.00     0.014 A 
BRANCH  11  14
HETATM   14  C   UNK N   1      28.311  17.819   6.930  0.00  0.00     0.018 C 
HETATM   15  C   UNK N   1      27.685  19.140   7.395  0.00  0.00     0.010 C 
HETATM   16  C   UNK N   1      27.872  20.261   6.372  0.00  0.00     0.006 C 
HETATM   17  C   UNK N   1      27.456  19.832   4.959  0.00  0.00    -0.005 C 
HETATM   18  C   UNK N   1      28.238  18.592   4.526  0.00  0.00     0.006 C 
HETATM   19  C   UNK N   1      27.960  17.441   5.492  0.00  0.00     0.010 C 
BRANCH  17  20
HETATM   20  C   UNK N   1      25.924  19.766   4.752  0.00  0.00     0.114 C 
BRANCH  20  21
HETATM   21  C   UNK N   1      25.392  20.371   3.479  0.00  0.00     0.139 C 
HETATM   22  O   UNK N   1      24.191  20.396   3.272  0.00  0.00    -0.650 OA
BRANCH  21  23
HETATM   23  O   UNK N   1      26.237  20.904   2.575  0.00  0.00    -0.776 OA
HETATM   24  H   UNK N   1      25.931  21.529   1.948  0.00  0.00     0.167 HD
ENDBRANCH  21  23
ENDBRANCH  20  21
ENDBRANCH  17  20
ENDBRANCH  11  14
ENDBRANCH   1   8
BRANCH   5  25
HETATM   25  N   UNK N   1      36.709  14.790  10.935  0.00  0.00    -0.354 N 
HETATM   26  H   UNK N   1      37.671  14.673  10.768  0.00  0.00     0.166 HD
BRANCH  25  27
HETATM   27  C   UNK N   1      36.061  14.261  12.084  0.00  0.00     0.048 A 
HETATM   28  C   UNK N   1      36.365  14.724  13.364  0.00  0.00     0.117 A 
HETATM   29  N   UNK N   1      35.952  14.012  14.454  0.00  0.00    -0.360 N 
HETATM   30  C   UNK N   1      35.253  12.843  14.327  0.00  0.00     0.116 A 
ATOM     31  HN  UNK N   1      36.172  14.360  15.386  1.00  0.00     0.165 HD
HETATM   32  C   UNK N   1      34.893  12.383  13.064  0.00  0.00     0.036 A 
HETATM   33  C   UNK N   1      35.303  13.086  11.950  0.00  0.00     0.033 A 
BRANCH  30  34
HETATM   34  C   UNK N   1      34.926  12.021  15.534  0.00  0.00     0.432 C 
HETATM   35  F   UNK N   1      36.080  11.409  15.985  0.00  0.00    -0.165 F 
HETATM   36  F   UNK N   1      33.997  11.036  15.228  0.00  0.00    -0.165 F 
HETATM   37  F   UNK N   1      34.413  12.831  16.527  0.00  0.00    -0.165 F 
ENDBRANCH  30  34
ENDBRANCH  25  27
ENDBRANCH   5  25
TORSDOF 8
ENDMDL
MODEL 3
REMARK VINA RESULT:      -8.9      8.213     13.931
REMARK  8 active torsions:
REMARK  status: ('A' for Active; 'I' for Inactive)
REMARK    1  A    between atoms: C_2  and  C_17 
REMARK    2  A    between atoms: C_7  and  C_5 
REMARK    3  A    between atoms: C_10  and  C_13 
REMARK    4  A    between atoms: C_13  and  C_14 
REMARK    5  A    between atoms: C_14  and  O_16 
REMARK    6  A    between atoms: C_21  and  N_24 
REMARK    7  A    between atoms: N_24  and  C_25 
REMARK    8  A    between atoms: C_29  and  C_32 
ROOT
HETATM    1  C   UNK N   1      35.421  12.679  14.802  0.00  0.00     0.042 A 
HETATM    2  N   UNK N   1      36.136  13.843  14.894  0.00  0.00    -0.363 N 
ATOM      3  HN  UNK N   1      36.402  14.192  15.815  1.00  0.00     0.165 HD
HETATM    4  C   UNK N   1      36.501  14.545  13.786  0.00  0.00     0.117 A 
HETATM    5  C   UNK N   1      36.109  14.096  12.523  0.00  0.00     0.048 A 
HETATM    6  C   UNK N   1      35.322  12.942  12.427  0.00  0.00     0.033 A 
HETATM    7  C   UNK N   1      34.968  12.241  13.560  0.00  0.00     0.033 A 
ENDROOT
BRANCH   1   8
HETATM    8  C   UNK N   1      35.165  11.861  15.995  0.00  0.00    -0.009 A 
HETATM    9  C   UNK N   1      34.699  10.554  15.858  0.00  0.00     0.014 A 
HETATM   10  C   UNK N   1      34.514   9.760  16.986  0.00  0.00     0.008 A 
HETATM   11  C   UNK N   1      34.763  10.275  18.269  0.00  0.00    -0.054 A 
HETATM   12  C   UNK N   1      35.184  11.598  18.411  0.00  0.00     0.008 A 
HETATM   13  C   UNK N   1      35.377  12.391  17.280  0.00  0.00     0.014 A 
BRANCH  11  14
HETATM   14  C   UNK N   1      34.817   9.362  19.457  0.00  0.00     0.018 C 
HETATM   15  C   UNK N   1      34.929  10.017  20.840  0.00  0.00     0.010 C 
HETATM   16  C   UNK N   1      33.560  10.344  21.439  0.00  0.00     0.006 C 
HETATM   17  C   UNK N   1      32.604   9.146  21.387  0.00  0.00    -0.005 C 
HETATM   18  C   UNK N   1      32.442   8.654  19.949  0.00  0.00     0.006 C 
HETATM   19  C   UNK N   1      33.799   8.224  19.393  0.00  0.00     0.010 C 
BRANCH  17  20
HETATM   20  C   UNK N   1      32.912   8.055  22.440  0.00  0.00     0.114 C 
BRANCH  20  21
HETATM   21  C   UNK N   1      32.049   8.050  23.675  0.00  0.00     0.139 C 
HETATM   22  O   UNK N   1      31.732   9.103  24.201  0.00  0.00    -0.650 OA
BRANCH  21  23
HETATM   23  O   UNK N   1      31.607   6.886  24.190  0.00  0.00    -0.776 OA
HETATM   24  H   UNK N   1      31.724   6.693  25.099  0.00  0.00     0.167 HD
ENDBRANCH  21  23
ENDBRANCH  20  21
ENDBRANCH  17  20
ENDBRANCH  11  14
ENDBRANCH   1   8
BRANCH   5  25
HETATM   25  N   UNK N   1      36.826  14.496  11.372  0.00  0.00    -0.354 N 
HETATM   26  H   UNK N   1      37.750  14.208  11.197  0.00  0.00     0.166 HD
BRANCH  25  27
HETATM   27  C   UNK N   1      36.109  15.346  10.486  0.00  0.00     0.048 A 
HETATM   28  C   UNK N   1      35.573  16.557  10.922  0.00  0.00     0.117 A 
HETATM   29  N   UNK N   1      34.656  17.207  10.145  0.00  0.00    -0.360 N 
HETATM   30  C   UNK N   1      34.236  16.695   8.949  0.00  0.00     0.116 A 
ATOM     31  HN  UNK N   1      34.273  18.095  10.467  1.00  0.00     0.165 HD
HETATM   32  C   UNK N   1      34.791  15.514   8.466  0.00  0.00     0.036 A 
HETATM   33  C   UNK N   1      35.716  14.841   9.237  0.00  0.00     0.033 A 
BRANCH  30  34
HETATM   34  C   UNK N   1      33.139  17.364   8.182  0.00  0.00     0.432 C 
HETATM   35  F   UNK N   1      31.923  16.985   8.719  0.00  0.00    -0.165 F 
HETATM   36  F   UNK N   1      33.165  16.989   6.846  0.00  0.00    -0.165 F 
HETATM   37  F   UNK N   1      33.275  18.734   8.268  0.00  0.00    -0.165 F 
ENDBRANCH  30  34
ENDBRANCH  25  27
ENDBRANCH   5  25
TORSDOF 8
ENDMDL
MODEL 4
REMARK VINA RESULT:      -8.4      7.243     12.415
REMARK  8 active torsions:
REMARK  status: ('A' for Active; 'I' for Inactive)
REMARK    1  A    between atoms: C_2  and  C_17 
REMARK    2  A    between atoms: C_7  and  C_5 
REMARK    3  A    between atoms: C_10  and  C_13 
REMARK    4  A    between atoms: C_13  and  C_14 
REMARK    5  A    between atoms: C_14  and  O_16 
REMARK    6  A    between atoms: C_21  and  N_24 
REMARK    7  A    between atoms: N_24  and  C_25 
REMARK    8  A    between atoms: C_29  and  C_32 
ROOT
HETATM    1  C   UNK N   1      34.154  15.086   9.913  0.00  0.00     0.042 A 
HETATM    2  N   UNK N   1      34.057  16.450   9.843  0.00  0.00    -0.363 N 
ATOM      3  HN  UNK N   1      34.389  17.013  10.626  1.00  0.00     0.165 HD
HETATM    4  C   UNK N   1      33.531  17.072   8.752  0.00  0.00     0.117 A 
HETATM    5  C   UNK N   1      33.039  16.309   7.691  0.00  0.00     0.048 A 
HETATM    6  C   UNK N   1      33.076  14.912   7.785  0.00  0.00     0.033 A 
HETATM    7  C   UNK N   1      33.619  14.301   8.895  0.00  0.00     0.033 A 
ENDROOT
BRANCH   1   8
HETATM    8  C   UNK N   1      34.858  14.441  11.029  0.00  0.00    -0.009 A 
HETATM    9  C   UNK N   1      35.580  15.212  11.939  0.00  0.00     0.014 A 
HETATM   10  C   UNK N   1      36.196  14.605  13.029  0.00  0.00     0.008 A 
HETATM   11  C   UNK N   1      36.126  13.213  13.206  0.00  0.00    -0.054 A 
HETATM   12  C   UNK N   1      35.444  12.434  12.269  0.00  0.00     0.008 A 
HETATM   13  C   UNK N   1      34.819  13.043  11.182  0.00  0.00     0.014 A 
BRANCH  11  14
HETATM   14  C   UNK N   1      36.558  12.588  14.497  0.00  0.00     0.018 C 
HETATM   15  C   UNK N   1      36.927  13.535  15.647  0.00  0.00     0.010 C 
HETATM   16  C   UNK N   1      35.714  13.912  16.498  0.00  0.00     0.006 C 
HETATM   17  C   UNK N   1      34.906  12.682  16.932  0.00  0.00    -0.005 C 
HETATM   18  C   UNK N   1      34.459  11.880  15.710  0.00  0.00     0.006 C 
HETATM   19  C   UNK N   1      35.682  11.411  14.923  0.00  0.00     0.010 C 
BRANCH  17  20
HETATM   20  C   UNK N   1      35.570  11.867  18.066  0.00  0.00     0.114 C 
BRANCH  20  21
HETATM   21  C   UNK N   1      35.343  12.361  19.471  0.00  0.00     0.139 C 
HETATM   22  O   UNK N   1      34.924  13.490  19.660  0.00  0.00    -0.650 OA
BRANCH  21  23
HETATM   23  O   UNK N   1      35.582  11.552  20.522  0.00  0.00    -0.776 OA
HETATM   24  H   UNK N   1      34.876  11.235  21.049  0.00  0.00     0.167 HD
ENDBRANCH  21  23
ENDBRANCH  20  21
ENDBRANCH  17  20
ENDBRANCH  11  14
ENDBRANCH   1   8
BRANCH   5  25
HETATM   25  N   UNK N   1      32.929  16.874   6.400  0.00  0.00    -0.354 N 
HETATM   26  H   UNK N   1      33.715  17.111   5.857  0.00  0.00     0.166 HD
BRANCH  25  27
HETATM   27  C   UNK N   1      31.597  17.074   5.947  0.00  0.00     0.048 A 
HETATM   28  C   UNK N   1      31.325  17.400   4.618  0.00  0.00     0.117 A 
HETATM   29  N   UNK N   1      30.086  17.865   4.279  0.00  0.00    -0.360 N 
HETATM   30  C   UNK N   1      29.100  18.033   5.211  0.00  0.00     0.116 A 
ATOM     31  HN  UNK N   1      29.893  18.094   3.304  1.00  0.00     0.165 HD
HETATM   32  C   UNK N   1      29.327  17.669   6.535  0.00  0.00     0.036 A 
HETATM   33  C   UNK N   1      30.572  17.200   6.899  0.00  0.00     0.033 A 
BRANCH  30  34
HETATM   34  C   UNK N   1      27.797  18.663   4.830  0.00  0.00     0.432 C 
HETATM   35  F   UNK N   1      27.434  18.214   3.574  0.00  0.00    -0.165 F 
HETATM   36  F   UNK N   1      27.907  20.045   4.788  0.00  0.00    -0.165 F 
HETATM   37  F   UNK N   1      26.825  18.315   5.745  0.00  0.00    -0.165 F 
ENDBRANCH  30  34
ENDBRANCH  25  27
ENDBRANCH   5  25
TORSDOF 8
ENDMDL
MODEL 5
REMARK VINA RESULT:      -8.4      1.316      2.265
REMARK  8 active torsions:
REMARK  status: ('A' for Active; 'I' for Inactive)
REMARK    1  A    between atoms: C_2  and  C_17 
REMARK    2  A    between atoms: C_7  and  C_5 
REMARK    3  A    between atoms: C_10  and  C_13 
REMARK    4  A    between atoms: C_13  and  C_14 
REMARK    5  A    between atoms: C_14  and  O_16 
REMARK    6  A    between atoms: C_21  and  N_24 
REMARK    7  A    between atoms: N_24  and  C_25 
REMARK    8  A    between atoms: C_29  and  C_32 
ROOT
HETATM    1  C   UNK N   1      31.601  15.859   7.672  0.00  0.00     0.042 A 
HETATM    2  N   UNK N   1      31.932  14.533   7.599  0.00  0.00    -0.363 N 
ATOM      3  HN  UNK N   1      31.390  13.917   6.994  1.00  0.00     0.165 HD
HETATM    4  C   UNK N   1      32.970  14.017   8.315  0.00  0.00     0.117 A 
HETATM    5  C   UNK N   1      33.695  14.843   9.176  0.00  0.00     0.048 A 
HETATM    6  C   UNK N   1      33.320  16.186   9.304  0.00  0.00     0.033 A 
HETATM    7  C   UNK N   1      32.271  16.692   8.566  0.00  0.00     0.033 A 
ENDROOT
BRANCH   1   8
HETATM    8  C   UNK N   1      30.578  16.426   6.784  0.00  0.00    -0.009 A 
HETATM    9  C   UNK N   1      29.743  17.445   7.241  0.00  0.00     0.014 A 
HETATM   10  C   UNK N   1      28.816  18.022   6.380  0.00  0.00     0.008 A 
HETATM   11  C   UNK N   1      28.688  17.565   5.058  0.00  0.00    -0.054 A 
HETATM   12  C   UNK N   1      29.489  16.512   4.613  0.00  0.00     0.008 A 
HETATM   13  C   UNK N   1      30.426  15.940   5.473  0.00  0.00     0.014 A 
BRANCH  11  14
HETATM   14  C   UNK N   1      27.885  18.342   4.058  0.00  0.00     0.018 C 
HETATM   15  C   UNK N   1      26.642  17.658   3.473  0.00  0.00     0.010 C 
HETATM   16  C   UNK N   1      25.394  17.899   4.323  0.00  0.00     0.006 C 
HETATM   17  C   UNK N   1      25.196  19.383   4.655  0.00  0.00    -0.005 C 
HETATM   18  C   UNK N   1      26.430  19.939   5.366  0.00  0.00     0.006 C 
HETATM   19  C   UNK N   1      27.655  19.796   4.465  0.00  0.00     0.010 C 
BRANCH  17  20
HETATM   20  C   UNK N   1      24.669  20.223   3.469  0.00  0.00     0.114 C 
BRANCH  20  21
HETATM   21  C   UNK N   1      23.179  20.207   3.244  0.00  0.00     0.139 C 
HETATM   22  O   UNK N   1      22.651  21.093   2.594  0.00  0.00    -0.650 OA
BRANCH  21  23
HETATM   23  O   UNK N   1      22.428  19.203   3.740  0.00  0.00    -0.776 OA
HETATM   24  H   UNK N   1      22.301  19.117   4.664  0.00  0.00     0.167 HD
ENDBRANCH  21  23
ENDBRANCH  20  21
ENDBRANCH  17  20
ENDBRANCH  11  14
ENDBRANCH   1   8
BRANCH   5  25
HETATM   25  N   UNK N   1      35.011  14.493   9.557  0.00  0.00    -0.354 N 
HETATM   26  H   UNK N   1      35.721  14.308   8.901  0.00  0.00     0.166 HD
BRANCH  25  27
HETATM   27  C   UNK N   1      35.229  14.428  10.960  0.00  0.00     0.048 A 
HETATM   28  C   UNK N   1      36.097  15.311  11.600  0.00  0.00     0.117 A 
HETATM   29  N   UNK N   1      36.507  15.048  12.876  0.00  0.00    -0.360 N 
HETATM   30  C   UNK N   1      36.097  13.930  13.547  0.00  0.00     0.116 A 
ATOM     31  HN  UNK N   1      37.137  15.703  13.339  1.00  0.00     0.165 HD
HETATM   32  C   UNK N   1      35.191  13.057  12.953  0.00  0.00     0.036 A 
HETATM   33  C   UNK N   1      34.767  13.303  11.663  0.00  0.00     0.033 A 
BRANCH  30  34
HETATM   34  C   UNK N   1      36.661  13.605  14.894  0.00  0.00     0.432 C 
HETATM   35  F   UNK N   1      37.288  14.729  15.399  0.00  0.00    -0.165 F 
HETATM   36  F   UNK N   1      37.596  12.583  14.808  0.00  0.00    -0.165 F 
HETATM   37  F   UNK N   1      35.648  13.218  15.746  0.00  0.00    -0.165 F 
ENDBRANCH  30  34
ENDBRANCH  25  27
ENDBRANCH   5  25
TORSDOF 8
ENDMDL
MODEL 6
REMARK VINA RESULT:      -8.2      2.146      3.864
REMARK  8 active torsions:
REMARK  status: ('A' for Active; 'I' for Inactive)
REMARK    1  A    between atoms: C_2  and  C_17 
REMARK    2  A    between atoms: C_7  and  C_5 
REMARK    3  A    between atoms: C_10  and  C_13 
REMARK    4  A    between atoms: C_13  and  C_14 
REMARK    5  A    between atoms: C_14  and  O_16 
REMARK    6  A    between atoms: C_21  and  N_24 
REMARK    7  A    between atoms: N_24  and  C_25 
REMARK    8  A    between atoms: C_29  and  C_32 
ROOT
HETATM    1  C   UNK N   1      29.762  17.194   7.115  0.00  0.00     0.042 A 
HETATM    2  N   UNK N   1      30.753  16.349   6.694  0.00  0.00    -0.363 N 
ATOM      3  HN  UNK N   1      30.592  15.763   5.875  1.00  0.00     0.165 HD
HETATM    4  C   UNK N   1      31.948  16.272   7.343  0.00  0.00     0.117 A 
HETATM    5  C   UNK N   1      32.164  17.041   8.488  0.00  0.00     0.048 A 
HETATM    6  C   UNK N   1      31.131  17.860   8.961  0.00  0.00     0.033 A 
HETATM    7  C   UNK N   1      29.930  17.929   8.287  0.00  0.00     0.033 A 
ENDROOT
BRANCH   1   8
HETATM    8  C   UNK N   1      28.540  17.372   6.320  0.00  0.00    -0.009 A 
HETATM    9  C   UNK N   1      28.399  18.488   5.495  0.00  0.00     0.014 A 
HETATM   10  C   UNK N   1      27.268  18.624   4.697  0.00  0.00     0.008 A 
HETATM   11  C   UNK N   1      26.246  17.661   4.738  0.00  0.00    -0.054 A 
HETATM   12  C   UNK N   1      26.363  16.568   5.599  0.00  0.00     0.008 A 
HETATM   13  C   UNK N   1      27.501  16.427   6.392  0.00  0.00     0.014 A 
BRANCH  11  14
HETATM   14  C   UNK N   1      25.158  17.663   3.706  0.00  0.00     0.018 C 
HETATM   15  C   UNK N   1      23.828  16.999   4.088  0.00  0.00     0.010 C 
HETATM   16  C   UNK N   1      22.869  17.974   4.772  0.00  0.00     0.006 C 
HETATM   17  C   UNK N   1      22.715  19.282   3.986  0.00  0.00    -0.005 C 
HETATM   18  C   UNK N   1      24.078  19.945   3.781  0.00  0.00     0.006 C 
HETATM   19  C   UNK N   1      24.996  19.007   2.999  0.00  0.00     0.010 C 
BRANCH  17  20
HETATM   20  C   UNK N   1      21.835  19.151   2.721  0.00  0.00     0.114 C 
BRANCH  20  21
HETATM   21  C   UNK N   1      21.417  20.437   2.056  0.00  0.00     0.139 C 
HETATM   22  O   UNK N   1      21.457  20.536   0.842  0.00  0.00    -0.650 OA
BRANCH  21  23
HETATM   23  O   UNK N   1      20.980  21.474   2.798  0.00  0.00    -0.776 OA
HETATM   24  H   UNK N   1      20.472  22.157   2.407  0.00  0.00     0.167 HD
ENDBRANCH  21  23
ENDBRANCH  20  21
ENDBRANCH  17  20
ENDBRANCH  11  14
ENDBRANCH   1   8
BRANCH   5  25
HETATM   25  N   UNK N   1      33.481  17.348   8.901  0.00  0.00    -0.354 N 
HETATM   26  H   UNK N   1      33.915  18.206   8.694  0.00  0.00     0.166 HD
BRANCH  25  27
HETATM   27  C   UNK N   1      34.130  16.320   9.639  0.00  0.00     0.048 A 
HETATM   28  C   UNK N   1      33.469  15.137   9.966  0.00  0.00     0.117 A 
HETATM   29  N   UNK N   1      34.004  14.304  10.907  0.00  0.00    -0.360 N 
HETATM   30  C   UNK N   1      35.172  14.603  11.552  0.00  0.00     0.116 A 
ATOM     31  HN  UNK N   1      33.519  13.437  11.136  1.00  0.00     0.165 HD
HETATM   32  C   UNK N   1      35.879  15.752  11.210  0.00  0.00     0.036 A 
HETATM   33  C   UNK N   1      35.354  16.608  10.264  0.00  0.00     0.033 A 
BRANCH  30  34
HETATM   34  C   UNK N   1      35.667  13.736  12.666  0.00  0.00     0.432 C 
HETATM   35  F   UNK N   1      36.949  13.312  12.368  0.00  0.00    -0.165 F 
HETATM   36  F   UNK N   1      34.860  12.618  12.822  0.00  0.00    -0.165 F 
HETATM   37  F   UNK N   1      35.679  14.451  13.846  0.00  0.00    -0.165 F 
ENDBRANCH  30  34
ENDBRANCH  25  27
ENDBRANCH   5  25
TORSDOF 8
ENDMDL
MODEL 7
REMARK VINA RESULT:      -8.0      6.531     10.286
REMARK  8 active torsions:
REMARK  status: ('A' for Active; 'I' for Inactive)
REMARK    1  A    between atoms: C_2  and  C_17 
REMARK    2  A    between atoms: C_7  and  C_5 
REMARK    3  A    between atoms: C_10  and  C_13 
REMARK    4  A    between atoms: C_13  and  C_14 
REMARK    5  A    between atoms: C_14  and  O_16 
REMARK    6  A    between atoms: C_21  and  N_24 
REMARK    7  A    between atoms: N_24  and  C_25 
REMARK    8  A    between atoms: C_29  and  C_32 
ROOT
HETATM    1  C   UNK N   1      35.268  12.495  16.534  0.00  0.00     0.042 A 
HETATM    2  N   UNK N   1      35.262  11.154  16.810  0.00  0.00    -0.363 N 
ATOM      3  HN  UNK N   1      35.246  10.487  16.039  1.00  0.00     0.165 HD
HETATM    4  C   UNK N   1      35.278  10.690  18.090  0.00  0.00     0.117 A 
HETATM    5  C   UNK N   1      35.261  11.594  19.154  0.00  0.00     0.048 A 
HETATM    6  C   UNK N   1      35.202  12.966  18.878  0.00  0.00     0.033 A 
HETATM    7  C   UNK N   1      35.193  13.417  17.576  0.00  0.00     0.033 A 
ENDROOT
BRANCH   1   8
HETATM    8  C   UNK N   1      35.401  12.975  15.153  0.00  0.00    -0.009 A 
HETATM    9  C   UNK N   1      36.185  14.094  14.873  0.00  0.00     0.014 A 
HETATM   10  C   UNK N   1      36.357  14.511  13.558  0.00  0.00     0.008 A 
HETATM   11  C   UNK N   1      35.720  13.834  12.505  0.00  0.00    -0.054 A 
HETATM   12  C   UNK N   1      34.896  12.743  12.786  0.00  0.00     0.008 A 
HETATM   13  C   UNK N   1      34.730  12.319  14.104  0.00  0.00     0.014 A 
BRANCH  11  14
HETATM   14  C   UNK N   1      36.101  14.111  11.081  0.00  0.00     0.018 C 
HETATM   15  C   UNK N   1      35.369  13.317   9.992  0.00  0.00     0.010 C 
HETATM   16  C   UNK N   1      34.079  14.004   9.542  0.00  0.00     0.006 C 
HETATM   17  C   UNK N   1      34.299  15.482   9.200  0.00  0.00    -0.005 C 
HETATM   18  C   UNK N   1      34.898  16.223  10.396  0.00  0.00     0.006 C 
HETATM   19  C   UNK N   1      36.241  15.600  10.771  0.00  0.00     0.010 C 
BRANCH  17  20
HETATM   20  C   UNK N   1      35.008  15.711   7.845  0.00  0.00     0.114 C 
BRANCH  20  21
HETATM   21  C   UNK N   1      34.413  16.761   6.943  0.00  0.00     0.139 C 
HETATM   22  O   UNK N   1      33.737  16.429   5.984  0.00  0.00    -0.650 OA
BRANCH  21  23
HETATM   23  O   UNK N   1      34.606  18.069   7.204  0.00  0.00    -0.776 OA
HETATM   24  H   UNK N   1      34.114  18.722   6.748  0.00  0.00     0.167 HD
ENDBRANCH  21  23
ENDBRANCH  20  21
ENDBRANCH  17  20
ENDBRANCH  11  14
ENDBRANCH   1   8
BRANCH   5  25
HETATM   25  N   UNK N   1      35.737  11.203  20.427  0.00  0.00    -0.354 N 
HETATM   26  H   UNK N   1      36.594  11.520  20.792  0.00  0.00     0.166 HD
BRANCH  25  27
HETATM   27  C   UNK N   1      34.883  10.317  21.138  0.00  0.00     0.048 A 
HETATM   28  C   UNK N   1      35.234   8.984  21.346  0.00  0.00     0.117 A 
HETATM   29  N   UNK N   1      34.287   8.096  21.768  0.00  0.00    -0.360 N 
HETATM   30  C   UNK N   1      32.991   8.474  21.985  0.00  0.00     0.116 A 
ATOM     31  HN  UNK N   1      34.553   7.124  21.924  1.00  0.00     0.165 HD
HETATM   32  C   UNK N   1      32.623   9.808  21.833  0.00  0.00     0.036 A 
HETATM   33  C   UNK N   1      33.564  10.721  21.404  0.00  0.00     0.033 A 
BRANCH  30  34
HETATM   34  C   UNK N   1      31.950   7.454  22.323  0.00  0.00     0.432 C 
HETATM   35  F   UNK N   1      30.888   7.592  21.448  0.00  0.00    -0.165 F 
HETATM   36  F   UNK N   1      31.480   7.634  23.617  0.00  0.00    -0.165 F 
HETATM   37  F   UNK N   1      32.481   6.187  22.209  0.00  0.00    -0.165 F 
ENDBRANCH  30  34
ENDBRANCH  25  27
ENDBRANCH   5  25
TORSDOF 8
ENDMDL
MODEL 8
REMARK VINA RESULT:      -8.0      3.025      4.261
REMARK  8 active torsions:
REMARK  status: ('A' for Active; 'I' for Inactive)
REMARK    1  A    between atoms: C_2  and  C_17 
REMARK    2  A    between atoms: C_7  and  C_5 
REMARK    3  A    between atoms: C_10  and  C_13 
REMARK    4  A    between atoms: C_13  and  C_14 
REMARK    5  A    between atoms: C_14  and  O_16 
REMARK    6  A    between atoms: C_21  and  N_24 
REMARK    7  A    between atoms: N_24  and  C_25 
REMARK    8  A    between atoms: C_29  and  C_32 
ROOT
HETATM    1  C   UNK N   1      34.558  15.584   9.927  0.00  0.00     0.042 A 
HETATM    2  N   UNK N   1      34.378  14.271  10.273  0.00  0.00    -0.363 N 
ATOM      3  HN  UNK N   1      33.750  13.692   9.716  1.00  0.00     0.165 HD
HETATM    4  C   UNK N   1      35.019  13.721  11.341  0.00  0.00     0.117 A 
HETATM    5  C   UNK N   1      35.851  14.516  12.133  0.00  0.00     0.048 A 
HETATM    6  C   UNK N   1      35.988  15.874  11.823  0.00  0.00     0.033 A 
HETATM    7  C   UNK N   1      35.336  16.411  10.733  0.00  0.00     0.033 A 
ENDROOT
BRANCH   1   8
HETATM    8  C   UNK N   1      33.977  16.119   8.689  0.00  0.00    -0.009 A 
HETATM    9  C   UNK N   1      34.497  15.740   7.452  0.00  0.00     0.014 A 
HETATM   10  C   UNK N   1      33.908  16.201   6.280  0.00  0.00     0.008 A 
HETATM   11  C   UNK N   1      32.809  17.075   6.329  0.00  0.00    -0.054 A 
HETATM   12  C   UNK N   1      32.317  17.494   7.566  0.00  0.00     0.008 A 
HETATM   13  C   UNK N   1      32.902  17.025   8.741  0.00  0.00     0.014 A 
BRANCH  11  14
HETATM   14  C   UNK N   1      32.014  17.368   5.092  0.00  0.00     0.018 C 
HETATM   15  C   UNK N   1      32.457  16.679   3.794  0.00  0.00     0.010 C 
HETATM   16  C   UNK N   1      31.805  15.308   3.614  0.00  0.00     0.006 C 
HETATM   17  C   UNK N   1      30.285  15.358   3.811  0.00  0.00    -0.005 C 
HETATM   18  C   UNK N   1      29.944  15.923   5.190  0.00  0.00     0.006 C 
HETATM   19  C   UNK N   1      30.504  17.339   5.322  0.00  0.00     0.010 C 
BRANCH  17  20
HETATM   20  C   UNK N   1      29.522  15.985   2.620  0.00  0.00     0.114 C 
BRANCH  20  21
HETATM   21  C   UNK N   1      28.053  15.665   2.521  0.00  0.00     0.139 C 
HETATM   22  O   UNK N   1      27.231  16.411   3.023  0.00  0.00    -0.650 OA
BRANCH  21  23
HETATM   23  O   UNK N   1      27.641  14.565   1.859  0.00  0.00    -0.776 OA
HETATM   24  H   UNK N   1      26.969  14.019   2.216  0.00  0.00     0.167 HD
ENDBRANCH  21  23
ENDBRANCH  20  21
ENDBRANCH  17  20
ENDBRANCH  11  14
ENDBRANCH   1   8
BRANCH   5  25
HETATM   25  N   UNK N   1      36.862  13.920  12.922  0.00  0.00    -0.354 N 
HETATM   26  H   UNK N   1      37.819  14.091  12.774  0.00  0.00     0.166 HD
BRANCH  25  27
HETATM   27  C   UNK N   1      36.388  13.055  13.946  0.00  0.00     0.048 A 
HETATM   28  C   UNK N   1      35.395  13.463  14.836  0.00  0.00     0.117 A 
HETATM   29  N   UNK N   1      35.167  12.736  15.970  0.00  0.00    -0.360 N 
HETATM   30  C   UNK N   1      35.896  11.618  16.267  0.00  0.00     0.116 A 
ATOM     31  HN  UNK N   1      34.435  13.037  16.613  1.00  0.00     0.165 HD
HETATM   32  C   UNK N   1      36.859  11.160  15.373  0.00  0.00     0.036 A 
HETATM   33  C   UNK N   1      37.107  11.881  14.223  0.00  0.00     0.033 A 
BRANCH  30  34
HETATM   34  C   UNK N   1      35.710  10.918  17.576  0.00  0.00     0.432 C 
HETATM   35  F   UNK N   1      34.623  10.069  17.478  0.00  0.00    -0.165 F 
HETATM   36  F   UNK N   1      35.467  11.826  18.597  0.00  0.00    -0.165 F 
HETATM   37  F   UNK N   1      36.840  10.188  17.881  0.00  0.00    -0.165 F 
ENDBRANCH  30  34
ENDBRANCH  25  27
ENDBRANCH   5  25
TORSDOF 8
ENDMDL
MODEL 9
REMARK VINA RESULT:      -7.8      7.119     11.494
REMARK  8 active torsions:
REMARK  status: ('A' for Active; 'I' for Inactive)
REMARK    1  A    between atoms: C_2  and  C_17 
REMARK    2  A    between atoms: C_7  and  C_5 
REMARK    3  A    between atoms: C_10  and  C_13 
REMARK    4  A    between atoms: C_13  and  C_14 
REMARK    5  A    between atoms: C_14  and  O_16 
REMARK    6  A    between atoms: C_21  and  N_24 
REMARK    7  A    between atoms: N_24  and  C_25 
REMARK    8  A    between atoms: C_29  and  C_32 
ROOT
HETATM    1  C   UNK N   1      29.012  17.287   4.454  0.00  0.00     0.042 A 
HETATM    2  N   UNK N   1      28.702  16.273   3.589  0.00  0.00    -0.363 N 
ATOM      3  HN  UNK N   1      29.423  15.599   3.333  1.00  0.00     0.165 HD
HETATM    4  C   UNK N   1      27.452  16.141   3.064  0.00  0.00     0.117 A 
HETATM    5  C   UNK N   1      26.467  17.080   3.379  0.00  0.00     0.048 A 
HETATM    6  C   UNK N   1      26.797  18.156   4.211  0.00  0.00     0.033 A 
HETATM    7  C   UNK N   1      28.066  18.269   4.738  0.00  0.00     0.033 A 
ENDROOT
BRANCH   1   8
HETATM    8  C   UNK N   1      30.319  17.328   5.123  0.00  0.00    -0.009 A 
HETATM    9  C   UNK N   1      30.398  17.205   6.510  0.00  0.00     0.014 A 
HETATM   10  C   UNK N   1      31.639  17.182   7.137  0.00  0.00     0.008 A 
HETATM   11  C   UNK N   1      32.820  17.317   6.387  0.00  0.00    -0.054 A 
HETATM   12  C   UNK N   1      32.741  17.489   5.004  0.00  0.00     0.008 A 
HETATM   13  C   UNK N   1      31.497  17.501   4.375  0.00  0.00     0.014 A 
BRANCH  11  14
HETATM   14  C   UNK N   1      34.154  17.037   7.011  0.00  0.00     0.018 C 
HETATM   15  C   UNK N   1      34.264  17.203   8.533  0.00  0.00     0.010 C 
HETATM   16  C   UNK N   1      33.899  15.921   9.283  0.00  0.00     0.006 C 
HETATM   17  C   UNK N   1      34.636  14.696   8.729  0.00  0.00    -0.005 C 
HETATM   18  C   UNK N   1      34.349  14.529   7.237  0.00  0.00     0.006 C 
HETATM   19  C   UNK N   1      34.818  15.769   6.478  0.00  0.00     0.010 C 
BRANCH  17  20
HETATM   20  C   UNK N   1      36.126  14.626   9.139  0.00  0.00     0.114 C 
BRANCH  20  21
HETATM   21  C   UNK N   1      36.444  14.944  10.577  0.00  0.00     0.139 C 
HETATM   22  O   UNK N   1      36.203  14.127  11.449  0.00  0.00    -0.650 OA
BRANCH  21  23
HETATM   23  O   UNK N   1      37.013  16.122  10.902  0.00  0.00    -0.776 OA
HETATM   24  H   UNK N   1      37.544  16.197  11.670  0.00  0.00     0.167 HD
ENDBRANCH  21  23
ENDBRANCH  20  21
ENDBRANCH  17  20
ENDBRANCH  11  14
ENDBRANCH   1   8
BRANCH   5  25
HETATM   25  N   UNK N   1      25.099  16.744   3.255  0.00  0.00    -0.354 N 
HETATM   26  H   UNK N   1      24.640  16.705   2.386  0.00  0.00     0.166 HD
BRANCH  25  27
HETATM   27  C   UNK N   1      24.439  16.469   4.484  0.00  0.00     0.048 A 
HETATM   28  C   UNK N   1      24.651  15.272   5.167  0.00  0.00     0.117 A 
HETATM   29  N   UNK N   1      23.802  14.911   6.174  0.00  0.00    -0.360 N 
HETATM   30  C   UNK N   1      22.735  15.689   6.528  0.00  0.00     0.116 A 
ATOM     31  HN  UNK N   1      23.967  14.037   6.673  1.00  0.00     0.165 HD
HETATM   32  C   UNK N   1      22.528  16.912   5.898  0.00  0.00     0.036 A 
HETATM   33  C   UNK N   1      23.372  17.293   4.876  0.00  0.00     0.033 A 
BRANCH  30  34
HETATM   34  C   UNK N   1      21.751  15.207   7.547  0.00  0.00     0.432 C 
HETATM   35  F   UNK N   1      22.391  14.335   8.409  0.00  0.00    -0.165 F 
HETATM   36  F   UNK N   1      20.698  14.534   6.943  0.00  0.00    -0.165 F 
HETATM   37  F   UNK N   1      21.252  16.278   8.259  0.00  0.00    -0.165 F 
ENDBRANCH  30  34
ENDBRANCH  25  27
ENDBRANCH   5  25
TORSDOF 8
ENDMDL
