MODEL 1
REMARK VINA RESULT:      -8.1      0.000      0.000
REMARK  4 active torsions:
REMARK  status: ('A' for Active; 'I' for Inactive)
REMARK    1  A    between atoms: C_2  and  C_4 
REMARK    2  A    between atoms: C_6  and  O_12 
REMARK    3  A    between atoms: O_12  and  C_13 
REMARK    4  A    between atoms: C_16  and  N_20 
ROOT
HETATM    1  N   UNK N   1      26.771  18.988   5.545  0.00  0.00    -0.204 N 
HETATM    2  C   UNK N   1      26.623  20.275   5.077  0.00  0.00     0.348 A 
HETATM    3  O   UNK N   1      27.448  21.139   5.323  0.00  0.00    -0.245 OA
HETATM    4  N   UNK N   1      25.544  20.570   4.292  0.00  0.00    -0.271 N 
HETATM    5  C   UNK N   1      24.609  19.603   4.011  0.00  0.00     0.288 A 
HETATM    6  O   UNK N   1      23.684  19.853   3.263  0.00  0.00    -0.265 OA
HETATM    7  C   UNK N   1      24.741  18.339   4.586  0.00  0.00     0.197 A 
HETATM    8  N   UNK N   1      25.820  18.089   5.321  0.00  0.00    -0.275 N 
ATOM      9  HN  UNK N   1      25.923  17.162   5.733  1.00  0.00     0.188 HD
HETATM   10  C   UNK N   1      23.810  17.260   4.417  0.00  0.00     0.125 C 
HETATM   11  N   UNK N   1      23.109  16.344   4.328  0.00  0.00    -0.190 NA
HETATM   12  H   UNK N   1      25.436  21.477   3.927  0.00  0.00     0.174 HD
ENDROOT
BRANCH   1  13
HETATM   13  C   UNK N   1      27.902  18.511   6.250  0.00  0.00     0.065 C 
HETATM   14  C   UNK N   1      28.168  18.838   7.578  0.00  0.00     0.058 C 
HETATM   15  C   UNK N   1      29.206  18.202   8.230  0.00  0.00     0.071 C 
HETATM   16  C   UNK N   1      29.958  17.233   7.559  0.00  0.00     0.121 C 
HETATM   17 Cl   UNK N   1      29.553  18.607   9.902  0.00  0.00    -0.081 Cl
HETATM   18  C   UNK N   1      29.818  17.086   6.143  0.00  0.00     0.071 C 
HETATM   19  C   UNK N   1      28.778  17.706   5.543  0.00  0.00     0.058 C 
HETATM   20 Cl   UNK N   1      30.880  16.223   5.014  0.00  0.00    -0.081 Cl
BRANCH  16  21
HETATM   21  O   UNK N   1      30.777  16.479   8.300  0.00  0.00    -0.289 OA
BRANCH  21  22
HETATM   22  C   UNK N   1      32.092  16.702   8.390  0.00  0.00     0.163 C 
HETATM   23  C   UNK N   1      32.835  15.703   8.911  0.00  0.00     0.071 C 
HETATM   24  C   UNK N   1      34.088  15.962   9.399  0.00  0.00     0.019 C 
HETATM   25  C   UNK N   1      34.570  17.289   9.348  0.00  0.00     0.266 C 
HETATM   26  N   UNK N   1      33.852  18.227   8.654  0.00  0.00    -0.264 N 
HETATM   27  O   UNK N   1      35.607  17.608   9.898  0.00  0.00    -0.266 OA
HETATM   28  N   UNK N   1      32.649  17.928   8.164  0.00  0.00    -0.277 N 
HETATM   29  H   UNK N   1      34.226  19.127   8.518  0.00  0.00     0.190 HD
ATOM     30  HN  UNK N   1      32.140  18.620   7.614  1.00  0.00     0.189 HD
BRANCH  24  31
HETATM   31  C   UNK N   1      34.781  14.799  10.026  0.00  0.00     0.016 C 
HETATM   32  C   UNK N   1      34.726  14.522  11.506  0.00  0.00     0.015 C 
HETATM   33  C   UNK N   1      35.567  13.840   9.134  0.00  0.00     0.015 C 
ENDBRANCH  24  31
ENDBRANCH  21  22
ENDBRANCH  16  21
ENDBRANCH   1  13
TORSDOF 4
ENDMDL
MODEL 2
REMARK VINA RESULT:      -8.0      3.289      5.500
REMARK  4 active torsions:
REMARK  status: ('A' for Active; 'I' for Inactive)
REMARK    1  A    between atoms: C_2  and  C_4 
REMARK    2  A    between atoms: C_6  and  O_12 
REMARK    3  A    between atoms: O_12  and  C_13 
REMARK    4  A    between atoms: C_16  and  N_20 
ROOT
HETATM    1  N   UNK N   1      22.326  16.910   5.199  0.00  0.00    -0.204 N 
HETATM    2  C   UNK N   1      21.566  16.210   4.288  0.00  0.00     0.348 A 
HETATM    3  O   UNK N   1      22.010  15.901   3.195  0.00  0.00    -0.245 OA
HETATM    4  N   UNK N   1      20.303  15.826   4.642  0.00  0.00    -0.271 N 
HETATM    5  C   UNK N   1      19.795  16.169   5.871  0.00  0.00     0.288 A 
HETATM    6  O   UNK N   1      18.695  15.774   6.204  0.00  0.00    -0.265 OA
HETATM    7  C   UNK N   1      20.557  16.966   6.726  0.00  0.00     0.197 A 
HETATM    8  N   UNK N   1      21.790  17.293   6.352  0.00  0.00    -0.275 N 
ATOM      9  HN  UNK N   1      22.353  17.866   6.981  1.00  0.00     0.188 HD
HETATM   10  C   UNK N   1      20.125  17.438   8.010  0.00  0.00     0.125 C 
HETATM   11  N   UNK N   1      19.850  17.854   9.053  0.00  0.00    -0.190 NA
HETATM   12  H   UNK N   1      19.756  15.302   4.014  0.00  0.00     0.174 HD
ENDROOT
BRANCH   1  13
HETATM   13  C   UNK N   1      23.688  17.252   5.021  0.00  0.00     0.065 C 
HETATM   14  C   UNK N   1      24.106  18.438   4.423  0.00  0.00     0.058 C 
HETATM   15  C   UNK N   1      25.450  18.758   4.434  0.00  0.00     0.071 C 
HETATM   16  C   UNK N   1      26.362  17.901   5.057  0.00  0.00     0.121 C 
HETATM   17 Cl   UNK N   1      25.989  20.249   3.682  0.00  0.00    -0.081 Cl
HETATM   18  C   UNK N   1      25.944  16.591   5.452  0.00  0.00     0.071 C 
HETATM   19  C   UNK N   1      24.620  16.322   5.448  0.00  0.00     0.058 C 
HETATM   20 Cl   UNK N   1      26.951  15.204   5.909  0.00  0.00    -0.081 Cl
BRANCH  16  21
HETATM   21  O   UNK N   1      27.598  18.371   5.256  0.00  0.00    -0.289 OA
BRANCH  21  22
HETATM   22  C   UNK N   1      28.142  18.503   6.469  0.00  0.00     0.163 C 
HETATM   23  C   UNK N   1      29.381  17.992   6.630  0.00  0.00     0.071 C 
HETATM   24  C   UNK N   1      29.858  17.728   7.885  0.00  0.00     0.019 C 
HETATM   25  C   UNK N   1      29.022  17.994   8.993  0.00  0.00     0.266 C 
HETATM   26  N   UNK N   1      27.849  18.672   8.788  0.00  0.00    -0.264 N 
HETATM   27  O   UNK N   1      29.329  17.643  10.117  0.00  0.00    -0.266 OA
HETATM   28  N   UNK N   1      27.434  18.941   7.551  0.00  0.00    -0.277 N 
HETATM   29  H   UNK N   1      27.310  18.960   9.559  0.00  0.00     0.190 HD
ATOM     30  HN  UNK N   1      26.580  19.482   7.410  1.00  0.00     0.189 HD
BRANCH  24  31
HETATM   31  C   UNK N   1      31.205  17.088   7.934  0.00  0.00     0.016 C 
HETATM   32  C   UNK N   1      31.433  15.647   7.561  0.00  0.00     0.015 C 
HETATM   33  C   UNK N   1      32.405  17.928   8.367  0.00  0.00     0.015 C 
ENDBRANCH  24  31
ENDBRANCH  21  22
ENDBRANCH  16  21
ENDBRANCH   1  13
TORSDOF 4
ENDMDL
MODEL 3
REMARK VINA RESULT:      -8.0      2.159      9.245
REMARK  4 active torsions:
REMARK  status: ('A' for Active; 'I' for Inactive)
REMARK    1  A    between atoms: C_2  and  C_4 
REMARK    2  A    between atoms: C_6  and  O_12 
REMARK    3  A    between atoms: O_12  and  C_13 
REMARK    4  A    between atoms: C_16  and  N_20 
ROOT
HETATM    1  N   UNK N   1      33.596  16.862   8.286  0.00  0.00    -0.204 N 
HETATM    2  C   UNK N   1      34.452  17.832   8.758  0.00  0.00     0.348 A 
HETATM    3  O   UNK N   1      34.419  18.972   8.325  0.00  0.00    -0.245 OA
HETATM    4  N   UNK N   1      35.327  17.509   9.757  0.00  0.00    -0.271 N 
HETATM    5  C   UNK N   1      35.371  16.228  10.250  0.00  0.00     0.288 A 
HETATM    6  O   UNK N   1      36.107  15.961  11.179  0.00  0.00    -0.265 OA
HETATM    7  C   UNK N   1      34.559  15.248   9.676  0.00  0.00     0.197 A 
HETATM    8  N   UNK N   1      33.705  15.613   8.726  0.00  0.00    -0.275 N 
ATOM      9  HN  UNK N   1      33.103  14.900   8.313  1.00  0.00     0.188 HD
HETATM   10  C   UNK N   1      34.547  13.866  10.060  0.00  0.00     0.125 C 
HETATM   11  N   UNK N   1      34.478  12.739  10.313  0.00  0.00    -0.190 NA
HETATM   12  H   UNK N   1      35.927  18.197  10.125  0.00  0.00     0.174 HD
ENDROOT
BRANCH   1  13
HETATM   13  C   UNK N   1      32.553  17.087   7.356  0.00  0.00     0.065 C 
HETATM   14  C   UNK N   1      32.761  17.173   5.981  0.00  0.00     0.058 C 
HETATM   15  C   UNK N   1      31.667  17.237   5.140  0.00  0.00     0.071 C 
HETATM   16  C   UNK N   1      30.377  17.198   5.675  0.00  0.00     0.121 C 
HETATM   17 Cl   UNK N   1      31.917  17.348   3.407  0.00  0.00    -0.081 Cl
HETATM   18  C   UNK N   1      30.193  17.345   7.086  0.00  0.00     0.071 C 
HETATM   19  C   UNK N   1      31.283  17.255   7.879  0.00  0.00     0.058 C 
HETATM   20 Cl   UNK N   1      28.696  17.695   7.972  0.00  0.00    -0.081 Cl
BRANCH  16  21
HETATM   21  O   UNK N   1      29.369  17.013   4.816  0.00  0.00    -0.289 OA
BRANCH  21  22
HETATM   22  C   UNK N   1      28.384  17.900   4.645  0.00  0.00     0.163 C 
HETATM   23  C   UNK N   1      27.126  17.412   4.675  0.00  0.00     0.071 C 
HETATM   24  C   UNK N   1      26.096  18.136   4.137  0.00  0.00     0.019 C 
HETATM   25  C   UNK N   1      26.386  19.388   3.550  0.00  0.00     0.266 C 
HETATM   26  N   UNK N   1      27.642  19.913   3.702  0.00  0.00    -0.264 N 
HETATM   27  O   UNK N   1      25.544  20.006   2.927  0.00  0.00    -0.266 OA
HETATM   28  N   UNK N   1      28.612  19.190   4.262  0.00  0.00    -0.277 N 
HETATM   29  H   UNK N   1      27.830  20.829   3.394  0.00  0.00     0.190 HD
ATOM     30  HN  UNK N   1      29.533  19.605   4.407  1.00  0.00     0.189 HD
BRANCH  24  31
HETATM   31  C   UNK N   1      24.765  17.460   4.152  0.00  0.00     0.016 C 
HETATM   32  C   UNK N   1      24.500  16.174   3.415  0.00  0.00     0.015 C 
HETATM   33  C   UNK N   1      23.629  18.087   4.957  0.00  0.00     0.015 C 
ENDBRANCH  24  31
ENDBRANCH  21  22
ENDBRANCH  16  21
ENDBRANCH   1  13
TORSDOF 4
ENDMDL
MODEL 4
REMARK VINA RESULT:      -8.0      3.008      4.284
REMARK  4 active torsions:
REMARK  status: ('A' for Active; 'I' for Inactive)
REMARK    1  A    between atoms: C_2  and  C_4 
REMARK    2  A    between atoms: C_6  and  O_12 
REMARK    3  A    between atoms: O_12  and  C_13 
REMARK    4  A    between atoms: C_16  and  N_20 
ROOT
HETATM    1  N   UNK N   1      23.307  19.293   3.792  0.00  0.00    -0.204 N 
HETATM    2  C   UNK N   1      22.915  20.368   3.026  0.00  0.00     0.348 A 
HETATM    3  O   UNK N   1      23.693  21.264   2.744  0.00  0.00    -0.245 OA
HETATM    4  N   UNK N   1      21.636  20.403   2.546  0.00  0.00    -0.271 N 
HETATM    5  C   UNK N   1      20.753  19.398   2.859  0.00  0.00     0.288 A 
HETATM    6  O   UNK N   1      19.635  19.402   2.381  0.00  0.00    -0.265 OA
HETATM    7  C   UNK N   1      21.157  18.379   3.722  0.00  0.00     0.197 A 
HETATM    8  N   UNK N   1      22.418  18.370   4.142  0.00  0.00    -0.275 N 
ATOM      9  HN  UNK N   1      22.718  17.620   4.764  1.00  0.00     0.188 HD
HETATM   10  C   UNK N   1      20.319  17.303   4.169  0.00  0.00     0.125 C 
HETATM   11  N   UNK N   1      19.709  16.407   4.572  0.00  0.00    -0.190 NA
HETATM   12  H   UNK N   1      21.346  21.149   1.974  0.00  0.00     0.174 HD
ENDROOT
BRANCH   1  13
HETATM   13  C   UNK N   1      24.630  19.059   4.240  0.00  0.00     0.065 C 
HETATM   14  C   UNK N   1      25.461  20.066   4.726  0.00  0.00     0.058 C 
HETATM   15  C   UNK N   1      26.676  19.722   5.285  0.00  0.00     0.071 C 
HETATM   16  C   UNK N   1      27.043  18.375   5.371  0.00  0.00     0.121 C 
HETATM   17 Cl   UNK N   1      27.732  20.981   5.899  0.00  0.00    -0.081 Cl
HETATM   18  C   UNK N   1      26.287  17.390   4.661  0.00  0.00     0.071 C 
HETATM   19  C   UNK N   1      25.094  17.759   4.146  0.00  0.00     0.058 C 
HETATM   20 Cl   UNK N   1      26.731  15.711   4.298  0.00  0.00    -0.081 Cl
BRANCH  16  21
HETATM   21  O   UNK N   1      28.101  18.083   6.135  0.00  0.00    -0.289 OA
BRANCH  21  22
HETATM   22  C   UNK N   1      29.269  17.666   5.637  0.00  0.00     0.163 C 
HETATM   23  C   UNK N   1      30.162  17.184   6.526  0.00  0.00     0.071 C 
HETATM   24  C   UNK N   1      31.487  17.101   6.191  0.00  0.00     0.019 C 
HETATM   25  C   UNK N   1      31.887  17.537   4.909  0.00  0.00     0.266 C 
HETATM   26  N   UNK N   1      30.923  17.852   3.987  0.00  0.00    -0.264 N 
HETATM   27  O   UNK N   1      33.062  17.628   4.608  0.00  0.00    -0.266 OA
HETATM   28  N   UNK N   1      29.639  17.889   4.341  0.00  0.00    -0.277 N 
HETATM   29  H   UNK N   1      31.181  18.052   3.059  0.00  0.00     0.190 HD
ATOM     30  HN  UNK N   1      28.925  18.084   3.639  1.00  0.00     0.189 HD
BRANCH  24  31
HETATM   31  C   UNK N   1      32.392  16.631   7.281  0.00  0.00     0.016 C 
HETATM   32  C   UNK N   1      32.660  15.172   7.540  0.00  0.00     0.015 C 
HETATM   33  C   UNK N   1      33.085  17.668   8.162  0.00  0.00     0.015 C 
ENDBRANCH  24  31
ENDBRANCH  21  22
ENDBRANCH  16  21
ENDBRANCH   1  13
TORSDOF 4
ENDMDL
MODEL 5
REMARK VINA RESULT:      -7.7      7.229      9.007
REMARK  4 active torsions:
REMARK  status: ('A' for Active; 'I' for Inactive)
REMARK    1  A    between atoms: C_2  and  C_4 
REMARK    2  A    between atoms: C_6  and  O_12 
REMARK    3  A    between atoms: O_12  and  C_13 
REMARK    4  A    between atoms: C_16  and  N_20 
ROOT
HETATM    1  N   UNK N   1      21.737  17.697   3.841  0.00  0.00    -0.204 N 
HETATM    2  C   UNK N   1      20.769  18.450   3.215  0.00  0.00     0.348 A 
HETATM    3  O   UNK N   1      19.643  18.016   3.037  0.00  0.00    -0.245 OA
HETATM    4  N   UNK N   1      21.077  19.723   2.823  0.00  0.00    -0.271 N 
HETATM    5  C   UNK N   1      22.342  20.220   3.020  0.00  0.00     0.288 A 
HETATM    6  O   UNK N   1      22.594  21.372   2.725  0.00  0.00    -0.265 OA
HETATM    7  C   UNK N   1      23.324  19.392   3.565  0.00  0.00     0.197 A 
HETATM    8  N   UNK N   1      22.973  18.171   3.957  0.00  0.00    -0.275 N 
ATOM      9  HN  UNK N   1      23.687  17.568   4.365  1.00  0.00     0.188 HD
HETATM   10  C   UNK N   1      24.692  19.769   3.773  0.00  0.00     0.125 C 
HETATM   11  N   UNK N   1      25.808  19.998   3.972  0.00  0.00    -0.190 NA
HETATM   12  H   UNK N   1      20.389  20.285   2.399  0.00  0.00     0.174 HD
ENDROOT
BRANCH   1  13
HETATM   13  C   UNK N   1      21.521  16.422   4.418  0.00  0.00     0.065 C 
HETATM   14  C   UNK N   1      21.620  15.233   3.700  0.00  0.00     0.058 C 
HETATM   15  C   UNK N   1      21.548  14.032   4.379  0.00  0.00     0.071 C 
HETATM   16  C   UNK N   1      21.396  14.028   5.768  0.00  0.00     0.121 C 
HETATM   17 Cl   UNK N   1      21.669  12.527   3.485  0.00  0.00    -0.081 Cl
HETATM   18  C   UNK N   1      21.065  15.243   6.446  0.00  0.00     0.071 C 
HETATM   19  C   UNK N   1      21.167  16.400   5.756  0.00  0.00     0.058 C 
HETATM   20 Cl   UNK N   1      20.465  15.454   8.103  0.00  0.00    -0.081 Cl
BRANCH  16  21
HETATM   21  O   UNK N   1      21.580  12.861   6.396  0.00  0.00    -0.289 OA
BRANCH  21  22
HETATM   22  C   UNK N   1      22.575  12.647   7.262  0.00  0.00     0.163 C 
HETATM   23  C   UNK N   1      22.215  12.357   8.530  0.00  0.00     0.071 C 
HETATM   24  C   UNK N   1      23.115  12.505   9.550  0.00  0.00     0.019 C 
HETATM   25  C   UNK N   1      24.413  12.971   9.242  0.00  0.00     0.266 C 
HETATM   26  N   UNK N   1      24.780  13.083   7.927  0.00  0.00    -0.264 N 
HETATM   27  O   UNK N   1      25.206  13.264  10.117  0.00  0.00    -0.266 OA
HETATM   28  N   UNK N   1      23.883  12.899   6.958  0.00  0.00    -0.277 N 
HETATM   29  H   UNK N   1      25.712  13.302   7.696  0.00  0.00     0.190 HD
ATOM     30  HN  UNK N   1      24.175  12.944   5.982  1.00  0.00     0.189 HD
BRANCH  24  31
HETATM   31  C   UNK N   1      22.580  12.235  10.916  0.00  0.00     0.016 C 
HETATM   32  C   UNK N   1      23.469  11.881  12.081  0.00  0.00     0.015 C 
HETATM   33  C   UNK N   1      21.075  12.333  11.152  0.00  0.00     0.015 C 
ENDBRANCH  24  31
ENDBRANCH  21  22
ENDBRANCH  16  21
ENDBRANCH   1  13
TORSDOF 4
ENDMDL
MODEL 6
REMARK VINA RESULT:      -7.7      3.362      5.406
REMARK  4 active torsions:
REMARK  status: ('A' for Active; 'I' for Inactive)
REMARK    1  A    between atoms: C_2  and  C_4 
REMARK    2  A    between atoms: C_6  and  O_12 
REMARK    3  A    between atoms: O_12  and  C_13 
REMARK    4  A    between atoms: C_16  and  N_20 
ROOT
HETATM    1  N   UNK N   1      22.128  18.045   3.924  0.00  0.00    -0.204 N 
HETATM    2  C   UNK N   1      21.024  17.338   4.344  0.00  0.00     0.348 A 
HETATM    3  O   UNK N   1      21.107  16.491   5.218  0.00  0.00    -0.245 OA
HETATM    4  N   UNK N   1      19.808  17.624   3.788  0.00  0.00    -0.271 N 
HETATM    5  C   UNK N   1      19.705  18.576   2.803  0.00  0.00     0.288 A 
HETATM    6  O   UNK N   1      18.614  18.869   2.356  0.00  0.00    -0.265 OA
HETATM    7  C   UNK N   1      20.862  19.199   2.333  0.00  0.00     0.197 A 
HETATM    8  N   UNK N   1      22.019  18.909   2.921  0.00  0.00    -0.275 N 
ATOM      9  HN  UNK N   1      22.863  19.372   2.585  1.00  0.00     0.188 HD
HETATM   10  C   UNK N   1      20.899  20.167   1.275  0.00  0.00     0.125 C 
HETATM   11  N   UNK N   1      21.011  20.953   0.434  0.00  0.00    -0.190 NA
HETATM   12  H   UNK N   1      19.004  17.147   4.095  0.00  0.00     0.174 HD
ENDROOT
BRANCH   1  13
HETATM   13  C   UNK N   1      23.416  17.951   4.503  0.00  0.00     0.065 C 
HETATM   14  C   UNK N   1      23.874  16.815   5.167  0.00  0.00     0.058 C 
HETATM   15  C   UNK N   1      25.196  16.755   5.561  0.00  0.00     0.071 C 
HETATM   16  C   UNK N   1      26.055  17.820   5.274  0.00  0.00     0.121 C 
HETATM   17 Cl   UNK N   1      25.783  15.330   6.400  0.00  0.00    -0.081 Cl
HETATM   18  C   UNK N   1      25.512  19.058   4.807  0.00  0.00     0.071 C 
HETATM   19  C   UNK N   1      24.221  19.073   4.410  0.00  0.00     0.058 C 
HETATM   20 Cl   UNK N   1      26.301  20.645   4.722  0.00  0.00    -0.081 Cl
BRANCH  16  21
HETATM   21  O   UNK N   1      27.363  17.610   5.453  0.00  0.00    -0.289 OA
BRANCH  21  22
HETATM   22  C   UNK N   1      28.035  18.052   6.520  0.00  0.00     0.163 C 
HETATM   23  C   UNK N   1      29.304  17.614   6.655  0.00  0.00     0.071 C 
HETATM   24  C   UNK N   1      29.930  17.683   7.870  0.00  0.00     0.019 C 
HETATM   25  C   UNK N   1      29.214  18.212   8.967  0.00  0.00     0.266 C 
HETATM   26  N   UNK N   1      27.998  18.801   8.741  0.00  0.00    -0.264 N 
HETATM   27  O   UNK N   1      29.659  18.162  10.099  0.00  0.00    -0.266 OA
HETATM   28  N   UNK N   1      27.435  18.743   7.534  0.00  0.00    -0.277 N 
HETATM   29  H   UNK N   1      27.537  19.270   9.474  0.00  0.00     0.190 HD
ATOM     30  HN  UNK N   1      26.549  19.219   7.365  1.00  0.00     0.189 HD
BRANCH  24  31
HETATM   31  C   UNK N   1      31.299  17.093   7.917  0.00  0.00     0.016 C 
HETATM   32  C   UNK N   1      31.576  15.655   7.563  0.00  0.00     0.015 C 
HETATM   33  C   UNK N   1      32.471  17.982   8.327  0.00  0.00     0.015 C 
ENDBRANCH  24  31
ENDBRANCH  21  22
ENDBRANCH  16  21
ENDBRANCH   1  13
TORSDOF 4
ENDMDL
MODEL 7
REMARK VINA RESULT:      -7.7      6.513      9.370
REMARK  4 active torsions:
REMARK  status: ('A' for Active; 'I' for Inactive)
REMARK    1  A    between atoms: C_2  and  C_4 
REMARK    2  A    between atoms: C_6  and  O_12 
REMARK    3  A    between atoms: O_12  and  C_13 
REMARK    4  A    between atoms: C_16  and  N_20 
ROOT
HETATM    1  N   UNK N   1      22.945  18.338   4.491  0.00  0.00    -0.204 N 
HETATM    2  C   UNK N   1      22.622  19.349   3.613  0.00  0.00     0.348 A 
HETATM    3  O   UNK N   1      21.471  19.532   3.253  0.00  0.00    -0.245 OA
HETATM    4  N   UNK N   1      23.613  20.180   3.172  0.00  0.00    -0.271 N 
HETATM    5  C   UNK N   1      24.912  19.980   3.573  0.00  0.00     0.288 A 
HETATM    6  O   UNK N   1      25.780  20.757   3.226  0.00  0.00    -0.265 OA
HETATM    7  C   UNK N   1      25.216  18.884   4.381  0.00  0.00     0.197 A 
HETATM    8  N   UNK N   1      24.217  18.118   4.808  0.00  0.00    -0.275 N 
ATOM      9  HN  UNK N   1      24.436  17.323   5.408  1.00  0.00     0.188 HD
HETATM   10  C   UNK N   1      26.534  18.532   4.824  0.00  0.00     0.125 C 
HETATM   11  N   UNK N   1      27.563  18.185   5.222  0.00  0.00    -0.190 NA
HETATM   12  H   UNK N   1      23.396  20.924   2.566  0.00  0.00     0.174 HD
ENDROOT
BRANCH   1  13
HETATM   13  C   UNK N   1      22.007  17.493   5.130  0.00  0.00     0.065 C 
HETATM   14  C   UNK N   1      21.602  16.267   4.607  0.00  0.00     0.058 C 
HETATM   15  C   UNK N   1      20.805  15.440   5.375  0.00  0.00     0.071 C 
HETATM   16  C   UNK N   1      20.433  15.835   6.663  0.00  0.00     0.121 C 
HETATM   17 Cl   UNK N   1      20.287  13.894   4.726  0.00  0.00    -0.081 Cl
HETATM   18  C   UNK N   1      20.663  17.183   7.082  0.00  0.00     0.071 C 
HETATM   19  C   UNK N   1      21.465  17.955   6.317  0.00  0.00     0.058 C 
HETATM   20 Cl   UNK N   1      19.979  18.035   8.481  0.00  0.00    -0.081 Cl
BRANCH  16  21
HETATM   21  O   UNK N   1      19.877  14.905   7.446  0.00  0.00    -0.289 OA
BRANCH  21  22
HETATM   22  C   UNK N   1      20.477  14.415   8.536  0.00  0.00     0.163 C 
HETATM   23  C   UNK N   1      21.720  13.919   8.366  0.00  0.00     0.071 C 
HETATM   24  C   UNK N   1      22.252  13.065   9.294  0.00  0.00     0.019 C 
HETATM   25  C   UNK N   1      21.468  12.717  10.416  0.00  0.00     0.266 C 
HETATM   26  N   UNK N   1      20.289  13.381  10.631  0.00  0.00    -0.264 N 
HETATM   27  O   UNK N   1      21.824  11.852  11.195  0.00  0.00    -0.266 OA
HETATM   28  N   UNK N   1      19.819  14.232   9.719  0.00  0.00    -0.277 N 
HETATM   29  H   UNK N   1      19.786  13.228  11.463  0.00  0.00     0.190 HD
ATOM     30  HN  UNK N   1      18.962  14.751   9.906  1.00  0.00     0.189 HD
BRANCH  24  31
HETATM   31  C   UNK N   1      23.598  12.516   8.958  0.00  0.00     0.016 C 
HETATM   32  C   UNK N   1      23.795  11.409   7.954  0.00  0.00     0.015 C 
HETATM   33  C   UNK N   1      24.828  13.105   9.645  0.00  0.00     0.015 C 
ENDBRANCH  24  31
ENDBRANCH  21  22
ENDBRANCH  16  21
ENDBRANCH   1  13
TORSDOF 4
ENDMDL
MODEL 8
REMARK VINA RESULT:      -7.6      2.697      9.763
REMARK  4 active torsions:
REMARK  status: ('A' for Active; 'I' for Inactive)
REMARK    1  A    between atoms: C_2  and  C_4 
REMARK    2  A    between atoms: C_6  and  O_12 
REMARK    3  A    between atoms: O_12  and  C_13 
REMARK    4  A    between atoms: C_16  and  N_20 
ROOT
HETATM    1  N   UNK N   1      29.725  17.650   7.127  0.00  0.00    -0.204 N 
HETATM    2  C   UNK N   1      29.489  17.213   8.411  0.00  0.00     0.348 A 
HETATM    3  O   UNK N   1      28.367  17.223   8.889  0.00  0.00    -0.245 OA
HETATM    4  N   UNK N   1      30.535  16.726   9.144  0.00  0.00    -0.271 N 
HETATM    5  C   UNK N   1      31.803  16.711   8.614  0.00  0.00     0.288 A 
HETATM    6  O   UNK N   1      32.718  16.222   9.246  0.00  0.00    -0.265 OA
HETATM    7  C   UNK N   1      32.019  17.256   7.348  0.00  0.00     0.197 A 
HETATM    8  N   UNK N   1      30.969  17.693   6.661  0.00  0.00    -0.275 N 
ATOM      9  HN  UNK N   1      31.124  18.082   5.731  1.00  0.00     0.188 HD
HETATM   10  C   UNK N   1      33.298  17.351   6.704  0.00  0.00     0.125 C 
HETATM   11  N   UNK N   1      34.290  17.461   6.120  0.00  0.00    -0.190 NA
HETATM   12  H   UNK N   1      30.380  16.385  10.054  0.00  0.00     0.174 HD
ENDROOT
BRANCH   1  13
HETATM   13  C   UNK N   1      28.722  18.049   6.212  0.00  0.00     0.065 C 
HETATM   14  C   UNK N   1      28.328  17.274   5.124  0.00  0.00     0.058 C 
HETATM   15  C   UNK N   1      27.235  17.671   4.378  0.00  0.00     0.071 C 
HETATM   16  C   UNK N   1      26.535  18.828   4.735  0.00  0.00     0.121 C 
HETATM   17 Cl   UNK N   1      26.730  16.705   3.004  0.00  0.00    -0.081 Cl
HETATM   18  C   UNK N   1      27.093  19.722   5.701  0.00  0.00     0.071 C 
HETATM   19  C   UNK N   1      28.149  19.291   6.426  0.00  0.00     0.058 C 
HETATM   20 Cl   UNK N   1      26.620  21.394   6.058  0.00  0.00    -0.081 Cl
BRANCH  16  21
HETATM   21  O   UNK N   1      25.353  19.029   4.141  0.00  0.00    -0.289 OA
BRANCH  21  22
HETATM   22  C   UNK N   1      24.247  18.356   4.471  0.00  0.00     0.163 C 
HETATM   23  C   UNK N   1      23.137  18.638   3.757  0.00  0.00     0.071 C 
HETATM   24  C   UNK N   1      21.902  18.313   4.249  0.00  0.00     0.019 C 
HETATM   25  C   UNK N   1      21.824  17.690   5.514  0.00  0.00     0.266 C 
HETATM   26  N   UNK N   1      22.980  17.269   6.117  0.00  0.00    -0.264 N 
HETATM   27  O   UNK N   1      20.755  17.513   6.069  0.00  0.00    -0.266 OA
HETATM   28  N   UNK N   1      24.165  17.576   5.589  0.00  0.00    -0.277 N 
HETATM   29  H   UNK N   1      22.936  16.738   6.944  0.00  0.00     0.190 HD
ATOM     30  HN  UNK N   1      25.019  17.224   6.023  1.00  0.00     0.189 HD
BRANCH  24  31
HETATM   31  C   UNK N   1      20.747  18.748   3.411  0.00  0.00     0.016 C 
HETATM   32  C   UNK N   1      19.919  17.780   2.606  0.00  0.00     0.015 C 
HETATM   33  C   UNK N   1      20.377  20.229   3.375  0.00  0.00     0.015 C 
ENDBRANCH  24  31
ENDBRANCH  21  22
ENDBRANCH  16  21
ENDBRANCH   1  13
TORSDOF 4
ENDMDL
MODEL 9
REMARK VINA RESULT:      -7.6      5.363     10.623
REMARK  4 active torsions:
REMARK  status: ('A' for Active; 'I' for Inactive)
REMARK    1  A    between atoms: C_2  and  C_4 
REMARK    2  A    between atoms: C_6  and  O_12 
REMARK    3  A    between atoms: O_12  and  C_13 
REMARK    4  A    between atoms: C_16  and  N_20 
ROOT
HETATM    1  N   UNK N   1      26.240  17.881   4.332  0.00  0.00    -0.204 N 
HETATM    2  C   UNK N   1      27.180  18.638   4.995  0.00  0.00     0.348 A 
HETATM    3  O   UNK N   1      26.855  19.583   5.694  0.00  0.00    -0.245 OA
HETATM    4  N   UNK N   1      28.497  18.291   4.890  0.00  0.00    -0.271 N 
HETATM    5  C   UNK N   1      28.872  17.227   4.105  0.00  0.00     0.288 A 
HETATM    6  O   UNK N   1      30.037  16.886   4.063  0.00  0.00    -0.265 OA
HETATM    7  C   UNK N   1      27.901  16.548   3.369  0.00  0.00     0.197 A 
HETATM    8  N   UNK N   1      26.629  16.902   3.522  0.00  0.00    -0.275 N 
ATOM      9  HN  UNK N   1      25.917  16.399   2.993  1.00  0.00     0.188 HD
HETATM   10  C   UNK N   1      28.165  15.459   2.473  0.00  0.00     0.125 C 
HETATM   11  N   UNK N   1      28.296  14.576   1.737  0.00  0.00    -0.190 NA
HETATM   12  H   UNK N   1      29.180  18.804   5.379  0.00  0.00     0.174 HD
ENDROOT
BRANCH   1  13
HETATM   13  C   UNK N   1      24.839  18.040   4.458  0.00  0.00     0.065 C 
HETATM   14  C   UNK N   1      24.121  19.036   3.800  0.00  0.00     0.058 C 
HETATM   15  C   UNK N   1      22.741  19.018   3.858  0.00  0.00     0.071 C 
HETATM   16  C   UNK N   1      22.089  17.998   4.557  0.00  0.00     0.121 C 
HETATM   17 Cl   UNK N   1      21.826  20.268   3.035  0.00  0.00    -0.081 Cl
HETATM   18  C   UNK N   1      22.843  17.132   5.410  0.00  0.00     0.071 C 
HETATM   19  C   UNK N   1      24.190  17.162   5.310  0.00  0.00     0.058 C 
HETATM   20 Cl   UNK N   1      22.247  16.026   6.663  0.00  0.00    -0.081 Cl
BRANCH  16  21
HETATM   21  O   UNK N   1      20.769  17.886   4.376  0.00  0.00    -0.289 OA
BRANCH  21  22
HETATM   22  C   UNK N   1      20.225  17.355   3.277  0.00  0.00     0.163 C 
HETATM   23  C   UNK N   1      20.771  16.204   2.833  0.00  0.00     0.071 C 
HETATM   24  C   UNK N   1      20.562  15.796   1.543  0.00  0.00     0.019 C 
HETATM   25  C   UNK N   1      19.775  16.610   0.699  0.00  0.00     0.266 C 
HETATM   26  N   UNK N   1      19.102  17.672   1.244  0.00  0.00    -0.264 N 
HETATM   27  O   UNK N   1      19.676  16.381  -0.492  0.00  0.00    -0.266 OA
HETATM   28  N   UNK N   1      19.306  18.019   2.515  0.00  0.00    -0.277 N 
HETATM   29  H   UNK N   1      18.465  18.183   0.694  0.00  0.00     0.190 HD
ATOM     30  HN  UNK N   1      18.771  18.786   2.923  1.00  0.00     0.189 HD
BRANCH  24  31
HETATM   31  C   UNK N   1      21.284  14.553   1.142  0.00  0.00     0.016 C 
HETATM   32  C   UNK N   1      20.564  13.293   0.737  0.00  0.00     0.015 C 
HETATM   33  C   UNK N   1      22.811  14.559   1.127  0.00  0.00     0.015 C 
ENDBRANCH  24  31
ENDBRANCH  21  22
ENDBRANCH  16  21
ENDBRANCH   1  13
TORSDOF 4
ENDMDL
