MODEL 1
REMARK VINA RESULT:      -4.3      0.000      0.000
REMARK  7 active torsions:
REMARK  status: ('A' for Active; 'I' for Inactive)
REMARK    1  A    between atoms: C_6  and  C_2 
REMARK    2  A    between atoms: C_7  and  C_3 
REMARK    3  A    between atoms: C_8  and  C_4 
REMARK    4  A    between atoms: N_13  and  C_6 
REMARK    5  A    between atoms: N_14  and  C_7 
REMARK    6  A    between atoms: N_14  and  C_8 
REMARK    7  A    between atoms: P_17  and  N_14 
ROOT
HETATM    1  C   UNK N   1      34.269  15.854   8.732  0.00  0.00     0.042 C 
HETATM    2  C   UNK N   1      33.726  17.278   8.992  0.00  0.00     0.103 C 
HETATM    3  C   UNK N   1      33.327  15.011   7.870  0.00  0.00     0.180 C 
HETATM    4  N   UNK N   1      32.641  17.722   8.101  0.00  0.00    -0.226 NA
HETATM    5  O   UNK N   1      34.067  17.841   5.836  0.00  0.00    -0.254 OA
HETATM    6  O   UNK N   1      33.394  15.385   6.518  0.00  0.00    -0.311 OA
HETATM    7  P   UNK N   1      32.877  17.048   6.437  0.00  0.00     0.347 P 
ENDROOT
BRANCH   7   8
HETATM    8  N   UNK N   1      31.469  17.314   5.337  0.00  0.00    -0.225 NA
BRANCH   8   9
HETATM    9  C   UNK N   1      32.018  17.708   4.045  0.00  0.00     0.115 C 
BRANCH   9  10
HETATM   10  C   UNK N   1      31.920  16.567   3.050  0.00  0.00     0.129 C 
HETATM   11 Cl   UNK N   1      33.533  15.856   2.814  0.00  0.00    -0.129 Cl
ENDBRANCH   9  10
ENDBRANCH   8   9
BRANCH   8  12
HETATM   12  C   UNK N   1      30.761  16.056   5.155  0.00  0.00     0.115 C 
BRANCH  12  13
HETATM   13  C   UNK N   1      29.394  16.157   5.809  0.00  0.00     0.129 C 
HETATM   14 Cl   UNK N   1      28.860  17.852   5.843  0.00  0.00    -0.129 Cl
ENDBRANCH  12  13
ENDBRANCH   8  12
ENDBRANCH   7   8
BRANCH   4  15
HETATM   15  C   UNK N   1      31.371  17.285   8.659  0.00  0.00     0.115 C 
BRANCH  15  16
HETATM   16  C   UNK N   1      30.536  18.506   9.000  0.00  0.00     0.129 C 
HETATM   17 Cl   UNK N   1      28.907  18.011   9.510  0.00  0.00    -0.129 Cl
ENDBRANCH  15  16
ENDBRANCH   4  15
TORSDOF 7
ENDMDL
MODEL 2
REMARK VINA RESULT:      -4.2     13.363     15.351
REMARK  7 active torsions:
REMARK  status: ('A' for Active; 'I' for Inactive)
REMARK    1  A    between atoms: C_6  and  C_2 
REMARK    2  A    between atoms: C_7  and  C_3 
REMARK    3  A    between atoms: C_8  and  C_4 
REMARK    4  A    between atoms: N_13  and  C_6 
REMARK    5  A    between atoms: N_14  and  C_7 
REMARK    6  A    between atoms: N_14  and  C_8 
REMARK    7  A    between atoms: P_17  and  N_14 
ROOT
HETATM    1  C   UNK N   1      25.084  27.235  -5.345  0.00  0.00     0.042 C 
HETATM    2  C   UNK N   1      25.529  27.667  -3.929  0.00  0.00     0.103 C 
HETATM    3  C   UNK N   1      26.243  26.708  -6.193  0.00  0.00     0.180 C 
HETATM    4  N   UNK N   1      26.844  27.169  -3.491  0.00  0.00    -0.226 NA
HETATM    5  O   UNK N   1      26.211  24.570  -3.343  0.00  0.00    -0.254 OA
HETATM    6  O   UNK N   1      26.611  25.408  -5.810  0.00  0.00    -0.311 OA
HETATM    7  P   UNK N   1      27.142  25.510  -4.152  0.00  0.00     0.347 P 
ENDROOT
BRANCH   7   8
HETATM    8  N   UNK N   1      28.827  24.915  -3.896  0.00  0.00    -0.225 NA
BRANCH   8   9
HETATM    9  C   UNK N   1      28.722  23.507  -3.534  0.00  0.00     0.115 C 
BRANCH   9  10
HETATM   10  C   UNK N   1      29.469  23.227  -2.243  0.00  0.00     0.129 C 
HETATM   11 Cl   UNK N   1      31.064  22.542  -2.626  0.00  0.00    -0.129 Cl
ENDBRANCH   9  10
ENDBRANCH   8   9
BRANCH   8  12
HETATM   12  C   UNK N   1      29.560  24.999  -5.150  0.00  0.00     0.115 C 
BRANCH  12  13
HETATM   13  C   UNK N   1      30.983  25.444  -4.865  0.00  0.00     0.129 C 
HETATM   14 Cl   UNK N   1      31.033  26.405  -3.371  0.00  0.00    -0.129 Cl
ENDBRANCH  12  13
ENDBRANCH   8  12
ENDBRANCH   7   8
BRANCH   4  15
HETATM   15  C   UNK N   1      27.868  28.097  -3.946  0.00  0.00     0.115 C 
BRANCH  15  16
HETATM   16  C   UNK N   1      27.519  29.492  -3.462  0.00  0.00     0.129 C 
HETATM   17 Cl   UNK N   1      27.448  30.618  -4.836  0.00  0.00    -0.129 Cl
ENDBRANCH  15  16
ENDBRANCH   4  15
TORSDOF 7
ENDMDL
MODEL 3
REMARK VINA RESULT:      -4.1      8.247     10.231
REMARK  7 active torsions:
REMARK  status: ('A' for Active; 'I' for Inactive)
REMARK    1  A    between atoms: C_6  and  C_2 
REMARK    2  A    between atoms: C_7  and  C_3 
REMARK    3  A    between atoms: C_8  and  C_4 
REMARK    4  A    between atoms: N_13  and  C_6 
REMARK    5  A    between atoms: N_14  and  C_7 
REMARK    6  A    between atoms: N_14  and  C_8 
REMARK    7  A    between atoms: P_17  and  N_14 
ROOT
HETATM    1  C   UNK N   1      33.942  10.379  14.770  0.00  0.00     0.042 C 
HETATM    2  C   UNK N   1      35.158   9.764  14.040  0.00  0.00     0.103 C 
HETATM    3  C   UNK N   1      34.227  11.779  15.316  0.00  0.00     0.180 C 
HETATM    4  N   UNK N   1      36.217  10.710  13.651  0.00  0.00    -0.226 NA
HETATM    5  O   UNK N   1      34.821  12.073  11.815  0.00  0.00    -0.254 OA
HETATM    6  O   UNK N   1      34.218  12.741  14.293  0.00  0.00    -0.311 OA
HETATM    7  P   UNK N   1      35.498  12.307  13.191  0.00  0.00     0.347 P 
ENDROOT
BRANCH   7   8
HETATM    8  N   UNK N   1      36.720  13.615  12.952  0.00  0.00    -0.225 NA
BRANCH   8   9
HETATM    9  C   UNK N   1      36.551  14.098  11.587  0.00  0.00     0.115 C 
BRANCH   9  10
HETATM   10  C   UNK N   1      35.907  15.472  11.581  0.00  0.00     0.129 C 
HETATM   11 Cl   UNK N   1      34.508  15.458  10.484  0.00  0.00    -0.129 Cl
ENDBRANCH   9  10
ENDBRANCH   8   9
BRANCH   8  12
HETATM   12  C   UNK N   1      36.424  14.716  13.855  0.00  0.00     0.115 C 
BRANCH  12  13
HETATM   13  C   UNK N   1      37.039  14.425  15.212  0.00  0.00     0.129 C 
HETATM   14 Cl   UNK N   1      37.500  15.944  16.010  0.00  0.00    -0.129 Cl
ENDBRANCH  12  13
ENDBRANCH   8  12
ENDBRANCH   7   8
BRANCH   4  15
HETATM   15  C   UNK N   1      37.139  10.861  14.766  0.00  0.00     0.115 C 
BRANCH  15  16
HETATM   16  C   UNK N   1      37.444   9.491  15.343  0.00  0.00     0.129 C 
HETATM   17 Cl   UNK N   1      36.940   9.418  17.046  0.00  0.00    -0.129 Cl
ENDBRANCH  15  16
ENDBRANCH   4  15
TORSDOF 7
ENDMDL
MODEL 4
REMARK VINA RESULT:      -4.1      3.622      5.819
REMARK  7 active torsions:
REMARK  status: ('A' for Active; 'I' for Inactive)
REMARK    1  A    between atoms: C_6  and  C_2 
REMARK    2  A    between atoms: C_7  and  C_3 
REMARK    3  A    between atoms: C_8  and  C_4 
REMARK    4  A    between atoms: N_13  and  C_6 
REMARK    5  A    between atoms: N_14  and  C_7 
REMARK    6  A    between atoms: N_14  and  C_8 
REMARK    7  A    between atoms: P_17  and  N_14 
ROOT
HETATM    1  C   UNK N   1      32.016  17.514   8.610  0.00  0.00     0.042 C 
HETATM    2  C   UNK N   1      33.252  18.136   7.922  0.00  0.00     0.103 C 
HETATM    3  C   UNK N   1      32.092  15.988   8.694  0.00  0.00     0.180 C 
HETATM    4  N   UNK N   1      34.432  17.262   7.811  0.00  0.00    -0.226 NA
HETATM    5  O   UNK N   1      35.002  17.099  10.424  0.00  0.00    -0.254 OA
HETATM    6  O   UNK N   1      32.978  15.572   9.700  0.00  0.00    -0.311 OA
HETATM    7  P   UNK N   1      34.552  16.180   9.258  0.00  0.00     0.347 P 
ENDROOT
BRANCH   7   8
HETATM    8  N   UNK N   1      35.807  14.891   9.102  0.00  0.00    -0.225 NA
BRANCH   8   9
HETATM    9  C   UNK N   1      36.688  15.025  10.255  0.00  0.00     0.115 C 
BRANCH   9  10
HETATM   10  C   UNK N   1      36.462  13.891  11.238  0.00  0.00     0.129 C 
HETATM   11 Cl   UNK N   1      35.891  14.560  12.783  0.00  0.00    -0.129 Cl
ENDBRANCH   9  10
ENDBRANCH   8   9
BRANCH   8  12
HETATM   12  C   UNK N   1      35.165  13.587   9.181  0.00  0.00     0.115 C 
BRANCH  12  13
HETATM   13  C   UNK N   1      35.080  12.991   7.788  0.00  0.00     0.129 C 
HETATM   14 Cl   UNK N   1      33.385  12.908   7.263  0.00  0.00    -0.129 Cl
ENDBRANCH  12  13
ENDBRANCH   8  12
ENDBRANCH   7   8
BRANCH   4  15
HETATM   15  C   UNK N   1      34.318  16.480   6.591  0.00  0.00     0.115 C 
BRANCH  15  16
HETATM   16  C   UNK N   1      33.659  17.329   5.519  0.00  0.00     0.129 C 
HETATM   17 Cl   UNK N   1      32.232  16.494   4.866  0.00  0.00    -0.129 Cl
ENDBRANCH  15  16
ENDBRANCH   4  15
TORSDOF 7
ENDMDL
MODEL 5
REMARK VINA RESULT:      -4.0      2.399      4.960
REMARK  7 active torsions:
REMARK  status: ('A' for Active; 'I' for Inactive)
REMARK    1  A    between atoms: C_6  and  C_2 
REMARK    2  A    between atoms: C_7  and  C_3 
REMARK    3  A    between atoms: C_8  and  C_4 
REMARK    4  A    between atoms: N_13  and  C_6 
REMARK    5  A    between atoms: N_14  and  C_7 
REMARK    6  A    between atoms: N_14  and  C_8 
REMARK    7  A    between atoms: P_17  and  N_14 
ROOT
HETATM    1  C   UNK N   1      33.023  16.565   3.297  0.00  0.00     0.042 C 
HETATM    2  C   UNK N   1      32.941  15.122   3.843  0.00  0.00     0.103 C 
HETATM    3  C   UNK N   1      32.596  17.613   4.327  0.00  0.00     0.180 C 
HETATM    4  N   UNK N   1      32.852  14.996   5.308  0.00  0.00    -0.226 NA
HETATM    5  O   UNK N   1      35.303  15.905   5.893  0.00  0.00    -0.254 OA
HETATM    6  O   UNK N   1      33.595  17.821   5.292  0.00  0.00    -0.311 OA
HETATM    7  P   UNK N   1      33.819  16.299   6.112  0.00  0.00     0.347 P 
ENDROOT
BRANCH   7   8
HETATM    8  N   UNK N   1      33.567  16.397   7.898  0.00  0.00    -0.225 NA
BRANCH   8   9
HETATM    9  C   UNK N   1      34.812  15.961   8.519  0.00  0.00     0.115 C 
BRANCH   9  10
HETATM   10  C   UNK N   1      34.549  15.373   9.892  0.00  0.00     0.129 C 
HETATM   11 Cl   UNK N   1      35.316  16.399  11.126  0.00  0.00    -0.129 Cl
ENDBRANCH   9  10
ENDBRANCH   8   9
BRANCH   8  12
HETATM   12  C   UNK N   1      33.343  17.784   8.273  0.00  0.00     0.115 C 
BRANCH  12  13
HETATM   13  C   UNK N   1      31.850  18.037   8.372  0.00  0.00     0.129 C 
HETATM   14 Cl   UNK N   1      31.023  16.578   8.959  0.00  0.00    -0.129 Cl
ENDBRANCH  12  13
ENDBRANCH   8  12
ENDBRANCH   7   8
BRANCH   4  15
HETATM   15  C   UNK N   1      31.453  15.077   5.698  0.00  0.00     0.115 C 
BRANCH  15  16
HETATM   16  C   UNK N   1      30.677  13.986   4.983  0.00  0.00     0.129 C 
HETATM   17 Cl   UNK N   1      28.933  14.316   5.071  0.00  0.00    -0.129 Cl
ENDBRANCH  15  16
ENDBRANCH   4  15
TORSDOF 7
ENDMDL
MODEL 6
REMARK VINA RESULT:      -3.9      2.803      3.887
REMARK  7 active torsions:
REMARK  status: ('A' for Active; 'I' for Inactive)
REMARK    1  A    between atoms: C_6  and  C_2 
REMARK    2  A    between atoms: C_7  and  C_3 
REMARK    3  A    between atoms: C_8  and  C_4 
REMARK    4  A    between atoms: N_13  and  C_6 
REMARK    5  A    between atoms: N_14  and  C_7 
REMARK    6  A    between atoms: N_14  and  C_8 
REMARK    7  A    between atoms: P_17  and  N_14 
ROOT
HETATM    1  C   UNK N   1      32.977  15.112   5.926  0.00  0.00     0.042 C 
HETATM    2  C   UNK N   1      33.356  16.608   5.848  0.00  0.00     0.103 C 
HETATM    3  C   UNK N   1      31.793  14.850   6.860  0.00  0.00     0.180 C 
HETATM    4  N   UNK N   1      32.338  17.553   6.338  0.00  0.00    -0.226 NA
HETATM    5  O   UNK N   1      30.503  17.120   4.435  0.00  0.00    -0.254 OA
HETATM    6  O   UNK N   1      30.578  15.223   6.265  0.00  0.00    -0.311 OA
HETATM    7  P   UNK N   1      30.676  16.938   5.965  0.00  0.00     0.347 P 
ENDROOT
BRANCH   7   8
HETATM    8  N   UNK N   1      29.355  17.886   6.751  0.00  0.00    -0.225 NA
BRANCH   8   9
HETATM    9  C   UNK N   1      28.286  18.005   5.769  0.00  0.00     0.115 C 
BRANCH   9  10
HETATM   10  C   UNK N   1      27.959  19.463   5.504  0.00  0.00     0.129 C 
HETATM   11 Cl   UNK N   1      27.361  19.636   3.839  0.00  0.00    -0.129 Cl
ENDBRANCH   9  10
ENDBRANCH   8   9
BRANCH   8  12
HETATM   12  C   UNK N   1      28.838  17.135   7.885  0.00  0.00     0.115 C 
BRANCH  12  13
HETATM   13  C   UNK N   1      28.330  18.106   8.934  0.00  0.00     0.129 C 
HETATM   14 Cl   UNK N   1      29.685  18.712   9.911  0.00  0.00    -0.129 Cl
ENDBRANCH  12  13
ENDBRANCH   8  12
ENDBRANCH   7   8
BRANCH   4  15
HETATM   15  C   UNK N   1      32.515  17.726   7.771  0.00  0.00     0.115 C 
BRANCH  15  16
HETATM   16  C   UNK N   1      33.940  18.172   8.043  0.00  0.00     0.129 C 
HETATM   17 Cl   UNK N   1      34.678  17.141   9.289  0.00  0.00    -0.129 Cl
ENDBRANCH  15  16
ENDBRANCH   4  15
TORSDOF 7
ENDMDL
MODEL 7
REMARK VINA RESULT:      -3.9      2.583      4.837
REMARK  7 active torsions:
REMARK  status: ('A' for Active; 'I' for Inactive)
REMARK    1  A    between atoms: C_6  and  C_2 
REMARK    2  A    between atoms: C_7  and  C_3 
REMARK    3  A    between atoms: C_8  and  C_4 
REMARK    4  A    between atoms: N_13  and  C_6 
REMARK    5  A    between atoms: N_14  and  C_7 
REMARK    6  A    between atoms: N_14  and  C_8 
REMARK    7  A    between atoms: P_17  and  N_14 
ROOT
HETATM    1  C   UNK N   1      32.848  16.294   3.517  0.00  0.00     0.042 C 
HETATM    2  C   UNK N   1      33.866  15.396   4.255  0.00  0.00     0.103 C 
HETATM    3  C   UNK N   1      31.624  16.627   4.373  0.00  0.00     0.180 C 
HETATM    4  N   UNK N   1      33.714  15.323   5.718  0.00  0.00    -0.226 NA
HETATM    5  O   UNK N   1      34.376  17.859   6.272  0.00  0.00    -0.254 OA
HETATM    6  O   UNK N   1      31.924  17.600   5.340  0.00  0.00    -0.311 OA
HETATM    7  P   UNK N   1      33.150  16.914   6.373  0.00  0.00     0.347 P 
ENDROOT
BRANCH   7   8
HETATM    8  N   UNK N   1      32.680  16.861   8.115  0.00  0.00    -0.225 NA
BRANCH   8   9
HETATM    9  C   UNK N   1      33.870  17.212   8.880  0.00  0.00     0.115 C 
BRANCH   9  10
HETATM   10  C   UNK N   1      34.353  16.028   9.696  0.00  0.00     0.129 C 
HETATM   11 Cl   UNK N   1      35.623  16.568  10.817  0.00  0.00    -0.129 Cl
ENDBRANCH   9  10
ENDBRANCH   8   9
BRANCH   8  12
HETATM   12  C   UNK N   1      31.670  17.877   8.369  0.00  0.00     0.115 C 
BRANCH  12  13
HETATM   13  C   UNK N   1      30.385  17.202   8.811  0.00  0.00     0.129 C 
HETATM   14 Cl   UNK N   1      29.261  17.075   7.441  0.00  0.00    -0.129 Cl
ENDBRANCH  12  13
ENDBRANCH   8  12
ENDBRANCH   7   8
BRANCH   4  15
HETATM   15  C   UNK N   1      32.763  14.269   6.036  0.00  0.00     0.115 C 
BRANCH  15  16
HETATM   16  C   UNK N   1      33.322  13.424   7.166  0.00  0.00     0.129 C 
HETATM   17 Cl   UNK N   1      35.096  13.534   7.195  0.00  0.00    -0.129 Cl
ENDBRANCH  15  16
ENDBRANCH   4  15
TORSDOF 7
ENDMDL
MODEL 8
REMARK VINA RESULT:      -3.9      7.368      9.845
REMARK  7 active torsions:
REMARK  status: ('A' for Active; 'I' for Inactive)
REMARK    1  A    between atoms: C_6  and  C_2 
REMARK    2  A    between atoms: C_7  and  C_3 
REMARK    3  A    between atoms: C_8  and  C_4 
REMARK    4  A    between atoms: N_13  and  C_6 
REMARK    5  A    between atoms: N_14  and  C_7 
REMARK    6  A    between atoms: N_14  and  C_8 
REMARK    7  A    between atoms: P_17  and  N_14 
ROOT
HETATM    1  C   UNK N   1      35.628  14.796  10.114  0.00  0.00     0.042 C 
HETATM    2  C   UNK N   1      37.062  14.326  10.448  0.00  0.00     0.103 C 
HETATM    3  C   UNK N   1      34.553  13.900  10.731  0.00  0.00     0.180 C 
HETATM    4  N   UNK N   1      37.180  13.377  11.568  0.00  0.00    -0.226 NA
HETATM    5  O   UNK N   1      36.439  15.047  13.528  0.00  0.00    -0.254 OA
HETATM    6  O   UNK N   1      34.412  14.139  12.108  0.00  0.00    -0.311 OA
HETATM    7  P   UNK N   1      35.945  13.747  12.840  0.00  0.00     0.347 P 
ENDROOT
BRANCH   7   8
HETATM    8  N   UNK N   1      35.829  12.490  14.131  0.00  0.00    -0.225 NA
BRANCH   8   9
HETATM    9  C   UNK N   1      35.966  13.186  15.404  0.00  0.00     0.115 C 
BRANCH   9  10
HETATM   10  C   UNK N   1      34.685  13.087  16.211  0.00  0.00     0.129 C 
HETATM   11 Cl   UNK N   1      35.082  13.110  17.945  0.00  0.00    -0.129 Cl
ENDBRANCH   9  10
ENDBRANCH   8   9
BRANCH   8  12
HETATM   12  C   UNK N   1      34.505  11.887  14.093  0.00  0.00     0.115 C 
BRANCH  12  13
HETATM   13  C   UNK N   1      34.631  10.439  13.656  0.00  0.00     0.129 C 
HETATM   14 Cl   UNK N   1      33.691  10.166  12.173  0.00  0.00    -0.129 Cl
ENDBRANCH  12  13
ENDBRANCH   8  12
ENDBRANCH   7   8
BRANCH   4  15
HETATM   15  C   UNK N   1      37.005  12.027  11.057  0.00  0.00     0.115 C 
BRANCH  15  16
HETATM   16  C   UNK N   1      38.218  11.652  10.226  0.00  0.00     0.129 C 
HETATM   17 Cl   UNK N   1      37.997  10.041   9.509  0.00  0.00    -0.129 Cl
ENDBRANCH  15  16
ENDBRANCH   4  15
TORSDOF 7
ENDMDL
MODEL 9
REMARK VINA RESULT:      -3.9      9.889     12.115
REMARK  7 active torsions:
REMARK  status: ('A' for Active; 'I' for Inactive)
REMARK    1  A    between atoms: C_6  and  C_2 
REMARK    2  A    between atoms: C_7  and  C_3 
REMARK    3  A    between atoms: C_8  and  C_4 
REMARK    4  A    between atoms: N_13  and  C_6 
REMARK    5  A    between atoms: N_14  and  C_7 
REMARK    6  A    between atoms: N_14  and  C_8 
REMARK    7  A    between atoms: P_17  and  N_14 
ROOT
HETATM    1  C   UNK N   1      20.279  16.736   1.669  0.00  0.00     0.042 C 
HETATM    2  C   UNK N   1      19.935  18.064   2.380  0.00  0.00     0.103 C 
HETATM    3  C   UNK N   1      21.353  15.931   2.405  0.00  0.00     0.180 C 
HETATM    4  N   UNK N   1      20.371  18.171   3.783  0.00  0.00    -0.226 NA
HETATM    5  O   UNK N   1      18.745  16.303   4.805  0.00  0.00    -0.254 OA
HETATM    6  O   UNK N   1      20.829  15.295   3.542  0.00  0.00    -0.311 OA
HETATM    7  P   UNK N   1      20.261  16.559   4.601  0.00  0.00     0.347 P 
ENDROOT
BRANCH   7   8
HETATM    8  N   UNK N   1      21.017  16.521   6.241  0.00  0.00    -0.225 NA
BRANCH   8   9
HETATM    9  C   UNK N   1      19.961  16.161   7.179  0.00  0.00     0.115 C 
BRANCH   9  10
HETATM   10  C   UNK N   1      20.459  16.252   8.609  0.00  0.00     0.129 C 
HETATM   11 Cl   UNK N   1      20.271  14.670   9.397  0.00  0.00    -0.129 Cl
ENDBRANCH   9  10
ENDBRANCH   8   9
BRANCH   8  12
HETATM   12  C   UNK N   1      22.024  15.472   6.279  0.00  0.00     0.115 C 
BRANCH  12  13
HETATM   13  C   UNK N   1      23.380  16.072   5.955  0.00  0.00     0.129 C 
HETATM   14 Cl   UNK N   1      24.667  15.118   6.723  0.00  0.00    -0.129 Cl
ENDBRANCH  12  13
ENDBRANCH   8  12
ENDBRANCH   7   8
BRANCH   4  15
HETATM   15  C   UNK N   1      21.736  18.671   3.810  0.00  0.00     0.115 C 
BRANCH  15  16
HETATM   16  C   UNK N   1      21.818  19.928   2.965  0.00  0.00     0.129 C 
HETATM   17 Cl   UNK N   1      23.492  20.525   2.914  0.00  0.00    -0.129 Cl
ENDBRANCH  15  16
ENDBRANCH   4  15
TORSDOF 7
ENDMDL
