REMARK  10 active torsions:
REMARK  status: ('A' for Active; 'I' for Inactive)
REMARK    1  A    between atoms: C_4  and  N_27 
REMARK    2  A    between atoms: C_6  and  C_7 
REMARK       I    between atoms: C_7  and  N_9 
REMARK    3  A    between atoms: N_9  and  C_10 
REMARK    4  A    between atoms: C_12  and  C_16 
REMARK       I    between atoms: C_16  and  N_18 
REMARK    5  A    between atoms: N_18  and  C_19 
REMARK    6  A    between atoms: C_19  and  C_20 
REMARK    7  A    between atoms: C_20  and  N_21 
REMARK       I    between atoms: N_27  and  C_28 
REMARK    8  A    between atoms: C_28  and  C_30 
REMARK    9  A    between atoms: C_33  and  C_36 
REMARK   10  A    between atoms: C_37  and  C_38 
ROOT
HETATM    1  C   UNK N   1      -6.917   4.662  -0.726  0.00  0.00     0.156 C 
HETATM    2  N   UNK N   1      -6.034   3.821   0.077  0.00  0.00    -0.354 N 
HETATM    3  C   UNK N   1      -5.055   4.308   0.849  0.00  0.00     0.120 A 
HETATM    4  C   UNK N   1      -4.329   3.242   1.341  0.00  0.00     0.053 A 
HETATM    5  C   UNK N   1      -4.842   2.082   0.793  0.00  0.00     0.066 A 
HETATM    6  C   UNK N   1      -5.898   2.486   0.015  0.00  0.00     0.105 A 
ENDROOT
BRANCH   4   7
HETATM    7  N   UNK N   1      -2.953   3.330   1.652  0.00  0.00    -0.322 N 
HETATM    8  C   UNK N   1      -2.090   3.354   0.601  0.00  0.00     0.256 C 
HETATM    9  O   UNK N   1      -2.270   4.187  -0.278  0.00  0.00    -0.267 OA
HETATM   10  H   UNK N   1      -2.635   3.373   2.583  0.00  0.00     0.169 HD
BRANCH   8  11
HETATM   11  C   UNK N   1      -1.610   2.039   0.170  0.00  0.00     0.032 A 
HETATM   12  C   UNK N   1      -0.498   1.449   0.766  0.00  0.00     0.018 A 
HETATM   13  C   UNK N   1      -0.212   0.103   0.520  0.00  0.00     0.012 A 
HETATM   14  C   UNK N   1      -1.058  -0.671  -0.289  0.00  0.00    -0.036 A 
HETATM   15  C   UNK N   1      -2.178  -0.078  -0.868  0.00  0.00     0.012 A 
HETATM   16  C   UNK N   1      -2.445   1.269  -0.653  0.00  0.00     0.018 A 
BRANCH  14  17
HETATM   17  C   UNK N   1      -0.900  -2.128  -0.460  0.00  0.00     0.012 C 
HETATM   18  C   UNK N   1       0.170  -2.932  -0.321  0.00  0.00     0.013 C 
BRANCH  18  19
HETATM   19  C   UNK N   1       1.602  -2.621  -0.135  0.00  0.00    -0.020 A 
HETATM   20  C   UNK N   1       2.119  -1.323  -0.155  0.00  0.00     0.026 A 
HETATM   21  C   UNK N   1       3.493  -1.117  -0.062  0.00  0.00    -0.009 A 
HETATM   22  C   UNK N   1       4.024   0.175  -0.076  0.00  0.00     0.014 A 
HETATM   23  C   UNK N   1       4.351  -2.232   0.032  0.00  0.00     0.042 A 
HETATM   24  C   UNK N   1       5.408   0.359  -0.003  0.00  0.00     0.001 A 
HETATM   25  C   UNK N   1       6.261  -0.748   0.080  0.00  0.00     0.002 A 
HETATM   26  C   UNK N   1       5.733  -2.043   0.100  0.00  0.00     0.030 A 
HETATM   27  N   UNK N   1       3.831  -3.487   0.048  0.00  0.00    -0.364 N 
HETATM   28  C   UNK N   1       2.489  -3.698  -0.034  0.00  0.00     0.099 A 
ATOM     29  HN  UNK N   1       4.458  -4.288   0.124  1.00  0.00     0.165 HD
ENDBRANCH  18  19
ENDBRANCH  14  17
ENDBRANCH   8  11
ENDBRANCH   4   7
BRANCH   6  30
HETATM   30  C   UNK N   1      -6.596   1.616  -0.932  0.00  0.00     0.273 C 
HETATM   31  O   UNK N   1      -6.147   0.528  -1.237  0.00  0.00    -0.266 OA
HETATM   32  N   UNK N   1      -7.699   2.098  -1.552  0.00  0.00    -0.320 N 
HETATM   33  H   UNK N   1      -7.669   2.364  -2.500  0.00  0.00     0.169 HD
BRANCH  32  34
HETATM   34  C   UNK N   1      -8.886   2.208  -0.812  0.00  0.00     0.053 A 
HETATM   35  C   UNK N   1      -9.297   1.165  -0.055  0.00  0.00     0.066 A 
HETATM   36  C   UNK N   1     -10.638   1.306   0.099  0.00  0.00     0.104 A 
HETATM   37  N   UNK N   1     -11.063   2.448  -0.503  0.00  0.00    -0.354 N 
HETATM   38  C   UNK N   1      -9.986   2.990  -1.115  0.00  0.00     0.120 A 
HETATM   39  C   UNK N   1     -12.424   2.884  -0.753  0.00  0.00     0.156 C 
BRANCH  36  40
HETATM   40  C   UNK N   1     -11.390   0.127   0.574  0.00  0.00     0.268 C 
HETATM   41  O   UNK N   1     -10.888  -0.962   0.336  0.00  0.00    -0.266 OA
HETATM   42  N   UNK N   1     -12.557   0.133   1.239  0.00  0.00    -0.354 N 
HETATM   43  H   UNK N   1     -12.883  -0.742   1.553  0.00  0.00     0.162 HD
BRANCH  42  44
HETATM   44  C   UNK N   1     -13.380   1.255   1.544  0.00  0.00     0.153 C 
BRANCH  44  45
HETATM   45  C   UNK N   1     -14.811   0.822   1.257  0.00  0.00     0.292 C 
BRANCH  45  46
HETATM   46  N   UNK N   1     -14.978   0.437  -0.151  0.00  0.00     0.094 N 
HETATM   47  C   UNK N   1     -14.487  -0.931  -0.420  0.00  0.00     0.298 C 
HETATM   48  C   UNK N   1     -15.420  -1.987   0.178  0.00  0.00     0.198 C 
HETATM   49  O   UNK N   1     -16.696  -1.838  -0.387  0.00  0.00    -0.388 OA
HETATM   50  C   UNK N   1     -17.200  -0.620   0.099  0.00  0.00     0.198 C 
HETATM   51  C   UNK N   1     -16.397   0.544  -0.502  0.00  0.00     0.298 C 
ENDBRANCH  45  46
ENDBRANCH  44  45
ENDBRANCH  42  44
ENDBRANCH  36  40
ENDBRANCH  32  34
ENDBRANCH   6  30
TORSDOF 10
