MODEL 1
REMARK VINA RESULT:      -7.1      0.000      0.000
REMARK  4 active torsions:
REMARK  status: ('A' for Active; 'I' for Inactive)
REMARK    1  A    between atoms: C_11  and  N_14 
REMARK    2  A    between atoms: N_14  and  S_15 
REMARK    3  A    between atoms: S_15  and  C_18 
REMARK    4  A    between atoms: C_21  and  N_24 
ROOT
HETATM    1  N   UNK N   1      22.708  16.503   5.580  0.00  0.00    -0.265 N 
HETATM    2  H   UNK N   1      23.443  16.544   4.926  0.00  0.00     0.180 HD
ENDROOT
BRANCH   1   3
HETATM    3  C   UNK N   1      22.772  15.544   6.617  0.00  0.00     0.131 A 
HETATM    4  C   UNK N   1      23.952  14.822   6.817  0.00  0.00     0.137 A 
HETATM    5  N   UNK N   1      24.035  13.936   7.846  0.00  0.00    -0.359 N 
HETATM    6  C   UNK N   1      22.975  13.723   8.670  0.00  0.00     0.081 A 
ATOM      7  HN  UNK N   1      24.904  13.426   8.001  1.00  0.00     0.165 HD
HETATM    8  C   UNK N   1      21.776  14.433   8.451  0.00  0.00     0.062 A 
HETATM    9  C   UNK N   1      23.059  12.808   9.733  0.00  0.00     0.063 A 
HETATM   10  C   UNK N   1      20.670  14.212   9.272  0.00  0.00     0.032 A 
HETATM   11  N   UNK N   1      21.709  15.337   7.439  0.00  0.00    -0.339 N 
HETATM   12  C   UNK N   1      20.752  13.287  10.318  0.00  0.00     0.004 A 
HETATM   13  C   UNK N   1      21.945  12.594  10.551  0.00  0.00     0.026 A 
ATOM     14  HN  UNK N   1      20.851  15.869   7.295  1.00  0.00     0.167 HD
HETATM   15 Cl   UNK N   1      24.545  11.932  10.062  0.00  0.00    -0.082 Cl
ENDBRANCH   1   3
BRANCH   1  16
HETATM   16  S   UNK N   1      21.365  17.623   5.415  0.00  0.00     0.264 S 
HETATM   17  O   UNK N   1      20.127  16.742   5.638  0.00  0.00    -0.200 OA
HETATM   18  O   UNK N   1      21.373  18.411   6.734  0.00  0.00    -0.200 OA
BRANCH  16  19
HETATM   19  C   UNK N   1      21.095  18.707   4.011  0.00  0.00     0.080 A 
HETATM   20  C   UNK N   1      19.915  18.582   3.269  0.00  0.00     0.027 A 
HETATM   21  C   UNK N   1      19.737  19.324   2.098  0.00  0.00     0.030 A 
HETATM   22  C   UNK N   1      20.746  20.185   1.659  0.00  0.00     0.025 A 
HETATM   23  C   UNK N   1      21.925  20.316   2.399  0.00  0.00     0.030 A 
HETATM   24  C   UNK N   1      22.103  19.572   3.572  0.00  0.00     0.027 A 
BRANCH  22  25
HETATM   25  N   UNK N   1      20.579  20.910   0.463  0.00  0.00    -0.399 N 
HETATM   26  H   UNK N   1      19.748  20.821  -0.058  0.00  0.00     0.156 HD
HETATM   27  H   UNK N   1      21.295  21.507   0.146  0.00  0.00     0.156 HD
ENDBRANCH  22  25
ENDBRANCH  16  19
ENDBRANCH   1  16
TORSDOF 4
ENDMDL
MODEL 2
REMARK VINA RESULT:      -7.0     13.122     16.485
REMARK  4 active torsions:
REMARK  status: ('A' for Active; 'I' for Inactive)
REMARK    1  A    between atoms: C_11  and  N_14 
REMARK    2  A    between atoms: N_14  and  S_15 
REMARK    3  A    between atoms: S_15  and  C_18 
REMARK    4  A    between atoms: C_21  and  N_24 
ROOT
HETATM    1  N   UNK N   1      36.731  14.502  11.891  0.00  0.00    -0.265 N 
HETATM    2  H   UNK N   1      37.655  14.840  11.853  0.00  0.00     0.180 HD
ENDROOT
BRANCH   1   3
HETATM    3  C   UNK N   1      35.772  15.038  11.002  0.00  0.00     0.131 A 
HETATM    4  C   UNK N   1      35.582  16.422  10.944  0.00  0.00     0.137 A 
HETATM    5  N   UNK N   1      34.698  16.947  10.054  0.00  0.00    -0.359 N 
HETATM    6  C   UNK N   1      33.974  16.140   9.232  0.00  0.00     0.081 A 
ATOM      7  HN  UNK N   1      34.577  17.957  10.001  1.00  0.00     0.165 HD
HETATM    8  C   UNK N   1      34.147  14.741   9.310  0.00  0.00     0.062 A 
HETATM    9  C   UNK N   1      33.061  16.680   8.312  0.00  0.00     0.063 A 
HETATM   10  C   UNK N   1      33.398  13.897   8.491  0.00  0.00     0.032 A 
HETATM   11  N   UNK N   1      35.053  14.227  10.182  0.00  0.00    -0.339 N 
HETATM   12  C   UNK N   1      32.476  14.437   7.589  0.00  0.00     0.004 A 
HETATM   13  C   UNK N   1      32.315  15.824   7.495  0.00  0.00     0.026 A 
ATOM     14  HN  UNK N   1      35.197  13.218  10.221  1.00  0.00     0.167 HD
HETATM   15 Cl   UNK N   1      32.843  18.415   8.159  0.00  0.00    -0.082 Cl
ENDBRANCH   1   3
BRANCH   1  16
HETATM   16  S   UNK N   1      36.333  13.255  13.063  0.00  0.00     0.264 S 
HETATM   17  O   UNK N   1      35.072  12.599  12.482  0.00  0.00    -0.200 OA
HETATM   18  O   UNK N   1      37.361  12.147  12.790  0.00  0.00    -0.200 OA
BRANCH  16  19
HETATM   19  C   UNK N   1      36.122  13.527  14.824  0.00  0.00     0.080 A 
HETATM   20  C   UNK N   1      35.080  12.877  15.495  0.00  0.00     0.027 A 
HETATM   21  C   UNK N   1      34.814  13.169  16.835  0.00  0.00     0.030 A 
HETATM   22  C   UNK N   1      35.584  14.123  17.506  0.00  0.00     0.025 A 
HETATM   23  C   UNK N   1      36.628  14.772  16.841  0.00  0.00     0.030 A 
HETATM   24  C   UNK N   1      36.893  14.480  15.498  0.00  0.00     0.027 A 
BRANCH  22  25
HETATM   25  N   UNK N   1      35.297  14.439  18.849  0.00  0.00    -0.399 N 
HETATM   26  H   UNK N   1      35.461  13.777  19.559  0.00  0.00     0.156 HD
HETATM   27  H   UNK N   1      34.933  15.324  19.078  0.00  0.00     0.156 HD
ENDBRANCH  22  25
ENDBRANCH  16  19
ENDBRANCH   1  16
TORSDOF 4
ENDMDL
MODEL 3
REMARK VINA RESULT:      -7.0     14.748     15.383
REMARK  4 active torsions:
REMARK  status: ('A' for Active; 'I' for Inactive)
REMARK    1  A    between atoms: C_11  and  N_14 
REMARK    2  A    between atoms: N_14  and  S_15 
REMARK    3  A    between atoms: S_15  and  C_18 
REMARK    4  A    between atoms: C_21  and  N_24 
ROOT
HETATM    1  N   UNK N   1      27.413  23.118  -7.444  0.00  0.00    -0.265 N 
HETATM    2  H   UNK N   1      27.581  23.119  -8.414  0.00  0.00     0.180 HD
ENDROOT
BRANCH   1   3
HETATM    3  C   UNK N   1      28.399  22.584  -6.583  0.00  0.00     0.131 A 
HETATM    4  C   UNK N   1      29.109  21.444  -6.969  0.00  0.00     0.137 A 
HETATM    5  N   UNK N   1      30.094  20.957  -6.168  0.00  0.00    -0.359 N 
HETATM    6  C   UNK N   1      30.381  21.550  -4.978  0.00  0.00     0.081 A 
ATOM      7  HN  UNK N   1      30.623  20.137  -6.462  1.00  0.00     0.165 HD
HETATM    8  C   UNK N   1      29.645  22.685  -4.576  0.00  0.00     0.062 A 
HETATM    9  C   UNK N   1      31.397  21.049  -4.148  0.00  0.00     0.063 A 
HETATM   10  C   UNK N   1      29.910  23.294  -3.350  0.00  0.00     0.032 A 
HETATM   11  N   UNK N   1      28.682  23.183  -5.396  0.00  0.00    -0.339 N 
HETATM   12  C   UNK N   1      30.911  22.781  -2.518  0.00  0.00     0.004 A 
HETATM   13  C   UNK N   1      31.656  21.667  -2.921  0.00  0.00     0.026 A 
ATOM     14  HN  UNK N   1      28.167  24.018  -5.118  1.00  0.00     0.167 HD
HETATM   15 Cl   UNK N   1      32.360  19.661  -4.629  0.00  0.00    -0.082 Cl
ENDBRANCH   1   3
BRANCH   1  16
HETATM   16  S   UNK N   1      25.898  23.779  -6.847  0.00  0.00     0.264 S 
HETATM   17  O   UNK N   1      25.087  24.040  -8.124  0.00  0.00    -0.200 OA
HETATM   18  O   UNK N   1      25.149  22.555  -6.299  0.00  0.00    -0.200 OA
BRANCH  16  19
HETATM   19  C   UNK N   1      25.755  25.181  -5.737  0.00  0.00     0.080 A 
HETATM   20  C   UNK N   1      25.267  26.397  -6.232  0.00  0.00     0.027 A 
HETATM   21  C   UNK N   1      25.265  27.537  -5.424  0.00  0.00     0.030 A 
HETATM   22  C   UNK N   1      25.762  27.467  -4.120  0.00  0.00     0.025 A 
HETATM   23  C   UNK N   1      26.247  26.255  -3.620  0.00  0.00     0.030 A 
HETATM   24  C   UNK N   1      26.250  25.113  -4.431  0.00  0.00     0.027 A 
BRANCH  22  25
HETATM   25  N   UNK N   1      25.788  28.624  -3.316  0.00  0.00    -0.399 N 
HETATM   26  H   UNK N   1      25.428  28.596  -2.399  0.00  0.00     0.156 HD
HETATM   27  H   UNK N   1      26.166  29.460  -3.669  0.00  0.00     0.156 HD
ENDBRANCH  22  25
ENDBRANCH  16  19
ENDBRANCH   1  16
TORSDOF 4
ENDMDL
MODEL 4
REMARK VINA RESULT:      -6.9     10.756     12.497
REMARK  4 active torsions:
REMARK  status: ('A' for Active; 'I' for Inactive)
REMARK    1  A    between atoms: C_11  and  N_14 
REMARK    2  A    between atoms: N_14  and  S_15 
REMARK    3  A    between atoms: S_15  and  C_18 
REMARK    4  A    between atoms: C_21  and  N_24 
ROOT
HETATM    1  N   UNK N   1      34.606  15.602   7.911  0.00  0.00    -0.265 N 
HETATM    2  H   UNK N   1      35.022  15.236   7.098  0.00  0.00     0.180 HD
ENDROOT
BRANCH   1   3
HETATM    3  C   UNK N   1      34.679  14.856   9.110  0.00  0.00     0.131 A 
HETATM    4  C   UNK N   1      34.077  13.596   9.176  0.00  0.00     0.137 A 
HETATM    5  N   UNK N   1      34.189  12.853  10.309  0.00  0.00    -0.359 N 
HETATM    6  C   UNK N   1      34.859  13.329  11.393  0.00  0.00     0.081 A 
ATOM      7  HN  UNK N   1      33.766  11.927  10.347  1.00  0.00     0.165 HD
HETATM    8  C   UNK N   1      35.443  14.613  11.334  0.00  0.00     0.062 A 
HETATM    9  C   UNK N   1      34.975  12.563  12.564  0.00  0.00     0.063 A 
HETATM   10  C   UNK N   1      36.115  15.128  12.443  0.00  0.00     0.032 A 
HETATM   11  N   UNK N   1      35.352  15.338  10.189  0.00  0.00    -0.339 N 
HETATM   12  C   UNK N   1      36.213  14.369  13.613  0.00  0.00     0.004 A 
HETATM   13  C   UNK N   1      35.652  13.089  13.670  0.00  0.00     0.026 A 
ATOM     14  HN  UNK N   1      35.795  16.255  10.137  1.00  0.00     0.167 HD
HETATM   15 Cl   UNK N   1      34.294  10.948  12.665  0.00  0.00    -0.082 Cl
ENDBRANCH   1   3
BRANCH   1  16
HETATM   16  S   UNK N   1      33.797  17.160   7.820  0.00  0.00     0.264 S 
HETATM   17  O   UNK N   1      34.382  17.942   9.005  0.00  0.00    -0.200 OA
HETATM   18  O   UNK N   1      34.498  17.874   6.655  0.00  0.00    -0.200 OA
BRANCH  16  19
HETATM   19  C   UNK N   1      32.020  17.394   7.753  0.00  0.00     0.080 A 
HETATM   20  C   UNK N   1      31.398  18.184   8.727  0.00  0.00     0.027 A 
HETATM   21  C   UNK N   1      30.005  18.279   8.774  0.00  0.00     0.030 A 
HETATM   22  C   UNK N   1      29.227  17.573   7.853  0.00  0.00     0.025 A 
HETATM   23  C   UNK N   1      29.844  16.784   6.876  0.00  0.00     0.030 A 
HETATM   24  C   UNK N   1      31.240  16.689   6.831  0.00  0.00     0.027 A 
BRANCH  22  25
HETATM   25  N   UNK N   1      27.822  17.644   7.919  0.00  0.00    -0.399 N 
HETATM   26  H   UNK N   1      27.356  18.469   7.650  0.00  0.00     0.156 HD
HETATM   27  H   UNK N   1      27.305  16.868   8.234  0.00  0.00     0.156 HD
ENDBRANCH  22  25
ENDBRANCH  16  19
ENDBRANCH   1  16
TORSDOF 4
ENDMDL
MODEL 5
REMARK VINA RESULT:      -6.9      1.432      2.372
REMARK  4 active torsions:
REMARK  status: ('A' for Active; 'I' for Inactive)
REMARK    1  A    between atoms: C_11  and  N_14 
REMARK    2  A    between atoms: N_14  and  S_15 
REMARK    3  A    between atoms: S_15  and  C_18 
REMARK    4  A    between atoms: C_21  and  N_24 
ROOT
HETATM    1  N   UNK N   1      20.502  16.251   6.284  0.00  0.00    -0.265 N 
HETATM    2  H   UNK N   1      19.611  16.089   5.899  0.00  0.00     0.180 HD
ENDROOT
BRANCH   1   3
HETATM    3  C   UNK N   1      20.983  15.372   7.281  0.00  0.00     0.131 A 
HETATM    4  C   UNK N   1      20.185  15.088   8.394  0.00  0.00     0.137 A 
HETATM    5  N   UNK N   1      20.621  14.203   9.330  0.00  0.00    -0.359 N 
HETATM    6  C   UNK N   1      21.838  13.608   9.213  0.00  0.00     0.081 A 
ATOM      7  HN  UNK N   1      20.029  13.984  10.129  1.00  0.00     0.165 HD
HETATM    8  C   UNK N   1      22.654  13.916   8.103  0.00  0.00     0.062 A 
HETATM    9  C   UNK N   1      22.291  12.695  10.179  0.00  0.00     0.063 A 
HETATM   10  C   UNK N   1      23.915  13.333   7.977  0.00  0.00     0.032 A 
HETATM   11  N   UNK N   1      22.200  14.779   7.158  0.00  0.00    -0.339 N 
HETATM   12  C   UNK N   1      24.369  12.437   8.951  0.00  0.00     0.004 A 
HETATM   13  C   UNK N   1      23.556  12.114  10.042  0.00  0.00     0.026 A 
ATOM     14  HN  UNK N   1      22.778  14.983   6.343  1.00  0.00     0.167 HD
HETATM   15 Cl   UNK N   1      21.291  12.256  11.554  0.00  0.00    -0.082 Cl
ENDBRANCH   1   3
BRANCH   1  16
HETATM   16  S   UNK N   1      21.437  17.623   5.708  0.00  0.00     0.264 S 
HETATM   17  O   UNK N   1      21.328  18.642   6.851  0.00  0.00    -0.200 OA
HETATM   18  O   UNK N   1      22.896  17.178   5.883  0.00  0.00    -0.200 OA
BRANCH  16  19
HETATM   19  C   UNK N   1      21.192  18.446   4.133  0.00  0.00     0.080 A 
HETATM   20  C   UNK N   1      22.093  19.441   3.735  0.00  0.00     0.027 A 
HETATM   21  C   UNK N   1      21.855  20.186   2.577  0.00  0.00     0.030 A 
HETATM   22  C   UNK N   1      20.707  19.944   1.817  0.00  0.00     0.025 A 
HETATM   23  C   UNK N   1      19.807  18.948   2.208  0.00  0.00     0.030 A 
HETATM   24  C   UNK N   1      20.045  18.204   3.370  0.00  0.00     0.027 A 
BRANCH  22  25
HETATM   25  N   UNK N   1      20.451  20.714   0.666  0.00  0.00    -0.399 N 
HETATM   26  H   UNK N   1      21.197  21.017   0.098  0.00  0.00     0.156 HD
HETATM   27  H   UNK N   1      19.526  20.949   0.427  0.00  0.00     0.156 HD
ENDBRANCH  22  25
ENDBRANCH  16  19
ENDBRANCH   1  16
TORSDOF 4
ENDMDL
MODEL 6
REMARK VINA RESULT:      -6.8     11.003     12.678
REMARK  4 active torsions:
REMARK  status: ('A' for Active; 'I' for Inactive)
REMARK    1  A    between atoms: C_11  and  N_14 
REMARK    2  A    between atoms: N_14  and  S_15 
REMARK    3  A    between atoms: S_15  and  C_18 
REMARK    4  A    between atoms: C_21  and  N_24 
ROOT
HETATM    1  N   UNK N   1      34.256  15.778   6.535  0.00  0.00    -0.265 N 
HETATM    2  H   UNK N   1      34.248  15.304   5.672  0.00  0.00     0.180 HD
ENDROOT
BRANCH   1   3
HETATM    3  C   UNK N   1      34.943  15.196   7.625  0.00  0.00     0.131 A 
HETATM    4  C   UNK N   1      36.085  14.425   7.388  0.00  0.00     0.137 A 
HETATM    5  N   UNK N   1      36.779  13.907   8.437  0.00  0.00    -0.359 N 
HETATM    6  C   UNK N   1      36.362  14.105   9.716  0.00  0.00     0.081 A 
ATOM      7  HN  UNK N   1      37.622  13.361   8.262  1.00  0.00     0.165 HD
HETATM    8  C   UNK N   1      35.194  14.861   9.952  0.00  0.00     0.062 A 
HETATM    9  C   UNK N   1      37.077  13.569  10.800  0.00  0.00     0.063 A 
HETATM   10  C   UNK N   1      34.738  15.057  11.255  0.00  0.00     0.032 A 
HETATM   11  N   UNK N   1      34.522  15.400   8.901  0.00  0.00    -0.339 N 
HETATM   12  C   UNK N   1      35.442  14.507  12.331  0.00  0.00     0.004 A 
HETATM   13  C   UNK N   1      36.612  13.773  12.103  0.00  0.00     0.026 A 
ATOM     14  HN  UNK N   1      33.692  15.967   9.072  1.00  0.00     0.167 HD
HETATM   15 Cl   UNK N   1      38.555  12.655  10.550  0.00  0.00    -0.082 Cl
ENDBRANCH   1   3
BRANCH   1  16
HETATM   16  S   UNK N   1      33.416  17.316   6.665  0.00  0.00     0.264 S 
HETATM   17  O   UNK N   1      34.435  18.229   7.362  0.00  0.00    -0.200 OA
HETATM   18  O   UNK N   1      33.470  17.890   5.242  0.00  0.00    -0.200 OA
BRANCH  16  19
HETATM   19  C   UNK N   1      31.794  17.543   7.397  0.00  0.00     0.080 A 
HETATM   20  C   UNK N   1      30.658  17.160   6.674  0.00  0.00     0.027 A 
HETATM   21  C   UNK N   1      29.381  17.443   7.165  0.00  0.00     0.030 A 
HETATM   22  C   UNK N   1      29.236  18.121   8.378  0.00  0.00     0.025 A 
HETATM   23  C   UNK N   1      30.368  18.502   9.106  0.00  0.00     0.030 A 
HETATM   24  C   UNK N   1      31.647  18.220   8.612  0.00  0.00     0.027 A 
BRANCH  22  25
HETATM   25  N   UNK N   1      27.949  18.432   8.860  0.00  0.00    -0.399 N 
HETATM   26  H   UNK N   1      27.189  18.491   8.236  0.00  0.00     0.156 HD
HETATM   27  H   UNK N   1      27.809  18.591   9.821  0.00  0.00     0.156 HD
ENDBRANCH  22  25
ENDBRANCH  16  19
ENDBRANCH   1  16
TORSDOF 4
ENDMDL
MODEL 7
REMARK VINA RESULT:      -6.8      8.429     10.729
REMARK  4 active torsions:
REMARK  status: ('A' for Active; 'I' for Inactive)
REMARK    1  A    between atoms: C_11  and  N_14 
REMARK    2  A    between atoms: N_14  and  S_15 
REMARK    3  A    between atoms: S_15  and  C_18 
REMARK    4  A    between atoms: C_21  and  N_24 
ROOT
HETATM    1  N   UNK N   1      30.341  16.744   8.318  0.00  0.00    -0.265 N 
HETATM    2  H   UNK N   1      30.034  16.019   8.908  0.00  0.00     0.180 HD
ENDROOT
BRANCH   1   3
HETATM    3  C   UNK N   1      29.404  17.703   7.871  0.00  0.00     0.131 A 
HETATM    4  C   UNK N   1      28.665  18.434   8.806  0.00  0.00     0.137 A 
HETATM    5  N   UNK N   1      27.799  19.393   8.383  0.00  0.00    -0.359 N 
HETATM    6  C   UNK N   1      27.622  19.636   7.057  0.00  0.00     0.081 A 
ATOM      7  HN  UNK N   1      27.276  19.937   9.068  1.00  0.00     0.165 HD
HETATM    8  C   UNK N   1      28.349  18.880   6.113  0.00  0.00     0.062 A 
HETATM    9  C   UNK N   1      26.728  20.626   6.617  0.00  0.00     0.063 A 
HETATM   10  C   UNK N   1      28.164  19.099   4.747  0.00  0.00     0.032 A 
HETATM   11  N   UNK N   1      29.233  17.943   6.544  0.00  0.00    -0.339 N 
HETATM   12  C   UNK N   1      27.260  20.073   4.314  0.00  0.00     0.004 A 
HETATM   13  C   UNK N   1      26.552  20.839   5.246  0.00  0.00     0.026 A 
ATOM     14  HN  UNK N   1      29.777  17.412   5.864  1.00  0.00     0.167 HD
HETATM   15 Cl   UNK N   1      25.833  21.614   7.760  0.00  0.00    -0.082 Cl
ENDBRANCH   1   3
BRANCH   1  16
HETATM   16  S   UNK N   1      32.037  16.800   7.859  0.00  0.00     0.264 S 
HETATM   17  O   UNK N   1      32.491  18.194   8.316  0.00  0.00    -0.200 OA
HETATM   18  O   UNK N   1      32.736  15.930   8.913  0.00  0.00    -0.200 OA
BRANCH  16  19
HETATM   19  C   UNK N   1      32.668  16.463   6.213  0.00  0.00     0.080 A 
HETATM   20  C   UNK N   1      32.478  17.412   5.202  0.00  0.00     0.027 A 
HETATM   21  C   UNK N   1      32.845  17.122   3.885  0.00  0.00     0.030 A 
HETATM   22  C   UNK N   1      33.393  15.875   3.574  0.00  0.00     0.025 A 
HETATM   23  C   UNK N   1      33.588  14.925   4.582  0.00  0.00     0.030 A 
HETATM   24  C   UNK N   1      33.219  15.216   5.900  0.00  0.00     0.027 A 
BRANCH  22  25
HETATM   25  N   UNK N   1      33.736  15.570   2.241  0.00  0.00    -0.399 N 
HETATM   26  H   UNK N   1      34.179  14.717   2.028  0.00  0.00     0.156 HD
HETATM   27  H   UNK N   1      33.531  16.211   1.523  0.00  0.00     0.156 HD
ENDBRANCH  22  25
ENDBRANCH  16  19
ENDBRANCH   1  16
TORSDOF 4
ENDMDL
MODEL 8
REMARK VINA RESULT:      -6.8     13.141     14.868
REMARK  4 active torsions:
REMARK  status: ('A' for Active; 'I' for Inactive)
REMARK    1  A    between atoms: C_11  and  N_14 
REMARK    2  A    between atoms: N_14  and  S_15 
REMARK    3  A    between atoms: S_15  and  C_18 
REMARK    4  A    between atoms: C_21  and  N_24 
ROOT
HETATM    1  N   UNK N   1      36.703  14.847  10.654  0.00  0.00    -0.265 N 
HETATM    2  H   UNK N   1      37.492  14.971  10.078  0.00  0.00     0.180 HD
ENDROOT
BRANCH   1   3
HETATM    3  C   UNK N   1      36.776  13.922  11.720  0.00  0.00     0.131 A 
HETATM    4  C   UNK N   1      37.631  12.821  11.621  0.00  0.00     0.137 A 
HETATM    5  N   UNK N   1      37.743  11.957  12.665  0.00  0.00    -0.359 N 
HETATM    6  C   UNK N   1      37.015  12.135  13.799  0.00  0.00     0.081 A 
ATOM      7  HN  UNK N   1      38.382  11.165  12.597  1.00  0.00     0.165 HD
HETATM    8  C   UNK N   1      36.132  13.233  13.888  0.00  0.00     0.062 A 
HETATM    9  C   UNK N   1      37.129  11.243  14.879  0.00  0.00     0.063 A 
HETATM   10  C   UNK N   1      35.360  13.419  15.035  0.00  0.00     0.032 A 
HETATM   11  N   UNK N   1      36.046  14.107  12.852  0.00  0.00    -0.339 N 
HETATM   12  C   UNK N   1      35.464  12.519  16.100  0.00  0.00     0.004 A 
HETATM   13  C   UNK N   1      36.351  11.441  16.024  0.00  0.00     0.026 A 
ATOM     14  HN  UNK N   1      35.427  14.915  12.925  1.00  0.00     0.167 HD
HETATM   15 Cl   UNK N   1      38.243   9.887  14.822  0.00  0.00    -0.082 Cl
ENDBRANCH   1   3
BRANCH   1  16
HETATM   16  S   UNK N   1      35.254  15.783  10.317  0.00  0.00     0.264 S 
HETATM   17  O   UNK N   1      34.128  14.944  10.938  0.00  0.00    -0.200 OA
HETATM   18  O   UNK N   1      35.316  16.939  11.327  0.00  0.00    -0.200 OA
BRANCH  16  19
HETATM   19  C   UNK N   1      34.758  16.363   8.693  0.00  0.00     0.080 A 
HETATM   20  C   UNK N   1      34.085  17.585   8.581  0.00  0.00     0.027 A 
HETATM   21  C   UNK N   1      33.575  17.998   7.347  0.00  0.00     0.030 A 
HETATM   22  C   UNK N   1      33.727  17.183   6.223  0.00  0.00     0.025 A 
HETATM   23  C   UNK N   1      34.403  15.963   6.329  0.00  0.00     0.030 A 
HETATM   24  C   UNK N   1      34.911  15.549   7.566  0.00  0.00     0.027 A 
BRANCH  22  25
HETATM   25  N   UNK N   1      33.188  17.585   4.985  0.00  0.00    -0.399 N 
HETATM   26  H   UNK N   1      33.035  16.922   4.273  0.00  0.00     0.156 HD
HETATM   27  H   UNK N   1      32.963  18.531   4.831  0.00  0.00     0.156 HD
ENDBRANCH  22  25
ENDBRANCH  16  19
ENDBRANCH   1  16
TORSDOF 4
ENDMDL
MODEL 9
REMARK VINA RESULT:      -6.7      8.647     11.381
REMARK  4 active torsions:
REMARK  status: ('A' for Active; 'I' for Inactive)
REMARK    1  A    between atoms: C_11  and  N_14 
REMARK    2  A    between atoms: N_14  and  S_15 
REMARK    3  A    between atoms: S_15  and  C_18 
REMARK    4  A    between atoms: C_21  and  N_24 
ROOT
HETATM    1  N   UNK N   1      30.285  16.060   5.365  0.00  0.00    -0.265 N 
HETATM    2  H   UNK N   1      29.923  15.155   5.506  0.00  0.00     0.180 HD
ENDROOT
BRANCH   1   3
HETATM    3  C   UNK N   1      29.383  17.129   5.160  0.00  0.00     0.131 A 
HETATM    4  C   UNK N   1      28.833  17.334   3.891  0.00  0.00     0.137 A 
HETATM    5  N   UNK N   1      27.926  18.329   3.700  0.00  0.00    -0.359 N 
HETATM    6  C   UNK N   1      27.564  19.148   4.724  0.00  0.00     0.081 A 
ATOM      7  HN  UNK N   1      27.512  18.463   2.779  1.00  0.00     0.165 HD
HETATM    8  C   UNK N   1      28.139  18.957   5.998  0.00  0.00     0.062 A 
HETATM    9  C   UNK N   1      26.627  20.176   4.529  0.00  0.00     0.063 A 
HETATM   10  C   UNK N   1      27.797  19.800   7.055  0.00  0.00     0.032 A 
HETATM   11  N   UNK N   1      29.024  17.943   6.188  0.00  0.00    -0.339 N 
HETATM   12  C   UNK N   1      26.878  20.834   6.852  0.00  0.00     0.004 A 
HETATM   13  C   UNK N   1      26.290  21.015   5.596  0.00  0.00     0.026 A 
ATOM     14  HN  UNK N   1      29.422  17.788   7.114  1.00  0.00     0.167 HD
HETATM   15 Cl   UNK N   1      25.860  20.423   2.969  0.00  0.00    -0.082 Cl
ENDBRANCH   1   3
BRANCH   1  16
HETATM   16  S   UNK N   1      32.027  16.287   5.376  0.00  0.00     0.264 S 
HETATM   17  O   UNK N   1      32.554  15.089   4.573  0.00  0.00    -0.200 OA
HETATM   18  O   UNK N   1      32.261  17.414   4.360  0.00  0.00    -0.200 OA
BRANCH  16  19
HETATM   19  C   UNK N   1      33.025  16.519   6.849  0.00  0.00     0.080 A 
HETATM   20  C   UNK N   1      32.963  15.566   7.872  0.00  0.00     0.027 A 
HETATM   21  C   UNK N   1      33.629  15.785   9.081  0.00  0.00     0.030 A 
HETATM   22  C   UNK N   1      34.351  16.966   9.274  0.00  0.00     0.025 A 
HETATM   23  C   UNK N   1      34.419  17.919   8.252  0.00  0.00     0.030 A 
HETATM   24  C   UNK N   1      33.750  17.699   7.043  0.00  0.00     0.027 A 
BRANCH  22  25
HETATM   25  N   UNK N   1      34.999  17.201  10.503  0.00  0.00    -0.399 N 
HETATM   26  H   UNK N   1      35.495  18.040  10.647  0.00  0.00     0.156 HD
HETATM   27  H   UNK N   1      34.955  16.527  11.218  0.00  0.00     0.156 HD
ENDBRANCH  22  25
ENDBRANCH  16  19
ENDBRANCH   1  16
TORSDOF 4
ENDMDL
