MODEL 1
REMARK VINA RESULT:      -6.9      0.000      0.000
REMARK  9 active torsions:
REMARK  status: ('A' for Active; 'I' for Inactive)
REMARK       I    between atoms: C_3  and  N_11 
REMARK    1  A    between atoms: C_6  and  C_9 
REMARK    2  A    between atoms: C_9  and  O_10 
REMARK    3  A    between atoms: N_11  and  C_12 
REMARK    4  A    between atoms: C_12  and  C_13 
REMARK    5  A    between atoms: C_13  and  C_14 
REMARK    6  A    between atoms: C_14  and  O_15 
REMARK    7  A    between atoms: O_15  and  C_16 
REMARK    8  A    between atoms: C_20  and  C_22 
REMARK    9  A    between atoms: C_22  and  N_23 
ROOT
HETATM    1  C   UNK N   1      34.601  10.260  13.679  0.00  0.00     0.047 C 
ENDROOT
BRANCH   1   2
HETATM    2  C   UNK N   1      35.231  11.098  12.592  0.00  0.00     0.140 C 
BRANCH   2   3
HETATM    3  N   UNK N   1      34.515  12.338  12.434  0.00  0.00    -0.225 N 
HETATM    4  C   UNK N   1      35.047  13.450  11.727  0.00  0.00     0.696 A 
HETATM    5  N   UNK N   1      36.331  13.610  11.348  0.00  0.00    -0.127 N 
HETATM    6  N   UNK N   1      34.282  14.468  11.292  0.00  0.00    -0.176 N 
HETATM    7  C   UNK N   1      37.473  12.752  11.610  0.00  0.00     0.197 C 
HETATM    8  N   UNK N   1      36.408  14.732  10.652  0.00  0.00    -0.271 N 
HETATM    9  C   UNK N   1      35.160  15.245  10.621  0.00  0.00     0.136 A 
ATOM     10  HN  UNK N   1      37.244  15.131  10.226  1.00  0.00     0.189 HD
ATOM     11  HN  UNK N   1      33.283  14.617  11.435  1.00  0.00     0.185 HD
HETATM   12  H   UNK N   1      33.618  12.418  12.832  0.00  0.00     0.177 HD
BRANCH   9  13
HETATM   13  C   UNK N   1      34.771  16.488   9.892  0.00  0.00     0.242 C 
BRANCH  13  14
HETATM   14  O   UNK N   1      35.585  17.558  10.268  0.00  0.00    -0.393 OA
HETATM   15  H   UNK N   1      35.651  17.813  11.201  0.00  0.00     0.209 HD
ENDBRANCH  13  14
ENDBRANCH   9  13
ENDBRANCH   2   3
ENDBRANCH   1   2
BRANCH   1  16
HETATM   16  C   UNK N   1      34.185  11.187  14.792  0.00  0.00     0.177 C 
BRANCH  16  17
HETATM   17  O   UNK N   1      35.268  11.849  15.326  0.00  0.00    -0.351 OA
BRANCH  17  18
HETATM   18  C   UNK N   1      35.328  12.112  16.649  0.00  0.00     0.069 A 
HETATM   19  C   UNK N   1      35.290  13.431  17.138  0.00  0.00     0.037 A 
HETATM   20  C   UNK N   1      35.254  13.666  18.517  0.00  0.00     0.003 A 
HETATM   21  C   UNK N   1      35.207  12.588  19.408  0.00  0.00     0.009 A 
HETATM   22  C   UNK N   1      35.253  11.275  18.923  0.00  0.00    -0.028 A 
HETATM   23  C   UNK N   1      35.326  11.045  17.548  0.00  0.00     0.045 A 
BRANCH  22  24
HETATM   24  C   UNK N   1      35.040  10.104  19.825  0.00  0.00     0.311 C 
BRANCH  24  25
HETATM   25  N   UNK N   1      33.659   9.926  20.242  0.00  0.00     0.092 N 
HETATM   26  C   UNK N   1      33.216   8.660  19.648  0.00  0.00     0.272 C 
HETATM   27  C   UNK N   1      31.830   8.270  20.157  0.00  0.00     0.030 C 
HETATM   28  C   UNK N   1      31.877   8.123  21.671  0.00  0.00     0.003 C 
HETATM   29  C   UNK N   1      32.376   9.421  22.290  0.00  0.00     0.030 C 
HETATM   30  C   UNK N   1      33.737   9.769  21.696  0.00  0.00     0.272 C 
ENDBRANCH  24  25
ENDBRANCH  22  24
ENDBRANCH  17  18
ENDBRANCH  16  17
ENDBRANCH   1  16
TORSDOF 9
ENDMDL
MODEL 2
REMARK VINA RESULT:      -6.8      1.751      2.180
REMARK  9 active torsions:
REMARK  status: ('A' for Active; 'I' for Inactive)
REMARK       I    between atoms: C_3  and  N_11 
REMARK    1  A    between atoms: C_6  and  C_9 
REMARK    2  A    between atoms: C_9  and  O_10 
REMARK    3  A    between atoms: N_11  and  C_12 
REMARK    4  A    between atoms: C_12  and  C_13 
REMARK    5  A    between atoms: C_13  and  C_14 
REMARK    6  A    between atoms: C_14  and  O_15 
REMARK    7  A    between atoms: O_15  and  C_16 
REMARK    8  A    between atoms: C_20  and  C_22 
REMARK    9  A    between atoms: C_22  and  N_23 
ROOT
HETATM    1  C   UNK N   1      36.226  14.138  13.920  0.00  0.00     0.047 C 
ENDROOT
BRANCH   1   2
HETATM    2  C   UNK N   1      36.179  14.233  12.414  0.00  0.00     0.140 C 
BRANCH   2   3
HETATM    3  N   UNK N   1      35.927  15.590  12.003  0.00  0.00    -0.225 N 
HETATM    4  C   UNK N   1      35.486  15.929  10.695  0.00  0.00     0.696 A 
HETATM    5  N   UNK N   1      35.493  15.117   9.618  0.00  0.00    -0.127 N 
HETATM    6  N   UNK N   1      34.938  17.122  10.400  0.00  0.00    -0.176 N 
HETATM    7  C   UNK N   1      35.994  13.759   9.504  0.00  0.00     0.197 C 
HETATM    8  N   UNK N   1      34.938  15.775   8.615  0.00  0.00    -0.271 N 
HETATM    9  C   UNK N   1      34.601  16.990   9.098  0.00  0.00     0.136 A 
ATOM     10  HN  UNK N   1      34.794  15.434   7.665  1.00  0.00     0.189 HD
ATOM     11  HN  UNK N   1      34.808  17.929  11.010  1.00  0.00     0.185 HD
HETATM   12  H   UNK N   1      36.065  16.313  12.656  0.00  0.00     0.177 HD
BRANCH   9  13
HETATM   13  C   UNK N   1      33.893  18.048   8.318  0.00  0.00     0.242 C 
BRANCH  13  14
HETATM   14  O   UNK N   1      34.562  18.312   7.122  0.00  0.00    -0.393 OA
HETATM   15  H   UNK N   1      35.390  17.851   6.917  0.00  0.00     0.209 HD
ENDBRANCH  13  14
ENDBRANCH   9  13
ENDBRANCH   2   3
ENDBRANCH   1   2
BRANCH   1  16
HETATM   16  C   UNK N   1      35.490  12.886  14.324  0.00  0.00     0.177 C 
BRANCH  16  17
HETATM   17  O   UNK N   1      34.607  13.132  15.351  0.00  0.00    -0.351 OA
BRANCH  17  18
HETATM   18  C   UNK N   1      34.930  12.820  16.625  0.00  0.00     0.069 A 
HETATM   19  C   UNK N   1      35.075  13.813  17.611  0.00  0.00     0.037 A 
HETATM   20  C   UNK N   1      35.312  13.451  18.941  0.00  0.00     0.003 A 
HETATM   21  C   UNK N   1      35.359  12.099  19.299  0.00  0.00     0.009 A 
HETATM   22  C   UNK N   1      35.223  11.109  18.317  0.00  0.00    -0.028 A 
HETATM   23  C   UNK N   1      35.023  11.475  16.985  0.00  0.00     0.045 A 
BRANCH  22  24
HETATM   24  C   UNK N   1      35.103   9.666  18.681  0.00  0.00     0.311 C 
BRANCH  24  25
HETATM   25  N   UNK N   1      34.187   9.410  19.780  0.00  0.00     0.092 N 
HETATM   26  C   UNK N   1      33.105   8.589  19.225  0.00  0.00     0.272 C 
HETATM   27  C   UNK N   1      32.164   8.105  20.326  0.00  0.00     0.030 C 
HETATM   28  C   UNK N   1      32.954   7.279  21.331  0.00  0.00     0.003 C 
HETATM   29  C   UNK N   1      34.103   8.113  21.879  0.00  0.00     0.030 C 
HETATM   30  C   UNK N   1      34.966   8.600  20.720  0.00  0.00     0.272 C 
ENDBRANCH  24  25
ENDBRANCH  22  24
ENDBRANCH  17  18
ENDBRANCH  16  17
ENDBRANCH   1  16
TORSDOF 9
ENDMDL
MODEL 3
REMARK VINA RESULT:      -6.8      5.781     12.716
REMARK  9 active torsions:
REMARK  status: ('A' for Active; 'I' for Inactive)
REMARK       I    between atoms: C_3  and  N_11 
REMARK    1  A    between atoms: C_6  and  C_9 
REMARK    2  A    between atoms: C_9  and  O_10 
REMARK    3  A    between atoms: N_11  and  C_12 
REMARK    4  A    between atoms: C_12  and  C_13 
REMARK    5  A    between atoms: C_13  and  C_14 
REMARK    6  A    between atoms: C_14  and  O_15 
REMARK    7  A    between atoms: O_15  and  C_16 
REMARK    8  A    between atoms: C_20  and  C_22 
REMARK    9  A    between atoms: C_22  and  N_23 
ROOT
HETATM    1  C   UNK N   1      32.465  14.390   9.201  0.00  0.00     0.047 C 
ENDROOT
BRANCH   1   2
HETATM    2  C   UNK N   1      33.948  14.427   9.483  0.00  0.00     0.140 C 
BRANCH   2   3
HETATM    3  N   UNK N   1      34.275  13.543  10.572  0.00  0.00    -0.225 N 
HETATM    4  C   UNK N   1      35.101  13.935  11.660  0.00  0.00     0.696 A 
HETATM    5  N   UNK N   1      35.881  15.034  11.711  0.00  0.00    -0.127 N 
HETATM    6  N   UNK N   1      35.144  13.256  12.821  0.00  0.00    -0.176 N 
HETATM    7  C   UNK N   1      36.121  16.030  10.681  0.00  0.00     0.197 C 
HETATM    8  N   UNK N   1      36.430  15.082  12.913  0.00  0.00    -0.271 N 
HETATM    9  C   UNK N   1      35.975  14.002  13.581  0.00  0.00     0.136 A 
ATOM     10  HN  UNK N   1      37.070  15.795  13.264  1.00  0.00     0.189 HD
ATOM     11  HN  UNK N   1      34.665  12.389  13.067  1.00  0.00     0.185 HD
HETATM   12  H   UNK N   1      33.911  12.629  10.562  0.00  0.00     0.177 HD
BRANCH   9  13
HETATM   13  C   UNK N   1      36.299  13.684  15.004  0.00  0.00     0.242 C 
BRANCH  13  14
HETATM   14  O   UNK N   1      37.539  14.216  15.360  0.00  0.00    -0.393 OA
HETATM   15  H   UNK N   1      38.090  14.652  14.691  0.00  0.00     0.209 HD
ENDBRANCH  13  14
ENDBRANCH   9  13
ENDBRANCH   2   3
ENDBRANCH   1   2
BRANCH   1  16
HETATM   16  C   UNK N   1      32.030  15.788   8.845  0.00  0.00     0.177 C 
BRANCH  16  17
HETATM   17  O   UNK N   1      32.910  16.381   7.968  0.00  0.00    -0.351 OA
BRANCH  17  18
HETATM   18  C   UNK N   1      32.476  16.880   6.791  0.00  0.00     0.069 A 
HETATM   19  C   UNK N   1      33.351  17.073   5.707  0.00  0.00     0.037 A 
HETATM   20  C   UNK N   1      32.853  17.498   4.470  0.00  0.00     0.003 A 
HETATM   21  C   UNK N   1      31.477  17.685   4.299  0.00  0.00     0.009 A 
HETATM   22  C   UNK N   1      30.605  17.501   5.380  0.00  0.00    -0.028 A 
HETATM   23  C   UNK N   1      31.110  17.112   6.622  0.00  0.00     0.045 A 
BRANCH  22  24
HETATM   24  C   UNK N   1      29.123  17.530   5.196  0.00  0.00     0.311 C 
BRANCH  24  25
HETATM   25  N   UNK N   1      28.590  18.856   4.931  0.00  0.00     0.092 N 
HETATM   26  C   UNK N   1      27.551  18.679   3.910  0.00  0.00     0.272 C 
HETATM   27  C   UNK N   1      26.789  19.981   3.671  0.00  0.00     0.030 C 
HETATM   28  C   UNK N   1      26.140  20.427   4.974  0.00  0.00     0.003 C 
HETATM   29  C   UNK N   1      27.209  20.571   6.048  0.00  0.00     0.030 C 
HETATM   30  C   UNK N   1      27.957  19.250   6.192  0.00  0.00     0.272 C 
ENDBRANCH  24  25
ENDBRANCH  22  24
ENDBRANCH  17  18
ENDBRANCH  16  17
ENDBRANCH   1  16
TORSDOF 9
ENDMDL
MODEL 4
REMARK VINA RESULT:      -6.6      6.484     12.834
REMARK  9 active torsions:
REMARK  status: ('A' for Active; 'I' for Inactive)
REMARK       I    between atoms: C_3  and  N_11 
REMARK    1  A    between atoms: C_6  and  C_9 
REMARK    2  A    between atoms: C_9  and  O_10 
REMARK    3  A    between atoms: N_11  and  C_12 
REMARK    4  A    between atoms: C_12  and  C_13 
REMARK    5  A    between atoms: C_13  and  C_14 
REMARK    6  A    between atoms: C_14  and  O_15 
REMARK    7  A    between atoms: O_15  and  C_16 
REMARK    8  A    between atoms: C_20  and  C_22 
REMARK    9  A    between atoms: C_22  and  N_23 
ROOT
HETATM    1  C   UNK N   1      34.209  17.909   7.489  0.00  0.00     0.047 C 
ENDROOT
BRANCH   1   2
HETATM    2  C   UNK N   1      33.399  17.455   8.679  0.00  0.00     0.140 C 
BRANCH   2   3
HETATM    3  N   UNK N   1      34.262  17.164   9.794  0.00  0.00    -0.225 N 
HETATM    4  C   UNK N   1      34.452  15.850  10.300  0.00  0.00     0.696 A 
HETATM    5  N   UNK N   1      33.695  14.771  10.013  0.00  0.00    -0.127 N 
HETATM    6  N   UNK N   1      35.481  15.521  11.102  0.00  0.00    -0.176 N 
HETATM    7  C   UNK N   1      32.498  14.689   9.194  0.00  0.00     0.197 C 
HETATM    8  N   UNK N   1      34.236  13.728  10.618  0.00  0.00    -0.271 N 
HETATM    9  C   UNK N   1      35.321  14.191  11.274  0.00  0.00     0.136 A 
ATOM     10  HN  UNK N   1      33.899  12.765  10.595  1.00  0.00     0.189 HD
ATOM     11  HN  UNK N   1      36.206  16.128  11.484  1.00  0.00     0.185 HD
HETATM   12  H   UNK N   1      34.743  17.908  10.224  0.00  0.00     0.177 HD
BRANCH   9  13
HETATM   13  C   UNK N   1      36.269  13.341  12.054  0.00  0.00     0.242 C 
BRANCH  13  14
HETATM   14  O   UNK N   1      36.908  14.091  13.043  0.00  0.00    -0.393 OA
HETATM   15  H   UNK N   1      36.821  13.839  13.975  0.00  0.00     0.209 HD
ENDBRANCH  13  14
ENDBRANCH   9  13
ENDBRANCH   2   3
ENDBRANCH   1   2
BRANCH   1  16
HETATM   16  C   UNK N   1      34.166  16.811   6.458  0.00  0.00     0.177 C 
BRANCH  16  17
HETATM   17  O   UNK N   1      33.248  17.085   5.469  0.00  0.00    -0.351 OA
BRANCH  17  18
HETATM   18  C   UNK N   1      32.069  16.429   5.426  0.00  0.00     0.069 A 
HETATM   19  C   UNK N   1      32.011  15.032   5.267  0.00  0.00     0.037 A 
HETATM   20  C   UNK N   1      30.780  14.370   5.326  0.00  0.00     0.003 A 
HETATM   21  C   UNK N   1      29.611  15.092   5.590  0.00  0.00     0.009 A 
HETATM   22  C   UNK N   1      29.666  16.484   5.740  0.00  0.00    -0.028 A 
HETATM   23  C   UNK N   1      30.891  17.145   5.644  0.00  0.00     0.045 A 
BRANCH  22  24
HETATM   24  C   UNK N   1      28.473  17.266   6.182  0.00  0.00     0.311 C 
BRANCH  24  25
HETATM   25  N   UNK N   1      28.432  18.622   5.661  0.00  0.00     0.092 N 
HETATM   26  C   UNK N   1      27.528  18.586   4.506  0.00  0.00     0.272 C 
HETATM   27  C   UNK N   1      27.262  19.992   3.973  0.00  0.00     0.030 C 
HETATM   28  C   UNK N   1      26.633  20.834   5.074  0.00  0.00     0.003 C 
HETATM   29  C   UNK N   1      27.548  20.840   6.291  0.00  0.00     0.030 C 
HETATM   30  C   UNK N   1      27.807  19.403   6.731  0.00  0.00     0.272 C 
ENDBRANCH  24  25
ENDBRANCH  22  24
ENDBRANCH  17  18
ENDBRANCH  16  17
ENDBRANCH   1  16
TORSDOF 9
ENDMDL
MODEL 5
REMARK VINA RESULT:      -6.5      6.126     12.631
REMARK  9 active torsions:
REMARK  status: ('A' for Active; 'I' for Inactive)
REMARK       I    between atoms: C_3  and  N_11 
REMARK    1  A    between atoms: C_6  and  C_9 
REMARK    2  A    between atoms: C_9  and  O_10 
REMARK    3  A    between atoms: N_11  and  C_12 
REMARK    4  A    between atoms: C_12  and  C_13 
REMARK    5  A    between atoms: C_13  and  C_14 
REMARK    6  A    between atoms: C_14  and  O_15 
REMARK    7  A    between atoms: O_15  and  C_16 
REMARK    8  A    between atoms: C_20  and  C_22 
REMARK    9  A    between atoms: C_22  and  N_23 
ROOT
HETATM    1  C   UNK N   1      32.692  15.080   9.290  0.00  0.00     0.047 C 
ENDROOT
BRANCH   1   2
HETATM    2  C   UNK N   1      34.065  14.581   9.671  0.00  0.00     0.140 C 
BRANCH   2   3
HETATM    3  N   UNK N   1      34.016  13.888  10.932  0.00  0.00    -0.225 N 
HETATM    4  C   UNK N   1      35.151  13.739  11.774  0.00  0.00     0.696 A 
HETATM    5  N   UNK N   1      36.434  13.969  11.426  0.00  0.00    -0.127 N 
HETATM    6  N   UNK N   1      35.054  13.398  13.072  0.00  0.00    -0.176 N 
HETATM    7  C   UNK N   1      36.973  14.352  10.133  0.00  0.00     0.197 C 
HETATM    8  N   UNK N   1      37.180  13.790  12.502  0.00  0.00    -0.271 N 
HETATM    9  C   UNK N   1      36.335  13.446  13.497  0.00  0.00     0.136 A 
ATOM     10  HN  UNK N   1      38.193  13.890  12.568  1.00  0.00     0.189 HD
ATOM     11  HN  UNK N   1      34.217  13.162  13.605  1.00  0.00     0.185 HD
HETATM   12  H   UNK N   1      33.159  13.502  11.225  0.00  0.00     0.177 HD
BRANCH   9  13
HETATM   13  C   UNK N   1      36.744  13.200  14.912  0.00  0.00     0.242 C 
BRANCH  13  14
HETATM   14  O   UNK N   1      37.526  14.252  15.391  0.00  0.00    -0.393 OA
HETATM   15  H   UNK N   1      37.707  15.019  14.826  0.00  0.00     0.209 HD
ENDBRANCH  13  14
ENDBRANCH   9  13
ENDBRANCH   2   3
ENDBRANCH   1   2
BRANCH   1  16
HETATM   16  C   UNK N   1      32.870  16.289   8.407  0.00  0.00     0.177 C 
BRANCH  16  17
HETATM   17  O   UNK N   1      32.132  17.358   8.863  0.00  0.00    -0.351 OA
BRANCH  17  18
HETATM   18  C   UNK N   1      30.810  17.442   8.599  0.00  0.00     0.069 A 
HETATM   19  C   UNK N   1      29.873  17.697   9.617  0.00  0.00     0.037 A 
HETATM   20  C   UNK N   1      28.523  17.878   9.297  0.00  0.00     0.003 A 
HETATM   21  C   UNK N   1      28.112  17.850   7.960  0.00  0.00     0.009 A 
HETATM   22  C   UNK N   1      29.043  17.587   6.946  0.00  0.00    -0.028 A 
HETATM   23  C   UNK N   1      30.383  17.371   7.273  0.00  0.00     0.045 A 
BRANCH  22  24
HETATM   24  C   UNK N   1      28.676  17.711   5.504  0.00  0.00     0.311 C 
BRANCH  24  25
HETATM   25  N   UNK N   1      27.450  18.455   5.271  0.00  0.00     0.092 N 
HETATM   26  C   UNK N   1      27.864  19.816   4.909  0.00  0.00     0.272 C 
HETATM   27  C   UNK N   1      26.666  20.654   4.466  0.00  0.00     0.030 C 
HETATM   28  C   UNK N   1      26.011  19.993   3.262  0.00  0.00     0.003 C 
HETATM   29  C   UNK N   1      25.617  18.567   3.620  0.00  0.00     0.030 C 
HETATM   30  C   UNK N   1      26.852  17.811   4.099  0.00  0.00     0.272 C 
ENDBRANCH  24  25
ENDBRANCH  22  24
ENDBRANCH  17  18
ENDBRANCH  16  17
ENDBRANCH   1  16
TORSDOF 9
ENDMDL
MODEL 6
REMARK VINA RESULT:      -6.4     10.760     14.094
REMARK  9 active torsions:
REMARK  status: ('A' for Active; 'I' for Inactive)
REMARK       I    between atoms: C_3  and  N_11 
REMARK    1  A    between atoms: C_6  and  C_9 
REMARK    2  A    between atoms: C_9  and  O_10 
REMARK    3  A    between atoms: N_11  and  C_12 
REMARK    4  A    between atoms: C_12  and  C_13 
REMARK    5  A    between atoms: C_13  and  C_14 
REMARK    6  A    between atoms: C_14  and  O_15 
REMARK    7  A    between atoms: O_15  and  C_16 
REMARK    8  A    between atoms: C_20  and  C_22 
REMARK    9  A    between atoms: C_22  and  N_23 
ROOT
HETATM    1  C   UNK N   1      25.525  15.639   6.262  0.00  0.00     0.047 C 
ENDROOT
BRANCH   1   2
HETATM    2  C   UNK N   1      25.279  14.203   6.655  0.00  0.00     0.140 C 
BRANCH   2   3
HETATM    3  N   UNK N   1      25.490  14.025   8.068  0.00  0.00    -0.225 N 
HETATM    4  C   UNK N   1      24.517  13.443   8.925  0.00  0.00     0.696 A 
HETATM    5  N   UNK N   1      23.220  13.227   8.624  0.00  0.00    -0.127 N 
HETATM    6  N   UNK N   1      24.814  12.974  10.151  0.00  0.00    -0.176 N 
HETATM    7  C   UNK N   1      22.494  13.578   7.416  0.00  0.00     0.197 C 
HETATM    8  N   UNK N   1      22.667  12.604   9.650  0.00  0.00    -0.271 N 
HETATM    9  C   UNK N   1      23.642  12.451  10.571  0.00  0.00     0.136 A 
ATOM     10  HN  UNK N   1      21.697  12.299   9.731  1.00  0.00     0.189 HD
ATOM     11  HN  UNK N   1      25.708  13.005  10.641  1.00  0.00     0.185 HD
HETATM   12  H   UNK N   1      26.345  14.318   8.458  0.00  0.00     0.177 HD
BRANCH   9  13
HETATM   13  C   UNK N   1      23.475  11.746  11.877  0.00  0.00     0.242 C 
BRANCH  13  14
HETATM   14  O   UNK N   1      23.902  12.552  12.933  0.00  0.00    -0.393 OA
HETATM   15  H   UNK N   1      23.639  13.485  12.968  0.00  0.00     0.209 HD
ENDBRANCH  13  14
ENDBRANCH   9  13
ENDBRANCH   2   3
ENDBRANCH   1   2
BRANCH   1  16
HETATM   16  C   UNK N   1      26.980  15.942   6.512  0.00  0.00     0.177 C 
BRANCH  16  17
HETATM   17  O   UNK N   1      27.166  16.537   7.739  0.00  0.00    -0.351 OA
BRANCH  17  18
HETATM   18  C   UNK N   1      28.331  17.152   8.035  0.00  0.00     0.069 A 
HETATM   19  C   UNK N   1      28.449  18.007   9.147  0.00  0.00     0.037 A 
HETATM   20  C   UNK N   1      29.694  18.550   9.484  0.00  0.00     0.003 A 
HETATM   21  C   UNK N   1      30.830  18.206   8.744  0.00  0.00     0.009 A 
HETATM   22  C   UNK N   1      30.712  17.362   7.631  0.00  0.00    -0.028 A 
HETATM   23  C   UNK N   1      29.463  16.851   7.276  0.00  0.00     0.045 A 
BRANCH  22  24
HETATM   24  C   UNK N   1      31.918  16.843   6.918  0.00  0.00     0.311 C 
BRANCH  24  25
HETATM   25  N   UNK N   1      31.675  16.497   5.528  0.00  0.00     0.092 N 
HETATM   26  C   UNK N   1      32.312  17.550   4.729  0.00  0.00     0.272 C 
HETATM   27  C   UNK N   1      32.278  17.207   3.242  0.00  0.00     0.030 C 
HETATM   28  C   UNK N   1      33.013  15.894   3.015  0.00  0.00     0.003 C 
HETATM   29  C   UNK N   1      32.381  14.806   3.873  0.00  0.00     0.030 C 
HETATM   30  C   UNK N   1      32.407  15.243   5.334  0.00  0.00     0.272 C 
ENDBRANCH  24  25
ENDBRANCH  22  24
ENDBRANCH  17  18
ENDBRANCH  16  17
ENDBRANCH   1  16
TORSDOF 9
ENDMDL
MODEL 7
REMARK VINA RESULT:      -6.2     12.226     16.892
REMARK  9 active torsions:
REMARK  status: ('A' for Active; 'I' for Inactive)
REMARK       I    between atoms: C_3  and  N_11 
REMARK    1  A    between atoms: C_6  and  C_9 
REMARK    2  A    between atoms: C_9  and  O_10 
REMARK    3  A    between atoms: N_11  and  C_12 
REMARK    4  A    between atoms: C_12  and  C_13 
REMARK    5  A    between atoms: C_13  and  C_14 
REMARK    6  A    between atoms: C_14  and  O_15 
REMARK    7  A    between atoms: O_15  and  C_16 
REMARK    8  A    between atoms: C_20  and  C_22 
REMARK    9  A    between atoms: C_22  and  N_23 
ROOT
HETATM    1  C   UNK N   1      23.112  14.553   4.085  0.00  0.00     0.047 C 
ENDROOT
BRANCH   1   2
HETATM    2  C   UNK N   1      21.869  15.276   4.545  0.00  0.00     0.140 C 
BRANCH   2   3
HETATM    3  N   UNK N   1      21.317  16.060   3.471  0.00  0.00    -0.225 N 
HETATM    4  C   UNK N   1      21.155  17.470   3.551  0.00  0.00     0.696 A 
HETATM    5  N   UNK N   1      21.231  18.216   4.672  0.00  0.00    -0.127 N 
HETATM    6  N   UNK N   1      20.960  18.242   2.466  0.00  0.00    -0.176 N 
HETATM    7  C   UNK N   1      21.428  17.783   6.044  0.00  0.00     0.197 C 
HETATM    8  N   UNK N   1      21.098  19.484   4.320  0.00  0.00    -0.271 N 
HETATM    9  C   UNK N   1      20.936  19.491   2.980  0.00  0.00     0.136 A 
ATOM     10  HN  UNK N   1      21.113  20.294   4.939  1.00  0.00     0.189 HD
ATOM     11  HN  UNK N   1      20.856  17.954   1.493  1.00  0.00     0.185 HD
HETATM   12  H   UNK N   1      21.042  15.601   2.645  0.00  0.00     0.177 HD
BRANCH   9  13
HETATM   13  C   UNK N   1      20.803  20.723   2.147  0.00  0.00     0.242 C 
BRANCH  13  14
HETATM   14  O   UNK N   1      21.625  21.740   2.633  0.00  0.00    -0.393 OA
HETATM   15  H   UNK N   1      21.899  22.464   2.048  0.00  0.00     0.209 HD
ENDBRANCH  13  14
ENDBRANCH   9  13
ENDBRANCH   2   3
ENDBRANCH   1   2
BRANCH   1  16
HETATM   16  C   UNK N   1      24.086  15.586   3.581  0.00  0.00     0.177 C 
BRANCH  16  17
HETATM   17  O   UNK N   1      24.343  16.543   4.537  0.00  0.00    -0.351 OA
BRANCH  17  18
HETATM   18  C   UNK N   1      25.172  17.576   4.270  0.00  0.00     0.069 A 
HETATM   19  C   UNK N   1      24.698  18.768   3.693  0.00  0.00     0.037 A 
HETATM   20  C   UNK N   1      25.561  19.855   3.520  0.00  0.00     0.003 A 
HETATM   21  C   UNK N   1      26.886  19.772   3.965  0.00  0.00     0.009 A 
HETATM   22  C   UNK N   1      27.361  18.582   4.531  0.00  0.00    -0.028 A 
HETATM   23  C   UNK N   1      26.506  17.487   4.668  0.00  0.00     0.045 A 
BRANCH  22  24
HETATM   24  C   UNK N   1      28.712  18.509   5.163  0.00  0.00     0.311 C 
BRANCH  24  25
HETATM   25  N   UNK N   1      28.713  17.888   6.478  0.00  0.00     0.092 N 
HETATM   26  C   UNK N   1      30.104  17.502   6.743  0.00  0.00     0.272 C 
HETATM   27  C   UNK N   1      30.269  16.995   8.174  0.00  0.00     0.030 C 
HETATM   28  C   UNK N   1      29.860  18.093   9.145  0.00  0.00     0.003 C 
HETATM   29  C   UNK N   1      28.432  18.526   8.846  0.00  0.00     0.030 C 
HETATM   30  C   UNK N   1      28.336  18.970   7.390  0.00  0.00     0.272 C 
ENDBRANCH  24  25
ENDBRANCH  22  24
ENDBRANCH  17  18
ENDBRANCH  16  17
ENDBRANCH   1  16
TORSDOF 9
ENDMDL
MODEL 8
REMARK VINA RESULT:      -6.2     10.857     15.118
REMARK  9 active torsions:
REMARK  status: ('A' for Active; 'I' for Inactive)
REMARK       I    between atoms: C_3  and  N_11 
REMARK    1  A    between atoms: C_6  and  C_9 
REMARK    2  A    between atoms: C_9  and  O_10 
REMARK    3  A    between atoms: N_11  and  C_12 
REMARK    4  A    between atoms: C_12  and  C_13 
REMARK    5  A    between atoms: C_13  and  C_14 
REMARK    6  A    between atoms: C_14  and  O_15 
REMARK    7  A    between atoms: O_15  and  C_16 
REMARK    8  A    between atoms: C_20  and  C_22 
REMARK    9  A    between atoms: C_22  and  N_23 
ROOT
HETATM    1  C   UNK N   1      24.876  14.700   6.709  0.00  0.00     0.047 C 
ENDROOT
BRANCH   1   2
HETATM    2  C   UNK N   1      24.349  13.425   7.324  0.00  0.00     0.140 C 
BRANCH   2   3
HETATM    3  N   UNK N   1      24.792  13.304   8.688  0.00  0.00    -0.225 N 
HETATM    4  C   UNK N   1      23.918  12.958   9.754  0.00  0.00     0.696 A 
HETATM    5  N   UNK N   1      22.570  12.955   9.707  0.00  0.00    -0.127 N 
HETATM    6  N   UNK N   1      24.363  12.523  10.947  0.00  0.00    -0.176 N 
HETATM    7  C   UNK N   1      21.695  13.351   8.617  0.00  0.00     0.197 C 
HETATM    8  N   UNK N   1      22.128  12.505  10.869  0.00  0.00    -0.271 N 
HETATM    9  C   UNK N   1      23.222  12.243  11.615  0.00  0.00     0.136 A 
ATOM     10  HN  UNK N   1      21.154  12.383  11.147  1.00  0.00     0.189 HD
ATOM     11  HN  UNK N   1      25.326  12.427  11.268  1.00  0.00     0.185 HD
HETATM   12  H   UNK N   1      25.741  13.466   8.892  0.00  0.00     0.177 HD
BRANCH   9  13
HETATM   13  C   UNK N   1      23.194  11.663  12.990  0.00  0.00     0.242 C 
BRANCH  13  14
HETATM   14  O   UNK N   1      23.745  12.553  13.914  0.00  0.00    -0.393 OA
HETATM   15  H   UNK N   1      23.862  12.282  14.838  0.00  0.00     0.209 HD
ENDBRANCH  13  14
ENDBRANCH   9  13
ENDBRANCH   2   3
ENDBRANCH   1   2
BRANCH   1  16
HETATM   16  C   UNK N   1      25.710  14.323   5.512  0.00  0.00     0.177 C 
BRANCH  16  17
HETATM   17  O   UNK N   1      25.330  15.028   4.393  0.00  0.00    -0.351 OA
BRANCH  17  18
HETATM   18  C   UNK N   1      25.835  16.257   4.150  0.00  0.00     0.069 A 
HETATM   19  C   UNK N   1      25.081  17.242   3.487  0.00  0.00     0.037 A 
HETATM   20  C   UNK N   1      25.593  18.536   3.340  0.00  0.00     0.003 A 
HETATM   21  C   UNK N   1      26.836  18.862   3.893  0.00  0.00     0.009 A 
HETATM   22  C   UNK N   1      27.592  17.879   4.546  0.00  0.00    -0.028 A 
HETATM   23  C   UNK N   1      27.093  16.580   4.659  0.00  0.00     0.045 A 
BRANCH  22  24
HETATM   24  C   UNK N   1      28.841  18.224   5.288  0.00  0.00     0.311 C 
BRANCH  24  25
HETATM   25  N   UNK N   1      28.876  17.715   6.649  0.00  0.00     0.092 N 
HETATM   26  C   UNK N   1      30.287  17.434   6.941  0.00  0.00     0.272 C 
HETATM   27  C   UNK N   1      30.478  17.057   8.408  0.00  0.00     0.030 C 
HETATM   28  C   UNK N   1      30.004  18.206   9.287  0.00  0.00     0.003 C 
HETATM   29  C   UNK N   1      28.553  18.528   8.958  0.00  0.00     0.030 C 
HETATM   30  C   UNK N   1      28.435  18.844   7.471  0.00  0.00     0.272 C 
ENDBRANCH  24  25
ENDBRANCH  22  24
ENDBRANCH  17  18
ENDBRANCH  16  17
ENDBRANCH   1  16
TORSDOF 9
ENDMDL
MODEL 9
REMARK VINA RESULT:      -6.1     13.644     16.179
REMARK  9 active torsions:
REMARK  status: ('A' for Active; 'I' for Inactive)
REMARK       I    between atoms: C_3  and  N_11 
REMARK    1  A    between atoms: C_6  and  C_9 
REMARK    2  A    between atoms: C_9  and  O_10 
REMARK    3  A    between atoms: N_11  and  C_12 
REMARK    4  A    between atoms: C_12  and  C_13 
REMARK    5  A    between atoms: C_13  and  C_14 
REMARK    6  A    between atoms: C_14  and  O_15 
REMARK    7  A    between atoms: O_15  and  C_16 
REMARK    8  A    between atoms: C_20  and  C_22 
REMARK    9  A    between atoms: C_22  and  N_23 
ROOT
HETATM    1  C   UNK N   1      23.330  15.202   3.006  0.00  0.00     0.047 C 
ENDROOT
BRANCH   1   2
HETATM    2  C   UNK N   1      22.314  15.792   3.953  0.00  0.00     0.140 C 
BRANCH   2   3
HETATM    3  N   UNK N   1      21.314  16.528   3.224  0.00  0.00    -0.225 N 
HETATM    4  C   UNK N   1      21.383  17.933   3.024  0.00  0.00     0.696 A 
HETATM    5  N   UNK N   1      22.199  18.788   3.674  0.00  0.00    -0.127 N 
HETATM    6  N   UNK N   1      20.658  18.572   2.088  0.00  0.00    -0.176 N 
HETATM    7  C   UNK N   1      23.136  18.515   4.750  0.00  0.00     0.197 C 
HETATM    8  N   UNK N   1      22.017  19.990   3.155  0.00  0.00    -0.271 N 
HETATM    9  C   UNK N   1      21.082  19.850   2.192  0.00  0.00     0.136 A 
ATOM     10  HN  UNK N   1      22.488  20.853   3.429  1.00  0.00     0.189 HD
ATOM     11  HN  UNK N   1      19.958  18.184   1.455  1.00  0.00     0.185 HD
HETATM   12  H   UNK N   1      20.549  16.036   2.846  0.00  0.00     0.177 HD
BRANCH   9  13
HETATM   13  C   UNK N   1      20.605  20.951   1.303  0.00  0.00     0.242 C 
BRANCH  13  14
HETATM   14  O   UNK N   1      20.604  20.544  -0.032  0.00  0.00    -0.393 OA
HETATM   15  H   UNK N   1      20.881  21.160  -0.728  0.00  0.00     0.209 HD
ENDBRANCH  13  14
ENDBRANCH   9  13
ENDBRANCH   2   3
ENDBRANCH   1   2
BRANCH   1  16
HETATM   16  C   UNK N   1      23.455  13.734   3.321  0.00  0.00     0.177 C 
BRANCH  16  17
HETATM   17  O   UNK N   1      24.699  13.433   3.829  0.00  0.00    -0.351 OA
BRANCH  17  18
HETATM   18  C   UNK N   1      24.952  13.563   5.149  0.00  0.00     0.069 A 
HETATM   19  C   UNK N   1      25.646  14.676   5.658  0.00  0.00     0.037 A 
HETATM   20  C   UNK N   1      25.806  14.831   7.039  0.00  0.00     0.003 A 
HETATM   21  C   UNK N   1      25.234  13.904   7.917  0.00  0.00     0.009 A 
HETATM   22  C   UNK N   1      24.550  12.790   7.411  0.00  0.00    -0.028 A 
HETATM   23  C   UNK N   1      24.425  12.620   6.031  0.00  0.00     0.045 A 
BRANCH  22  24
HETATM   24  C   UNK N   1      23.789  11.871   8.310  0.00  0.00     0.311 C 
BRANCH  24  25
HETATM   25  N   UNK N   1      23.093  12.549   9.390  0.00  0.00     0.092 N 
HETATM   26  C   UNK N   1      21.700  12.692   8.949  0.00  0.00     0.272 C 
HETATM   27  C   UNK N   1      20.822  13.235  10.074  0.00  0.00     0.030 C 
HETATM   28  C   UNK N   1      20.876  12.280  11.257  0.00  0.00     0.003 C 
HETATM   29  C   UNK N   1      22.323  12.096  11.692  0.00  0.00     0.030 C 
HETATM   30  C   UNK N   1      23.145  11.601  10.506  0.00  0.00     0.272 C 
ENDBRANCH  24  25
ENDBRANCH  22  24
ENDBRANCH  17  18
ENDBRANCH  16  17
ENDBRANCH   1  16
TORSDOF 9
ENDMDL
