REMARK  6 active torsions:
REMARK  status: ('A' for Active; 'I' for Inactive)
REMARK    1  A    between atoms: N_3  and  C_15 
REMARK    2  A    between atoms: C_6  and  C_7 
REMARK    3  A    between atoms: C_7  and  C_8 
REMARK    4  A    between atoms: C_15  and  C_16 
REMARK    5  A    between atoms: C_16  and  C_17 
REMARK    6  A    between atoms: C_16  and  O_24 
ROOT
HETATM    1  C   UNK N   1       3.005  -2.380   0.618  0.00  0.00     0.035 C 
HETATM    2  C   UNK N   1       2.148  -3.514   1.188  0.00  0.00     0.273 C 
HETATM    3  N   UNK N   1       1.637  -4.423   0.147  0.00  0.00     0.091 N 
HETATM    4  C   UNK N   1       0.778  -3.687  -0.792  0.00  0.00     0.273 C 
HETATM    5  C   UNK N   1       1.531  -2.571  -1.528  0.00  0.00     0.035 C 
HETATM    6  C   UNK N   1       2.270  -1.698  -0.523  0.00  0.00    -0.007 C 
ENDROOT
BRANCH   3   7
HETATM    7  C   UNK N   1       2.727  -5.083  -0.576  0.00  0.00     0.308 C 
BRANCH   7   8
HETATM    8  C   UNK N   1       3.447  -6.088   0.314  0.00  0.00     0.179 C 
BRANCH   8   9
HETATM    9  C   UNK N   1       2.860  -7.472   0.201  0.00  0.00    -0.028 A 
HETATM   10  C   UNK N   1       3.664  -8.562  -0.172  0.00  0.00     0.011 A 
HETATM   11  C   UNK N   1       3.123  -9.848  -0.246  0.00  0.00     0.024 A 
HETATM   12  C   UNK N   1       1.775 -10.056   0.051  0.00  0.00     0.034 A 
HETATM   13  C   UNK N   1       0.966  -8.978   0.421  0.00  0.00     0.024 A 
HETATM   14 Cl   UNK N   1       1.101 -11.670  -0.035  0.00  0.00    -0.084 Cl
HETATM   15  C   UNK N   1       1.507  -7.690   0.501  0.00  0.00     0.011 A 
ENDBRANCH   8   9
BRANCH   8  16
HETATM   16  O   UNK N   1       4.805  -6.087  -0.014  0.00  0.00    -0.389 OA
HETATM   17  H   UNK N   1       5.277  -6.903  -0.242  0.00  0.00     0.210 HD
ENDBRANCH   8  16
ENDBRANCH   7   8
ENDBRANCH   3   7
BRANCH   6  18
HETATM   18  C   UNK N   1       2.088  -0.183  -0.516  0.00  0.00     0.043 C 
BRANCH  18  19
HETATM   19  C   UNK N   1       0.700   0.299  -0.203  0.00  0.00    -0.058 A 
HETATM   20  C   UNK N   1      -0.353  -0.585   0.085  0.00  0.00     0.010 A 
HETATM   21  C   UNK N   1      -1.636  -0.095   0.341  0.00  0.00     0.043 A 
HETATM   22  C   UNK N   1      -1.877   1.282   0.311  0.00  0.00     0.116 A 
HETATM   23  C   UNK N   1      -0.832   2.167   0.032  0.00  0.00     0.043 A 
HETATM   24  F   UNK N   1      -3.122   1.757   0.550  0.00  0.00    -0.206 F 
HETATM   25  C   UNK N   1       0.451   1.677  -0.225  0.00  0.00     0.010 A 
ENDBRANCH  18  19
ENDBRANCH   6  18
TORSDOF 6
