REMARK  3 active torsions:
REMARK  status: ('A' for Active; 'I' for Inactive)
REMARK    1  A    between atoms: O_1  and  C_2 
REMARK    2  A    between atoms: C_5  and  O_9 
REMARK    3  A    between atoms: C_7  and  O_8 
ROOT
HETATM    1  C   UNK N   1       1.184   1.227   0.000  0.00  0.00     0.070 A 
HETATM    2  C   UNK N   1      -0.069   1.847  -0.000  0.00  0.00     0.073 A 
HETATM    3  C   UNK N   1       1.276  -0.167  -0.000  0.00  0.00     0.073 A 
HETATM    4  C   UNK N   1       0.115  -0.945  -0.000  0.00  0.00     0.070 A 
HETATM    5  C   UNK N   1      -1.141  -0.326  -0.000  0.00  0.00     0.073 A 
HETATM    6  C   UNK N   1      -1.232   1.072  -0.000  0.00  0.00     0.070 A 
ENDROOT
BRANCH   1   7
HETATM    7  O   UNK N   1       2.300   1.972  -0.000  0.00  0.00    -0.361 OA
HETATM    8  H   UNK N   1       3.140   1.557  -0.000  0.00  0.00     0.217 HD
ENDBRANCH   1   7
BRANCH   6   9
HETATM    9  O   UNK N   1      -2.434   1.671   0.000  0.00  0.00    -0.361 OA
HETATM   10  H   UNK N   1      -2.491   2.606   0.000  0.00  0.00     0.217 HD
ENDBRANCH   6   9
BRANCH   4  11
HETATM   11  O   UNK N   1       0.209  -2.284   0.000  0.00  0.00    -0.361 OA
HETATM   12  H   UNK N   1      -0.568  -2.808   0.000  0.00  0.00     0.217 HD
ENDBRANCH   4  11
TORSDOF 3
