MODEL 1
REMARK VINA RESULT:      -8.5      0.000      0.000
REMARK  3 active torsions:
REMARK  status: ('A' for Active; 'I' for Inactive)
REMARK    1  A    between atoms: C_4  and  C_7 
REMARK    2  A    between atoms: C_9  and  C_29 
REMARK    3  A    between atoms: C_10  and  N_15 
REMARK       I    between atoms: N_18  and  C_21 
ROOT
HETATM    1  C   UNK N   1      28.853  18.160   5.937  0.00  0.00     0.059 A 
HETATM    2  C   UNK N   1      29.785  17.575   5.092  0.00  0.00     0.048 A 
HETATM    3  C   UNK N   1      30.858  16.848   5.598  0.00  0.00     0.022 A 
HETATM    4  C   UNK N   1      30.997  16.774   7.019  0.00  0.00     0.129 A 
HETATM    5  N   UNK N   1      30.027  17.339   7.797  0.00  0.00    -0.284 N 
ATOM      6  HN  UNK N   1      30.099  17.256   8.811  1.00  0.00     0.188 HD
HETATM    7  N   UNK N   1      28.988  17.998   7.278  0.00  0.00    -0.298 N 
ATOM      8  HN  UNK N   1      28.280  18.386   7.902  1.00  0.00     0.187 HD
ENDROOT
BRANCH   4   9
HETATM    9  N   UNK N   1      32.152  16.224   7.663  0.00  0.00    -0.362 N 
HETATM   10  C   UNK N   1      32.362  14.805   7.681  0.00  0.00     0.145 C 
HETATM   11  C   UNK N   1      32.849  14.381   9.050  0.00  0.00     0.161 C 
HETATM   12  N   UNK N   1      33.788  15.304   9.667  0.00  0.00    -0.214 N 
HETATM   13  C   UNK N   1      34.004  16.673   9.193  0.00  0.00     0.161 C 
HETATM   14  C   UNK N   1      34.495  14.848  10.815  0.00  0.00     0.679 A 
HETATM   15  C   UNK N   1      33.331  17.023   7.858  0.00  0.00     0.145 C 
HETATM   16  N   UNK N   1      34.196  13.631  11.357  0.00  0.00    -0.202 N 
HETATM   17  N   UNK N   1      35.493  15.599  11.356  0.00  0.00    -0.202 N 
HETATM   18  C   UNK N   1      34.876  13.157  12.431  0.00  0.00     0.107 A 
ATOM     19  HN  UNK N   1      33.450  13.069  10.947  1.00  0.00     0.183 HD
HETATM   20  C   UNK N   1      35.906  13.909  12.987  0.00  0.00     0.035 A 
HETATM   21  C   UNK N   1      36.202  15.149  12.423  0.00  0.00     0.107 A 
ATOM     22  HN  UNK N   1      35.711  16.511  10.955  1.00  0.00     0.183 HD
ENDBRANCH   4   9
BRANCH   3  23
HETATM   23  C   UNK N   1      31.709  16.142   4.593  0.00  0.00    -0.019 A 
HETATM   24  C   UNK N   1      32.768  16.820   3.968  0.00  0.00     0.029 A 
HETATM   25  C   UNK N   1      33.511  16.191   2.968  0.00  0.00     0.088 A 
HETATM   26  N   UNK N   1      33.192  14.929   2.574  0.00  0.00    -0.375 N 
HETATM   27  C   UNK N   1      32.150  14.259   3.131  0.00  0.00     0.088 A 
ATOM     28  HN  UNK N   1      33.745  14.478   1.846  1.00  0.00     0.164 HD
HETATM   29  C   UNK N   1      31.389  14.857   4.137  0.00  0.00     0.029 A 
ENDBRANCH   3  23
BRANCH   1  30
HETATM   30  C   UNK N   1      27.736  18.940   5.369  0.00  0.00    -0.008 A 
HETATM   31  C   UNK N   1      27.189  18.584   4.123  0.00  0.00     0.014 A 
HETATM   32  C   UNK N   1      26.145  19.327   3.568  0.00  0.00     0.001 A 
HETATM   33  C   UNK N   1      25.635  20.430   4.255  0.00  0.00     0.000 A 
HETATM   34  C   UNK N   1      26.170  20.790   5.496  0.00  0.00     0.001 A 
HETATM   35  C   UNK N   1      27.220  20.051   6.050  0.00  0.00     0.014 A 
ENDBRANCH   1  30
TORSDOF 3
ENDMDL
MODEL 2
REMARK VINA RESULT:      -8.4      3.915     10.494
REMARK  3 active torsions:
REMARK  status: ('A' for Active; 'I' for Inactive)
REMARK    1  A    between atoms: C_4  and  C_7 
REMARK    2  A    between atoms: C_9  and  C_29 
REMARK    3  A    between atoms: C_10  and  N_15 
REMARK       I    between atoms: N_18  and  C_21 
ROOT
HETATM    1  C   UNK N   1      35.883  13.194  15.006  0.00  0.00     0.059 A 
HETATM    2  C   UNK N   1      35.541  12.386  13.933  0.00  0.00     0.048 A 
HETATM    3  C   UNK N   1      35.667  12.839  12.623  0.00  0.00     0.022 A 
HETATM    4  C   UNK N   1      36.107  14.185  12.427  0.00  0.00     0.129 A 
HETATM    5  N   UNK N   1      36.464  14.918  13.523  0.00  0.00    -0.284 N 
ATOM      6  HN  UNK N   1      36.817  15.865  13.387  1.00  0.00     0.188 HD
HETATM    7  N   UNK N   1      36.368  14.439  14.765  0.00  0.00    -0.298 N 
ATOM      8  HN  UNK N   1      36.665  15.020  15.549  1.00  0.00     0.187 HD
ENDROOT
BRANCH   4   9
HETATM    9  N   UNK N   1      36.097  14.832  11.149  0.00  0.00    -0.362 N 
HETATM   10  C   UNK N   1      35.759  16.221  11.044  0.00  0.00     0.145 C 
HETATM   11  C   UNK N   1      34.857  16.437   9.848  0.00  0.00     0.161 C 
HETATM   12  N   UNK N   1      35.206  15.642   8.681  0.00  0.00    -0.214 N 
HETATM   13  C   UNK N   1      36.117  14.496   8.728  0.00  0.00     0.161 C 
HETATM   14  C   UNK N   1      34.588  15.986   7.447  0.00  0.00     0.679 A 
HETATM   15  C   UNK N   1      36.865  14.302  10.055  0.00  0.00     0.145 C 
HETATM   16  N   UNK N   1      33.624  16.953   7.417  0.00  0.00    -0.202 N 
HETATM   17  N   UNK N   1      34.973  15.384   6.289  0.00  0.00    -0.202 N 
HETATM   18  C   UNK N   1      33.041  17.325   6.250  0.00  0.00     0.107 A 
ATOM     19  HN  UNK N   1      33.340  17.405   8.286  1.00  0.00     0.183 HD
HETATM   20  C   UNK N   1      33.434  16.726   5.057  0.00  0.00     0.035 A 
HETATM   21  C   UNK N   1      34.419  15.741   5.100  0.00  0.00     0.107 A 
ATOM     22  HN  UNK N   1      35.688  14.657   6.312  1.00  0.00     0.183 HD
ENDBRANCH   4   9
BRANCH   3  23
HETATM   23  C   UNK N   1      35.410  11.832  11.549  0.00  0.00    -0.019 A 
HETATM   24  C   UNK N   1      36.378  10.859  11.252  0.00  0.00     0.029 A 
HETATM   25  C   UNK N   1      36.177   9.972  10.193  0.00  0.00     0.088 A 
HETATM   26  N   UNK N   1      35.058  10.066   9.427  0.00  0.00    -0.375 N 
HETATM   27  C   UNK N   1      34.120  11.019   9.664  0.00  0.00     0.088 A 
ATOM     28  HN  UNK N   1      34.920   9.408   8.660  1.00  0.00     0.164 HD
HETATM   29  C   UNK N   1      34.287  11.920  10.717  0.00  0.00     0.029 A 
ENDBRANCH   3  23
BRANCH   1  30
HETATM   30  C   UNK N   1      35.721  12.690  16.385  0.00  0.00    -0.008 A 
HETATM   31  C   UNK N   1      35.947  11.331  16.669  0.00  0.00     0.014 A 
HETATM   32  C   UNK N   1      35.776  10.840  17.965  0.00  0.00     0.001 A 
HETATM   33  C   UNK N   1      35.386  11.704  18.990  0.00  0.00     0.000 A 
HETATM   34  C   UNK N   1      35.162  13.058  18.718  0.00  0.00     0.001 A 
HETATM   35  C   UNK N   1      35.325  13.549  17.419  0.00  0.00     0.014 A 
ENDBRANCH   1  30
TORSDOF 3
ENDMDL
MODEL 3
REMARK VINA RESULT:      -8.0      2.246      4.200
REMARK  3 active torsions:
REMARK  status: ('A' for Active; 'I' for Inactive)
REMARK    1  A    between atoms: C_4  and  C_7 
REMARK    2  A    between atoms: C_9  and  C_29 
REMARK    3  A    between atoms: C_10  and  N_15 
REMARK       I    between atoms: N_18  and  C_21 
ROOT
HETATM    1  C   UNK N   1      27.302  18.473   4.330  0.00  0.00     0.059 A 
HETATM    2  C   UNK N   1      27.595  18.328   5.678  0.00  0.00     0.048 A 
HETATM    3  C   UNK N   1      28.810  17.794   6.096  0.00  0.00     0.022 A 
HETATM    4  C   UNK N   1      29.720  17.347   5.087  0.00  0.00     0.129 A 
HETATM    5  N   UNK N   1      29.389  17.551   3.778  0.00  0.00    -0.284 N 
ATOM      6  HN  UNK N   1      30.051  17.270   3.054  1.00  0.00     0.188 HD
HETATM    7  N   UNK N   1      28.230  18.103   3.411  0.00  0.00    -0.298 N 
ATOM      8  HN  UNK N   1      28.038  18.251   2.420  1.00  0.00     0.187 HD
ENDROOT
BRANCH   4   9
HETATM    9  N   UNK N   1      30.912  16.609   5.382  0.00  0.00    -0.362 N 
HETATM   10  C   UNK N   1      30.924  15.180   5.270  0.00  0.00     0.145 C 
HETATM   11  C   UNK N   1      31.672  14.584   6.442  0.00  0.00     0.161 C 
HETATM   12  N   UNK N   1      32.853  15.332   6.845  0.00  0.00    -0.214 N 
HETATM   13  C   UNK N   1      33.130  16.702   6.405  0.00  0.00     0.161 C 
HETATM   14  C   UNK N   1      33.753  14.698   7.746  0.00  0.00     0.679 A 
HETATM   15  C   UNK N   1      32.200  17.242   5.308  0.00  0.00     0.145 C 
HETATM   16  N   UNK N   1      33.434  13.483   8.281  0.00  0.00    -0.202 N 
HETATM   17  N   UNK N   1      34.947  15.275   8.051  0.00  0.00    -0.202 N 
HETATM   18  C   UNK N   1      34.287  12.840   9.117  0.00  0.00     0.107 A 
ATOM     19  HN  UNK N   1      32.540  13.051   8.048  1.00  0.00     0.183 HD
HETATM   20  C   UNK N   1      35.516  13.413   9.428  0.00  0.00     0.035 A 
HETATM   21  C   UNK N   1      35.831  14.653   8.874  0.00  0.00     0.107 A 
ATOM     22  HN  UNK N   1      35.182  16.185   7.656  1.00  0.00     0.183 HD
ENDBRANCH   4   9
BRANCH   3  23
HETATM   23  C   UNK N   1      29.073  17.824   7.567  0.00  0.00    -0.019 A 
HETATM   24  C   UNK N   1      28.207  17.160   8.449  0.00  0.00     0.029 A 
HETATM   25  C   UNK N   1      28.401  17.257   9.828  0.00  0.00     0.088 A 
HETATM   26  N   UNK N   1      29.413  18.020  10.322  0.00  0.00    -0.375 N 
HETATM   27  C   UNK N   1      30.246  18.706   9.497  0.00  0.00     0.088 A 
ATOM     28  HN  UNK N   1      29.548  18.079  11.331  1.00  0.00     0.164 HD
HETATM   29  C   UNK N   1      30.082  18.627   8.113  0.00  0.00     0.029 A 
ENDBRANCH   3  23
BRANCH   1  30
HETATM   30  C   UNK N   1      25.997  19.028   3.919  0.00  0.00    -0.008 A 
HETATM   31  C   UNK N   1      25.942  20.175   3.109  0.00  0.00     0.014 A 
HETATM   32  C   UNK N   1      24.713  20.719   2.731  0.00  0.00     0.001 A 
HETATM   33  C   UNK N   1      23.527  20.118   3.155  0.00  0.00     0.000 A 
HETATM   34  C   UNK N   1      23.570  18.974   3.958  0.00  0.00     0.001 A 
HETATM   35  C   UNK N   1      24.801  18.432   4.344  0.00  0.00     0.014 A 
ENDBRANCH   1  30
TORSDOF 3
ENDMDL
MODEL 4
REMARK VINA RESULT:      -7.8      2.022      3.198
REMARK  3 active torsions:
REMARK  status: ('A' for Active; 'I' for Inactive)
REMARK    1  A    between atoms: C_4  and  C_7 
REMARK    2  A    between atoms: C_9  and  C_29 
REMARK    3  A    between atoms: C_10  and  N_15 
REMARK       I    between atoms: N_18  and  C_21 
ROOT
HETATM    1  C   UNK N   1      30.773  16.887   7.344  0.00  0.00     0.059 A 
HETATM    2  C   UNK N   1      31.836  16.291   6.683  0.00  0.00     0.048 A 
HETATM    3  C   UNK N   1      32.858  15.660   7.386  0.00  0.00     0.022 A 
HETATM    4  C   UNK N   1      32.800  15.697   8.814  0.00  0.00     0.129 A 
HETATM    5  N   UNK N   1      31.708  16.266   9.406  0.00  0.00    -0.284 N 
ATOM      6  HN  UNK N   1      31.642  16.261  10.423  1.00  0.00     0.188 HD
HETATM    7  N   UNK N   1      30.725  16.830   8.699  0.00  0.00    -0.298 N 
ATOM      8  HN  UNK N   1      29.922  17.226   9.188  1.00  0.00     0.187 HD
ENDROOT
BRANCH   4   9
HETATM    9  N   UNK N   1      33.876  15.256   9.651  0.00  0.00    -0.362 N 
HETATM   10  C   UNK N   1      34.235  13.868   9.695  0.00  0.00     0.145 C 
HETATM   11  C   UNK N   1      34.514  13.460  11.126  0.00  0.00     0.161 C 
HETATM   12  N   UNK N   1      35.221  14.461  11.909  0.00  0.00    -0.214 N 
HETATM   13  C   UNK N   1      35.365  15.859  11.493  0.00  0.00     0.161 C 
HETATM   14  C   UNK N   1      35.758  14.052  13.161  0.00  0.00     0.679 A 
HETATM   15  C   UNK N   1      34.906  16.171  10.061  0.00  0.00     0.145 C 
HETATM   16  N   UNK N   1      35.504  12.796  13.631  0.00  0.00    -0.202 N 
HETATM   17  N   UNK N   1      36.554  14.890  13.879  0.00  0.00    -0.202 N 
HETATM   18  C   UNK N   1      36.030  12.367  14.806  0.00  0.00     0.107 A 
ATOM     19  HN  UNK N   1      34.909  12.168  13.089  1.00  0.00     0.183 HD
HETATM   20  C   UNK N   1      36.855  13.210  15.544  0.00  0.00     0.035 A 
HETATM   21  C   UNK N   1      37.108  14.490  15.054  0.00  0.00     0.107 A 
ATOM     22  HN  UNK N   1      36.739  15.831  13.532  1.00  0.00     0.183 HD
ENDBRANCH   4   9
BRANCH   3  23
HETATM   23  C   UNK N   1      33.869  14.927   6.565  0.00  0.00    -0.019 A 
HETATM   24  C   UNK N   1      33.581  13.643   6.077  0.00  0.00     0.029 A 
HETATM   25  C   UNK N   1      34.554  12.922   5.383  0.00  0.00     0.088 A 
HETATM   26  N   UNK N   1      35.795  13.449   5.204  0.00  0.00    -0.375 N 
HETATM   27  C   UNK N   1      36.118  14.673   5.696  0.00  0.00     0.088 A 
ATOM     28  HN  UNK N   1      36.495  12.915   4.690  1.00  0.00     0.164 HD
HETATM   29  C   UNK N   1      35.167  15.422   6.391  0.00  0.00     0.029 A 
ENDBRANCH   3  23
BRANCH   1  30
HETATM   30  C   UNK N   1      29.714  17.564   6.569  0.00  0.00    -0.008 A 
HETATM   31  C   UNK N   1      28.728  18.317   7.231  0.00  0.00     0.014 A 
HETATM   32  C   UNK N   1      27.711  18.944   6.510  0.00  0.00     0.001 A 
HETATM   33  C   UNK N   1      27.674  18.831   5.119  0.00  0.00     0.000 A 
HETATM   34  C   UNK N   1      28.652  18.088   4.450  0.00  0.00     0.001 A 
HETATM   35  C   UNK N   1      29.667  17.452   5.173  0.00  0.00     0.014 A 
ENDBRANCH   1  30
TORSDOF 3
ENDMDL
MODEL 5
REMARK VINA RESULT:      -7.7      3.453      5.736
REMARK  3 active torsions:
REMARK  status: ('A' for Active; 'I' for Inactive)
REMARK    1  A    between atoms: C_4  and  C_7 
REMARK    2  A    between atoms: C_9  and  C_29 
REMARK    3  A    between atoms: C_10  and  N_15 
REMARK       I    between atoms: N_18  and  C_21 
ROOT
HETATM    1  C   UNK N   1      26.035  15.191   2.607  0.00  0.00     0.059 A 
HETATM    2  C   UNK N   1      26.247  16.283   3.435  0.00  0.00     0.048 A 
HETATM    3  C   UNK N   1      27.516  16.582   3.921  0.00  0.00     0.022 A 
HETATM    4  C   UNK N   1      28.582  15.691   3.582  0.00  0.00     0.129 A 
HETATM    5  N   UNK N   1      28.317  14.654   2.733  0.00  0.00    -0.284 N 
ATOM      6  HN  UNK N   1      29.081  14.038   2.456  1.00  0.00     0.188 HD
HETATM    7  N   UNK N   1      27.093  14.418   2.253  0.00  0.00    -0.298 N 
ATOM      8  HN  UNK N   1      26.951  13.641   1.607  1.00  0.00     0.187 HD
ENDROOT
BRANCH   4   9
HETATM    9  N   UNK N   1      29.887  15.776   4.167  0.00  0.00    -0.362 N 
HETATM   10  C   UNK N   1      30.450  14.643   4.843  0.00  0.00     0.145 C 
HETATM   11  C   UNK N   1      31.137  15.099   6.113  0.00  0.00     0.161 C 
HETATM   12  N   UNK N   1      31.857  16.356   5.989  0.00  0.00    -0.214 N 
HETATM   13  C   UNK N   1      31.680  17.281   4.866  0.00  0.00     0.161 C 
HETATM   14  C   UNK N   1      32.746  16.708   7.042  0.00  0.00     0.679 A 
HETATM   15  C   UNK N   1      30.836  16.748   3.700  0.00  0.00     0.145 C 
HETATM   16  N   UNK N   1      32.810  15.930   8.164  0.00  0.00    -0.202 N 
HETATM   17  N   UNK N   1      33.561  17.792   6.928  0.00  0.00    -0.202 N 
HETATM   18  C   UNK N   1      33.671  16.222   9.171  0.00  0.00     0.107 A 
ATOM     19  HN  UNK N   1      32.201  15.116   8.245  1.00  0.00     0.183 HD
HETATM   20  C   UNK N   1      34.518  17.321   9.061  0.00  0.00     0.035 A 
HETATM   21  C   UNK N   1      34.444  18.106   7.911  0.00  0.00     0.107 A 
ATOM     22  HN  UNK N   1      33.508  18.375   6.094  1.00  0.00     0.183 HD
ENDBRANCH   4   9
BRANCH   3  23
HETATM   23  C   UNK N   1      27.648  17.863   4.679  0.00  0.00    -0.019 A 
HETATM   24  C   UNK N   1      27.852  17.838   6.068  0.00  0.00     0.029 A 
HETATM   25  C   UNK N   1      27.890  19.031   6.792  0.00  0.00     0.088 A 
HETATM   26  N   UNK N   1      27.700  20.219   6.158  0.00  0.00    -0.375 N 
HETATM   27  C   UNK N   1      27.462  20.275   4.822  0.00  0.00     0.088 A 
ATOM     28  HN  UNK N   1      27.736  21.084   6.697  1.00  0.00     0.164 HD
HETATM   29  C   UNK N   1      27.422  19.102   4.068  0.00  0.00     0.029 A 
ENDBRANCH   3  23
BRANCH   1  30
HETATM   30  C   UNK N   1      24.673  14.891   2.122  0.00  0.00    -0.008 A 
HETATM   31  C   UNK N   1      23.553  15.350   2.839  0.00  0.00     0.014 A 
HETATM   32  C   UNK N   1      22.261  15.054   2.400  0.00  0.00     0.001 A 
HETATM   33  C   UNK N   1      22.076  14.303   1.239  0.00  0.00     0.000 A 
HETATM   34  C   UNK N   1      23.183  13.845   0.517  0.00  0.00     0.001 A 
HETATM   35  C   UNK N   1      24.478  14.133   0.959  0.00  0.00     0.014 A 
ENDBRANCH   1  30
TORSDOF 3
ENDMDL
MODEL 6
REMARK VINA RESULT:      -7.6      4.439     10.220
REMARK  3 active torsions:
REMARK  status: ('A' for Active; 'I' for Inactive)
REMARK    1  A    between atoms: C_4  and  C_7 
REMARK    2  A    between atoms: C_9  and  C_29 
REMARK    3  A    between atoms: C_10  and  N_15 
REMARK       I    between atoms: N_18  and  C_21 
ROOT
HETATM    1  C   UNK N   1      30.300  17.215   4.398  0.00  0.00     0.059 A 
HETATM    2  C   UNK N   1      29.229  16.373   4.141  0.00  0.00     0.048 A 
HETATM    3  C   UNK N   1      27.942  16.875   3.977  0.00  0.00     0.022 A 
HETATM    4  C   UNK N   1      27.755  18.284   4.140  0.00  0.00     0.129 A 
HETATM    5  N   UNK N   1      28.855  19.064   4.356  0.00  0.00    -0.284 N 
ATOM      6  HN  UNK N   1      28.734  20.074   4.434  1.00  0.00     0.188 HD
HETATM    7  N   UNK N   1      30.083  18.553   4.469  0.00  0.00    -0.298 N 
ATOM      8  HN  UNK N   1      30.874  19.181   4.612  1.00  0.00     0.187 HD
ENDROOT
BRANCH   4   9
HETATM    9  N   UNK N   1      26.463  18.900   4.187  0.00  0.00    -0.362 N 
HETATM   10  C   UNK N   1      25.553  18.592   5.252  0.00  0.00     0.145 C 
HETATM   11  C   UNK N   1      24.156  18.425   4.696  0.00  0.00     0.161 C 
HETATM   12  N   UNK N   1      23.812  19.365   3.641  0.00  0.00    -0.214 N 
HETATM   13  C   UNK N   1      24.802  20.180   2.932  0.00  0.00     0.161 C 
HETATM   14  C   UNK N   1      22.443  19.454   3.263  0.00  0.00     0.679 A 
HETATM   15  C   UNK N   1      26.223  20.147   3.514  0.00  0.00     0.145 C 
HETATM   16  N   UNK N   1      21.533  18.595   3.809  0.00  0.00    -0.202 N 
HETATM   17  N   UNK N   1      22.027  20.411   2.391  0.00  0.00    -0.202 N 
HETATM   18  C   UNK N   1      20.215  18.677   3.493  0.00  0.00     0.107 A 
ATOM     19  HN  UNK N   1      21.847  17.881   4.466  1.00  0.00     0.183 HD
HETATM   20  C   UNK N   1      19.775  19.658   2.611  0.00  0.00     0.035 A 
HETATM   21  C   UNK N   1      20.714  20.530   2.062  0.00  0.00     0.107 A 
ATOM     22  HN  UNK N   1      22.708  21.048   1.978  1.00  0.00     0.183 HD
ENDBRANCH   4   9
BRANCH   3  23
HETATM   23  C   UNK N   1      26.898  15.892   3.558  0.00  0.00    -0.019 A 
HETATM   24  C   UNK N   1      26.447  15.871   2.228  0.00  0.00     0.029 A 
HETATM   25  C   UNK N   1      25.412  15.012   1.853  0.00  0.00     0.088 A 
HETATM   26  N   UNK N   1      24.817  14.216   2.781  0.00  0.00    -0.375 N 
HETATM   27  C   UNK N   1      25.204  14.239   4.082  0.00  0.00     0.088 A 
ATOM     28  HN  UNK N   1      24.065  13.589   2.493  1.00  0.00     0.164 HD
HETATM   29  C   UNK N   1      26.238  15.082   4.490  0.00  0.00     0.029 A 
ENDBRANCH   3  23
BRANCH   1  30
HETATM   30  C   UNK N   1      31.651  16.648   4.584  0.00  0.00    -0.008 A 
HETATM   31  C   UNK N   1      31.994  15.429   3.972  0.00  0.00     0.014 A 
HETATM   32  C   UNK N   1      33.262  14.875   4.159  0.00  0.00     0.001 A 
HETATM   33  C   UNK N   1      34.200  15.536   4.953  0.00  0.00     0.000 A 
HETATM   34  C   UNK N   1      33.870  16.750   5.563  0.00  0.00     0.001 A 
HETATM   35  C   UNK N   1      32.598  17.303   5.384  0.00  0.00     0.014 A 
ENDBRANCH   1  30
TORSDOF 3
ENDMDL
MODEL 7
REMARK VINA RESULT:      -7.5      2.896      4.831
REMARK  3 active torsions:
REMARK  status: ('A' for Active; 'I' for Inactive)
REMARK    1  A    between atoms: C_4  and  C_7 
REMARK    2  A    between atoms: C_9  and  C_29 
REMARK    3  A    between atoms: C_10  and  N_15 
REMARK       I    between atoms: N_18  and  C_21 
ROOT
HETATM    1  C   UNK N   1      24.608  18.688   4.451  0.00  0.00     0.059 A 
HETATM    2  C   UNK N   1      25.308  17.568   4.029  0.00  0.00     0.048 A 
HETATM    3  C   UNK N   1      26.530  17.227   4.600  0.00  0.00     0.022 A 
HETATM    4  C   UNK N   1      27.065  18.103   5.596  0.00  0.00     0.129 A 
HETATM    5  N   UNK N   1      26.310  19.170   5.994  0.00  0.00    -0.284 N 
ATOM      6  HN  UNK N   1      26.668  19.777   6.732  1.00  0.00     0.188 HD
HETATM    7  N   UNK N   1      25.122  19.447   5.452  0.00  0.00    -0.298 N 
ATOM      8  HN  UNK N   1      24.589  20.246   5.799  1.00  0.00     0.187 HD
ENDROOT
BRANCH   4   9
HETATM    9  N   UNK N   1      28.391  17.972   6.121  0.00  0.00    -0.362 N 
HETATM   10  C   UNK N   1      29.519  17.938   5.236  0.00  0.00     0.145 C 
HETATM   11  C   UNK N   1      30.496  16.879   5.698  0.00  0.00     0.161 C 
HETATM   12  N   UNK N   1      30.650  16.791   7.141  0.00  0.00    -0.214 N 
HETATM   13  C   UNK N   1      29.724  17.414   8.092  0.00  0.00     0.161 C 
HETATM   14  C   UNK N   1      31.739  16.023   7.638  0.00  0.00     0.679 A 
HETATM   15  C   UNK N   1      28.682  18.358   7.475  0.00  0.00     0.145 C 
HETATM   16  N   UNK N   1      32.521  15.315   6.770  0.00  0.00    -0.202 N 
HETATM   17  N   UNK N   1      32.032  16.015   8.967  0.00  0.00    -0.202 N 
HETATM   18  C   UNK N   1      33.586  14.599   7.211  0.00  0.00     0.107 A 
ATOM     19  HN  UNK N   1      32.301  15.325   5.774  1.00  0.00     0.183 HD
HETATM   20  C   UNK N   1      33.904  14.592   8.565  0.00  0.00     0.035 A 
HETATM   21  C   UNK N   1      33.099  15.320   9.441  0.00  0.00     0.107 A 
ATOM     22  HN  UNK N   1      31.444  16.538   9.615  1.00  0.00     0.183 HD
ENDBRANCH   4   9
BRANCH   3  23
HETATM   23  C   UNK N   1      27.118  15.922   4.170  0.00  0.00    -0.019 A 
HETATM   24  C   UNK N   1      27.537  15.744   2.841  0.00  0.00     0.029 A 
HETATM   25  C   UNK N   1      28.007  14.500   2.416  0.00  0.00     0.088 A 
HETATM   26  N   UNK N   1      28.033  13.449   3.278  0.00  0.00    -0.375 N 
HETATM   27  C   UNK N   1      27.600  13.578   4.559  0.00  0.00     0.088 A 
ATOM     28  HN  UNK N   1      28.383  12.548   2.957  1.00  0.00     0.164 HD
HETATM   29  C   UNK N   1      27.127  14.808   5.018  0.00  0.00     0.029 A 
ENDBRANCH   3  23
BRANCH   1  30
HETATM   30  C   UNK N   1      23.322  19.033   3.813  0.00  0.00    -0.008 A 
HETATM   31  C   UNK N   1      23.202  20.216   3.062  0.00  0.00     0.014 A 
HETATM   32  C   UNK N   1      21.985  20.561   2.472  0.00  0.00     0.001 A 
HETATM   33  C   UNK N   1      20.878  19.724   2.621  0.00  0.00     0.000 A 
HETATM   34  C   UNK N   1      20.988  18.543   3.362  0.00  0.00     0.001 A 
HETATM   35  C   UNK N   1      22.204  18.200   3.961  0.00  0.00     0.014 A 
ENDBRANCH   1  30
TORSDOF 3
ENDMDL
MODEL 8
REMARK VINA RESULT:      -7.4      6.043      8.896
REMARK  3 active torsions:
REMARK  status: ('A' for Active; 'I' for Inactive)
REMARK    1  A    between atoms: C_4  and  C_7 
REMARK    2  A    between atoms: C_9  and  C_29 
REMARK    3  A    between atoms: C_10  and  N_15 
REMARK       I    between atoms: N_18  and  C_21 
ROOT
HETATM    1  C   UNK N   1      23.484  13.765   8.373  0.00  0.00     0.059 A 
HETATM    2  C   UNK N   1      22.994  14.633   7.409  0.00  0.00     0.048 A 
HETATM    3  C   UNK N   1      23.818  15.136   6.407  0.00  0.00     0.022 A 
HETATM    4  C   UNK N   1      25.201  14.772   6.442  0.00  0.00     0.129 A 
HETATM    5  N   UNK N   1      25.615  13.884   7.394  0.00  0.00    -0.284 N 
ATOM      6  HN  UNK N   1      26.591  13.590   7.400  1.00  0.00     0.188 HD
HETATM    7  N   UNK N   1      24.787  13.390   8.318  0.00  0.00    -0.298 N 
ATOM      8  HN  UNK N   1      25.142  12.716   8.997  1.00  0.00     0.187 HD
ENDROOT
BRANCH   4   9
HETATM    9  N   UNK N   1      26.187  15.367   5.590  0.00  0.00    -0.362 N 
HETATM   10  C   UNK N   1      26.535  14.747   4.345  0.00  0.00     0.145 C 
HETATM   11  C   UNK N   1      28.035  14.803   4.151  0.00  0.00     0.161 C 
HETATM   12  N   UNK N   1      28.652  16.045   4.590  0.00  0.00    -0.214 N 
HETATM   13  C   UNK N   1      27.976  17.025   5.443  0.00  0.00     0.161 C 
HETATM   14  C   UNK N   1      29.997  16.283   4.193  0.00  0.00     0.679 A 
HETATM   15  C   UNK N   1      26.480  16.771   5.682  0.00  0.00     0.145 C 
HETATM   16  N   UNK N   1      30.689  15.313   3.526  0.00  0.00    -0.202 N 
HETATM   17  N   UNK N   1      30.590  17.483   4.441  0.00  0.00    -0.202 N 
HETATM   18  C   UNK N   1      31.963  15.524   3.106  0.00  0.00     0.107 A 
ATOM     19  HN  UNK N   1      30.242  14.416   3.338  1.00  0.00     0.183 HD
HETATM   20  C   UNK N   1      32.576  16.750   3.342  0.00  0.00     0.035 A 
HETATM   21  C   UNK N   1      31.859  17.733   4.024  0.00  0.00     0.107 A 
ATOM     22  HN  UNK N   1      30.075  18.204   4.945  1.00  0.00     0.183 HD
ENDBRANCH   4   9
BRANCH   3  23
HETATM   23  C   UNK N   1      23.147  15.941   5.342  0.00  0.00    -0.019 A 
HETATM   24  C   UNK N   1      22.694  17.240   5.623  0.00  0.00     0.029 A 
HETATM   25  C   UNK N   1      21.992  17.962   4.656  0.00  0.00     0.088 A 
HETATM   26  N   UNK N   1      21.718  17.398   3.450  0.00  0.00    -0.375 N 
HETATM   27  C   UNK N   1      22.108  16.130   3.160  0.00  0.00     0.088 A 
ATOM     28  HN  UNK N   1      21.209  17.937   2.750  1.00  0.00     0.164 HD
HETATM   29  C   UNK N   1      22.816  15.382   4.102  0.00  0.00     0.029 A 
ENDBRANCH   3  23
BRANCH   1  30
HETATM   30  C   UNK N   1      22.587  13.263   9.433  0.00  0.00    -0.008 A 
HETATM   31  C   UNK N   1      23.095  12.443  10.456  0.00  0.00     0.014 A 
HETATM   32  C   UNK N   1      22.251  11.946  11.451  0.00  0.00     0.001 A 
HETATM   33  C   UNK N   1      20.893  12.270  11.436  0.00  0.00     0.000 A 
HETATM   34  C   UNK N   1      20.379  13.087  10.425  0.00  0.00     0.001 A 
HETATM   35  C   UNK N   1      21.222  13.579   9.423  0.00  0.00     0.014 A 
ENDBRANCH   1  30
TORSDOF 3
ENDMDL
MODEL 9
REMARK VINA RESULT:      -7.3      5.076     11.477
REMARK  3 active torsions:
REMARK  status: ('A' for Active; 'I' for Inactive)
REMARK    1  A    between atoms: C_4  and  C_7 
REMARK    2  A    between atoms: C_9  and  C_29 
REMARK    3  A    between atoms: C_10  and  N_15 
REMARK       I    between atoms: N_18  and  C_21 
ROOT
HETATM    1  C   UNK N   1      35.551  11.531  16.258  0.00  0.00     0.059 A 
HETATM    2  C   UNK N   1      35.258  10.836  15.095  0.00  0.00     0.048 A 
HETATM    3  C   UNK N   1      35.581  11.357  13.845  0.00  0.00     0.022 A 
HETATM    4  C   UNK N   1      36.174  12.658  13.803  0.00  0.00     0.129 A 
HETATM    5  N   UNK N   1      36.472  13.275  14.984  0.00  0.00    -0.284 N 
ATOM      6  HN  UNK N   1      36.930  14.186  14.961  1.00  0.00     0.188 HD
HETATM    7  N   UNK N   1      36.183  12.729  16.168  0.00  0.00    -0.298 N 
ATOM      8  HN  UNK N   1      36.442  13.223  17.023  1.00  0.00     0.187 HD
ENDROOT
BRANCH   4   9
HETATM    9  N   UNK N   1      36.379  13.383  12.585  0.00  0.00    -0.362 N 
HETATM   10  C   UNK N   1      35.962  14.751  12.479  0.00  0.00     0.145 C 
HETATM   11  C   UNK N   1      35.314  14.983  11.132  0.00  0.00     0.161 C 
HETATM   12  N   UNK N   1      35.957  14.290  10.027  0.00  0.00    -0.214 N 
HETATM   13  C   UNK N   1      36.926  13.206  10.209  0.00  0.00     0.161 C 
HETATM   14  C   UNK N   1      35.584  14.671   8.709  0.00  0.00     0.679 A 
HETATM   15  C   UNK N   1      37.395  12.976  11.653  0.00  0.00     0.145 C 
HETATM   16  N   UNK N   1      34.575  15.573   8.524  0.00  0.00    -0.202 N 
HETATM   17  N   UNK N   1      36.246  14.172   7.630  0.00  0.00    -0.202 N 
HETATM   18  C   UNK N   1      34.219  15.980   7.279  0.00  0.00     0.107 A 
ATOM     19  HN  UNK N   1      34.082  15.948   9.334  1.00  0.00     0.183 HD
HETATM   20  C   UNK N   1      34.896  15.486   6.168  0.00  0.00     0.035 A 
HETATM   21  C   UNK N   1      35.924  14.567   6.371  0.00  0.00     0.107 A 
ATOM     22  HN  UNK N   1      36.995  13.494   7.768  1.00  0.00     0.183 HD
ENDBRANCH   4   9
BRANCH   3  23
HETATM   23  C   UNK N   1      35.353  10.456  12.675  0.00  0.00    -0.019 A 
HETATM   24  C   UNK N   1      36.334   9.522  12.306  0.00  0.00     0.029 A 
HETATM   25  C   UNK N   1      36.161   8.738  11.164  0.00  0.00     0.088 A 
HETATM   26  N   UNK N   1      35.055   8.898  10.389  0.00  0.00    -0.375 N 
HETATM   27  C   UNK N   1      34.105   9.818  10.697  0.00  0.00     0.088 A 
ATOM     28  HN  UNK N   1      34.938   8.315   9.560  1.00  0.00     0.164 HD
HETATM   29  C   UNK N   1      34.245  10.614  11.835  0.00  0.00     0.029 A 
ENDBRANCH   3  23
BRANCH   1  30
HETATM   30  C   UNK N   1      35.179  10.959  17.568  0.00  0.00    -0.008 A 
HETATM   31  C   UNK N   1      35.422  11.684  18.748  0.00  0.00     0.014 A 
HETATM   32  C   UNK N   1      35.093  11.143  19.993  0.00  0.00     0.001 A 
HETATM   33  C   UNK N   1      34.511   9.877  20.068  0.00  0.00     0.000 A 
HETATM   34  C   UNK N   1      34.261   9.150  18.900  0.00  0.00     0.001 A 
HETATM   35  C   UNK N   1      34.598   9.686  17.654  0.00  0.00     0.014 A 
ENDBRANCH   1  30
TORSDOF 3
ENDMDL
