MODEL 1
REMARK VINA RESULT:      -9.4      0.000      0.000
REMARK  13 active torsions:
REMARK  status: ('A' for Active; 'I' for Inactive)
REMARK    1  A    between atoms: C_2  and  N_4 
REMARK    2  A    between atoms: N_4  and  C_5 
REMARK    3  A    between atoms: C_8  and  C_11 
REMARK    4  A    between atoms: C_13  and  O_25 
REMARK    5  A    between atoms: C_17  and  O_23 
REMARK    6  A    between atoms: C_26  and  O_25 
REMARK    7  A    between atoms: C_32  and  P_56 
REMARK    8  A    between atoms: C_42  and  N_47 
REMARK       I    between atoms: N_47  and  C_48 
REMARK    9  A    between atoms: C_48  and  O_50 
REMARK   10  A    between atoms: O_50  and  C_51 
REMARK   11  A    between atoms: P_56  and  C_58 
REMARK   12  A    between atoms: P_56  and  O_67 
REMARK   13  A    between atoms: C_58  and  C_59 
ROOT
HETATM    1  C   UNK N   1      27.584  16.749   4.855  0.00  0.00     0.149 C 
HETATM    2  C   UNK N   1      28.659  17.206   3.873  0.00  0.00     0.069 C 
HETATM    3  C   UNK N   1      29.629  16.050   4.035  0.00  0.00     0.181 C 
HETATM    4  C   UNK N   1      30.737  15.796   3.040  0.00  0.00     0.241 C 
HETATM    5  O   UNK N   1      30.753  16.464   2.018  0.00  0.00    -0.271 OA
HETATM    6  N   UNK N   1      31.783  14.953   3.271  0.00  0.00    -0.341 N 
HETATM    7  C   UNK N   1      31.992  14.029   4.380  0.00  0.00     0.109 A 
HETATM    8  C   UNK N   1      31.022  12.896   4.479  0.00  0.00     0.049 A 
HETATM    9  C   UNK N   1      32.345  12.674   3.764  0.00  0.00     0.026 A 
HETATM   10  C   UNK N   1      32.888  11.479   4.518  0.00  0.00     0.008 C 
HETATM   11  C   UNK N   1      32.694  10.218   3.658  0.00  0.00     0.000 C 
HETATM   12  C   UNK N   1      31.230   9.968   3.269  0.00  0.00     0.000 C 
HETATM   13  C   UNK N   1      30.856  10.768   2.026  0.00  0.00     0.000 C 
HETATM   14  C   UNK N   1      29.363  11.043   1.992  0.00  0.00     0.000 C 
HETATM   15  C   UNK N   1      29.073  12.241   1.094  0.00  0.00     0.002 C 
HETATM   16  C   UNK N   1      29.260  13.546   1.854  0.00  0.00     0.035 C 
HETATM   17  C   UNK N   1      28.092  13.747   2.796  0.00  0.00     0.179 C 
HETATM   18  C   UNK N   1      28.353  13.900   4.268  0.00  0.00     0.243 C 
HETATM   19  O   UNK N   1      27.783  13.121   5.018  0.00  0.00    -0.271 OA
HETATM   20  N   UNK N   1      28.929  15.033   4.787  0.00  0.00    -0.334 N 
HETATM   21  C   UNK N   1      28.154  15.689   5.793  0.00  0.00     0.159 C 
HETATM   22  H   UNK N   1      32.498  14.971   2.594  0.00  0.00     0.163 HD
ENDROOT
BRANCH   1  23
HETATM   23  O   UNK N   1      26.609  17.635   5.229  0.00  0.00    -0.343 OA
BRANCH  23  24
HETATM   24  C   UNK N   1      25.284  17.393   5.207  0.00  0.00     0.084 A 
HETATM   25  C   UNK N   1      24.720  16.304   5.892  0.00  0.00     0.069 A 
HETATM   26  C   UNK N   1      23.340  16.093   5.817  0.00  0.00     0.062 A 
HETATM   27  N   UNK N   1      22.565  16.951   5.101  0.00  0.00    -0.352 N 
HETATM   28  C   UNK N   1      23.074  18.026   4.448  0.00  0.00     0.070 A 
ATOM     29  HN  UNK N   1      21.560  16.780   5.054  1.00  0.00     0.166 HD
HETATM   30  C   UNK N   1      22.220  18.893   3.743  0.00  0.00     0.095 A 
HETATM   31  C   UNK N   1      24.457  18.265   4.488  0.00  0.00     0.026 A 
HETATM   32  C   UNK N   1      22.773  20.023   3.067  0.00  0.00     0.092 A 
HETATM   33 Cl   UNK N   1      20.491  18.522   3.758  0.00  0.00    -0.079 Cl
HETATM   34  C   UNK N   1      24.153  20.243   3.134  0.00  0.00     0.039 A 
HETATM   35  C   UNK N   1      24.989  19.377   3.833  0.00  0.00     0.019 A 
BRANCH  26  36
HETATM   36  C   UNK N   1      22.687  15.001   6.550  0.00  0.00     0.067 A 
HETATM   37  N   UNK N   1      23.364  14.149   7.403  0.00  0.00    -0.335 N 
HETATM   38  C   UNK N   1      22.514  13.311   8.044  0.00  0.00     0.145 A 
ATOM     39  HN  UNK N   1      24.377  14.151   7.533  1.00  0.00     0.168 HD
HETATM   40  S   UNK N   1      20.966  13.613   7.562  0.00  0.00    -0.064 SA
HETATM   41  C   UNK N   1      21.288  14.832   6.500  0.00  0.00     0.085 A 
BRANCH  38  42
HETATM   42  N   UNK N   1      22.910  12.436   9.087  0.00  0.00    -0.367 N 
HETATM   43  H   UNK N   1      23.369  11.597   8.854  0.00  0.00     0.162 HD
BRANCH  42  44
HETATM   44  C   UNK N   1      22.664  12.734  10.482  0.00  0.00     0.075 C 
HETATM   45  C   UNK N   1      23.699  12.040  11.340  0.00  0.00     0.032 C 
HETATM   46  C   UNK N   1      21.278  12.302  10.925  0.00  0.00     0.032 C 
ENDBRANCH  42  44
ENDBRANCH  38  42
ENDBRANCH  26  36
BRANCH  32  47
HETATM   47  O   UNK N   1      22.048  20.918   2.344  0.00  0.00    -0.354 OA
HETATM   48  C   UNK N   1      21.173  20.633   1.325  0.00  0.00     0.210 C 
ENDBRANCH  32  47
ENDBRANCH  23  24
ENDBRANCH   1  23
BRANCH  17  49
HETATM   49  N   UNK N   1      27.209  14.820   2.403  0.00  0.00    -0.324 N 
HETATM   50  C   UNK N   1      25.855  14.650   2.346  0.00  0.00     0.361 C 
HETATM   51  O   UNK N   1      25.129  15.623   2.319  0.00  0.00    -0.238 OA
HETATM   52  H   UNK N   1      27.592  15.697   2.172  0.00  0.00     0.165 HD
BRANCH  50  53
HETATM   53  O   UNK N   1      25.298  13.406   2.334  0.00  0.00    -0.299 OA
BRANCH  53  54
HETATM   54  C   UNK N   1      25.159  12.693   1.165  0.00  0.00     0.133 C 
HETATM   55  C   UNK N   1      25.178  11.208   1.408  0.00  0.00     0.032 C 
HETATM   56  C   UNK N   1      24.447  10.644   0.206  0.00  0.00     0.002 C 
HETATM   57  C   UNK N   1      23.437  11.703  -0.207  0.00  0.00     0.002 C 
HETATM   58  C   UNK N   1      23.793  12.957   0.563  0.00  0.00     0.032 C 
ENDBRANCH  53  54
ENDBRANCH  50  53
ENDBRANCH  17  49
BRANCH   7  59
HETATM   59  P   UNK N   1      33.032  14.575   5.875  0.00  0.00     0.131 P 
HETATM   60  O   UNK N   1      32.892  15.978   5.229  0.00  0.00    -0.672 OA
BRANCH  59  61
HETATM   61  C   UNK N   1      32.439  15.555   7.354  0.00  0.00     0.141 C 
BRANCH  61  62
HETATM   62  C   UNK N   1      33.363  15.732   8.524  0.00  0.00     0.028 A 
HETATM   63  C   UNK N   1      33.363  14.739   9.520  0.00  0.00     0.126 A 
HETATM   64  C   UNK N   1      34.151  14.889  10.663  0.00  0.00     0.043 A 
HETATM   65  F   UNK N   1      32.575  13.641   9.395  0.00  0.00    -0.205 F 
HETATM   66  C   UNK N   1      34.946  16.022  10.823  0.00  0.00     0.006 A 
HETATM   67  C   UNK N   1      34.956  17.013   9.839  0.00  0.00     0.043 A 
HETATM   68  C   UNK N   1      34.168  16.878   8.694  0.00  0.00     0.126 A 
HETATM   69  F   UNK N   1      34.194  17.869   7.773  0.00  0.00    -0.205 F 
ENDBRANCH  61  62
ENDBRANCH  59  61
BRANCH  59  70
HETATM   70  O   UNK N   1      31.440  14.224   6.454  0.00  0.00    -0.347 OA
HETATM   71  H   UNK N   1      31.144  13.310   6.589  0.00  0.00     0.218 HD
ENDBRANCH  59  70
ENDBRANCH   7  59
TORSDOF 13
ENDMDL
MODEL 2
REMARK VINA RESULT:      -9.0      2.809      4.122
REMARK  13 active torsions:
REMARK  status: ('A' for Active; 'I' for Inactive)
REMARK    1  A    between atoms: C_2  and  N_4 
REMARK    2  A    between atoms: N_4  and  C_5 
REMARK    3  A    between atoms: C_8  and  C_11 
REMARK    4  A    between atoms: C_13  and  O_25 
REMARK    5  A    between atoms: C_17  and  O_23 
REMARK    6  A    between atoms: C_26  and  O_25 
REMARK    7  A    between atoms: C_32  and  P_56 
REMARK    8  A    between atoms: C_42  and  N_47 
REMARK       I    between atoms: N_47  and  C_48 
REMARK    9  A    between atoms: C_48  and  O_50 
REMARK   10  A    between atoms: O_50  and  C_51 
REMARK   11  A    between atoms: P_56  and  C_58 
REMARK   12  A    between atoms: P_56  and  O_67 
REMARK   13  A    between atoms: C_58  and  C_59 
ROOT
HETATM    1  C   UNK N   1      30.416  16.658   7.117  0.00  0.00     0.149 C 
HETATM    2  C   UNK N   1      31.634  17.539   6.852  0.00  0.00     0.069 C 
HETATM    3  C   UNK N   1      32.696  16.458   6.793  0.00  0.00     0.181 C 
HETATM    4  C   UNK N   1      34.067  16.719   6.213  0.00  0.00     0.241 C 
HETATM    5  O   UNK N   1      34.260  17.790   5.662  0.00  0.00    -0.271 OA
HETATM    6  N   UNK N   1      35.130  15.881   6.377  0.00  0.00    -0.341 N 
HETATM    7  C   UNK N   1      35.166  14.545   6.961  0.00  0.00     0.109 A 
HETATM    8  C   UNK N   1      34.410  13.487   6.224  0.00  0.00     0.049 A 
HETATM    9  C   UNK N   1      35.899  13.647   5.963  0.00  0.00     0.026 A 
HETATM   10  C   UNK N   1      36.398  12.246   6.241  0.00  0.00     0.008 C 
HETATM   11  C   UNK N   1      36.667  11.538   4.901  0.00  0.00     0.000 C 
HETATM   12  C   UNK N   1      35.436  11.482   3.985  0.00  0.00     0.000 C 
HETATM   13  C   UNK N   1      35.301  12.770   3.180  0.00  0.00     0.000 C 
HETATM   14  C   UNK N   1      33.855  13.008   2.784  0.00  0.00     0.000 C 
HETATM   15  C   UNK N   1      33.636  14.484   2.470  0.00  0.00     0.002 C 
HETATM   16  C   UNK N   1      33.381  15.277   3.744  0.00  0.00     0.035 C 
HETATM   17  C   UNK N   1      31.977  14.993   4.236  0.00  0.00     0.179 C 
HETATM   18  C   UNK N   1      31.782  14.435   5.618  0.00  0.00     0.243 C 
HETATM   19  O   UNK N   1      31.161  13.387   5.712  0.00  0.00    -0.271 OA
HETATM   20  N   UNK N   1      31.991  15.196   6.741  0.00  0.00    -0.334 N 
HETATM   21  C   UNK N   1      30.866  15.289   7.618  0.00  0.00     0.159 C 
HETATM   22  H   UNK N   1      35.993  16.226   6.054  0.00  0.00     0.163 HD
ENDROOT
BRANCH   1  23
HETATM   23  O   UNK N   1      29.243  17.249   7.502  0.00  0.00    -0.343 OA
BRANCH  23  24
HETATM   24  C   UNK N   1      28.023  16.956   7.010  0.00  0.00     0.084 A 
HETATM   25  C   UNK N   1      27.363  15.759   7.334  0.00  0.00     0.069 A 
HETATM   26  C   UNK N   1      26.106  15.502   6.779  0.00  0.00     0.062 A 
HETATM   27  N   UNK N   1      25.535  16.417   5.950  0.00  0.00    -0.352 N 
HETATM   28  C   UNK N   1      26.135  17.593   5.636  0.00  0.00     0.070 A 
ATOM     29  HN  UNK N   1      24.619  16.212   5.551  1.00  0.00     0.166 HD
HETATM   30  C   UNK N   1      25.484  18.513   4.793  0.00  0.00     0.095 A 
HETATM   31  C   UNK N   1      27.402  17.883   6.164  0.00  0.00     0.026 A 
HETATM   32  C   UNK N   1      26.128  19.749   4.478  0.00  0.00     0.092 A 
HETATM   33 Cl   UNK N   1      23.885  18.070   4.186  0.00  0.00    -0.079 Cl
HETATM   34  C   UNK N   1      27.387  20.016   5.028  0.00  0.00     0.039 A 
HETATM   35  C   UNK N   1      28.021  19.098   5.859  0.00  0.00     0.019 A 
BRANCH  26  36
HETATM   36  C   UNK N   1      25.347  14.291   7.117  0.00  0.00     0.067 A 
HETATM   37  N   UNK N   1      25.262  13.784   8.400  0.00  0.00    -0.335 N 
HETATM   38  C   UNK N   1      24.405  12.736   8.463  0.00  0.00     0.145 A 
ATOM     39  HN  UNK N   1      25.780  14.152   9.199  1.00  0.00     0.168 HD
HETATM   40  S   UNK N   1      23.775  12.442   6.967  0.00  0.00    -0.064 SA
HETATM   41  C   UNK N   1      24.562  13.636   6.146  0.00  0.00     0.085 A 
BRANCH  38  42
HETATM   42  N   UNK N   1      24.008  12.117   9.675  0.00  0.00    -0.367 N 
HETATM   43  H   UNK N   1      24.678  11.617  10.195  0.00  0.00     0.162 HD
BRANCH  42  44
HETATM   44  C   UNK N   1      22.651  12.195  10.174  0.00  0.00     0.075 C 
HETATM   45  C   UNK N   1      22.093  13.576   9.914  0.00  0.00     0.032 C 
HETATM   46  C   UNK N   1      22.568  11.895  11.659  0.00  0.00     0.032 C 
ENDBRANCH  42  44
ENDBRANCH  38  42
ENDBRANCH  26  36
BRANCH  32  47
HETATM   47  O   UNK N   1      25.603  20.704   3.664  0.00  0.00    -0.354 OA
HETATM   48  C   UNK N   1      25.264  20.560   2.342  0.00  0.00     0.210 C 
ENDBRANCH  32  47
ENDBRANCH  23  24
ENDBRANCH   1  23
BRANCH  17  49
HETATM   49  N   UNK N   1      31.076  16.112   4.093  0.00  0.00    -0.324 N 
HETATM   50  C   UNK N   1      29.932  16.023   3.353  0.00  0.00     0.361 C 
HETATM   51  O   UNK N   1      29.056  16.850   3.499  0.00  0.00    -0.238 OA
HETATM   52  H   UNK N   1      31.290  16.962   4.543  0.00  0.00     0.165 HD
BRANCH  50  53
HETATM   53  O   UNK N   1      29.746  15.009   2.460  0.00  0.00    -0.299 OA
BRANCH  53  54
HETATM   54  C   UNK N   1      28.831  14.007   2.693  0.00  0.00     0.133 C 
HETATM   55  C   UNK N   1      29.480  12.650   2.716  0.00  0.00     0.032 C 
HETATM   56  C   UNK N   1      28.519  11.813   3.536  0.00  0.00     0.002 C 
HETATM   57  C   UNK N   1      27.870  12.766   4.527  0.00  0.00     0.002 C 
HETATM   58  C   UNK N   1      28.240  14.165   4.080  0.00  0.00     0.032 C 
ENDBRANCH  53  54
ENDBRANCH  50  53
ENDBRANCH  17  49
BRANCH   7  59
HETATM   59  P   UNK N   1      35.635  14.333   8.792  0.00  0.00     0.131 P 
HETATM   60  O   UNK N   1      35.261  15.836   8.872  0.00  0.00    -0.672 OA
BRANCH  59  61
HETATM   61  C   UNK N   1      34.465  14.297  10.250  0.00  0.00     0.141 C 
BRANCH  61  62
HETATM   62  C   UNK N   1      34.986  13.854  11.586  0.00  0.00     0.028 A 
HETATM   63  C   UNK N   1      35.635  14.809  12.390  0.00  0.00     0.126 A 
HETATM   64  C   UNK N   1      36.201  14.434  13.611  0.00  0.00     0.043 A 
HETATM   65  F   UNK N   1      35.745  16.096  11.973  0.00  0.00    -0.205 F 
HETATM   66  C   UNK N   1      36.122  13.111  14.043  0.00  0.00     0.006 A 
HETATM   67  C   UNK N   1      35.479  12.156  13.254  0.00  0.00     0.043 A 
HETATM   68  C   UNK N   1      34.914  12.516  12.029  0.00  0.00     0.126 A 
HETATM   69  F   UNK N   1      34.313  11.556  11.288  0.00  0.00    -0.205 F 
ENDBRANCH  61  62
ENDBRANCH  59  61
BRANCH  59  70
HETATM   70  O   UNK N   1      34.117  13.539   8.552  0.00  0.00    -0.347 OA
HETATM   71  H   UNK N   1      33.321  14.038   8.311  0.00  0.00     0.218 HD
ENDBRANCH  59  70
ENDBRANCH   7  59
TORSDOF 13
ENDMDL
MODEL 3
REMARK VINA RESULT:      -8.7      5.009     10.735
REMARK  13 active torsions:
REMARK  status: ('A' for Active; 'I' for Inactive)
REMARK    1  A    between atoms: C_2  and  N_4 
REMARK    2  A    between atoms: N_4  and  C_5 
REMARK    3  A    between atoms: C_8  and  C_11 
REMARK    4  A    between atoms: C_13  and  O_25 
REMARK    5  A    between atoms: C_17  and  O_23 
REMARK    6  A    between atoms: C_26  and  O_25 
REMARK    7  A    between atoms: C_32  and  P_56 
REMARK    8  A    between atoms: C_42  and  N_47 
REMARK       I    between atoms: N_47  and  C_48 
REMARK    9  A    between atoms: C_48  and  O_50 
REMARK   10  A    between atoms: O_50  and  C_51 
REMARK   11  A    between atoms: P_56  and  C_58 
REMARK   12  A    between atoms: P_56  and  O_67 
REMARK   13  A    between atoms: C_58  and  C_59 
ROOT
HETATM    1  C   UNK N   1      33.106  13.944   3.491  0.00  0.00     0.149 C 
HETATM    2  C   UNK N   1      32.990  15.367   2.954  0.00  0.00     0.069 C 
HETATM    3  C   UNK N   1      31.852  15.856   3.831  0.00  0.00     0.181 C 
HETATM    4  C   UNK N   1      31.531  17.326   3.973  0.00  0.00     0.241 C 
HETATM    5  O   UNK N   1      32.300  18.130   3.472  0.00  0.00    -0.271 OA
HETATM    6  N   UNK N   1      30.376  17.798   4.522  0.00  0.00    -0.341 N 
HETATM    7  C   UNK N   1      29.318  17.067   5.208  0.00  0.00     0.109 A 
HETATM    8  C   UNK N   1      29.700  16.422   6.501  0.00  0.00     0.049 A 
HETATM    9  C   UNK N   1      29.058  17.800   6.525  0.00  0.00     0.026 A 
HETATM   10  C   UNK N   1      27.884  17.561   7.450  0.00  0.00     0.008 C 
HETATM   11  C   UNK N   1      28.210  18.152   8.833  0.00  0.00     0.000 C 
HETATM   12  C   UNK N   1      29.490  17.574   9.454  0.00  0.00     0.000 C 
HETATM   13  C   UNK N   1      30.722  18.313   8.942  0.00  0.00     0.000 C 
HETATM   14  C   UNK N   1      31.951  17.424   9.013  0.00  0.00     0.000 C 
HETATM   15  C   UNK N   1      33.018  17.932   8.049  0.00  0.00     0.002 C 
HETATM   16  C   UNK N   1      32.768  17.415   6.640  0.00  0.00     0.035 C 
HETATM   17  C   UNK N   1      33.152  15.952   6.570  0.00  0.00     0.179 C 
HETATM   18  C   UNK N   1      32.121  14.941   6.154  0.00  0.00     0.243 C 
HETATM   19  O   UNK N   1      31.905  14.017   6.924  0.00  0.00    -0.271 OA
HETATM   20  N   UNK N   1      31.672  14.856   4.859  0.00  0.00    -0.334 N 
HETATM   21  C   UNK N   1      31.837  13.572   4.254  0.00  0.00     0.159 C 
HETATM   22  H   UNK N   1      30.238  18.770   4.443  0.00  0.00     0.163 HD
ENDROOT
BRANCH   1  23
HETATM   23  O   UNK N   1      33.859  13.034   2.799  0.00  0.00    -0.343 OA
BRANCH  23  24
HETATM   24  C   UNK N   1      33.582  12.568   1.565  0.00  0.00     0.084 A 
HETATM   25  C   UNK N   1      32.460  11.761   1.315  0.00  0.00     0.069 A 
HETATM   26  C   UNK N   1      32.234  11.292   0.017  0.00  0.00     0.062 A 
HETATM   27  N   UNK N   1      33.089  11.637  -0.983  0.00  0.00    -0.352 N 
HETATM   28  C   UNK N   1      34.169  12.434  -0.779  0.00  0.00     0.070 A 
ATOM     29  HN  UNK N   1      32.912  11.283  -1.922  1.00  0.00     0.166 HD
HETATM   30  C   UNK N   1      35.005  12.778  -1.857  0.00  0.00     0.095 A 
HETATM   31  C   UNK N   1      34.437  12.915   0.512  0.00  0.00     0.026 A 
HETATM   32  C   UNK N   1      36.132  13.623  -1.626  0.00  0.00     0.092 A 
HETATM   33 Cl   UNK N   1      34.583  12.138  -3.450  0.00  0.00    -0.079 Cl
HETATM   34  C   UNK N   1      36.368  14.098  -0.330  0.00  0.00     0.039 A 
HETATM   35  C   UNK N   1      35.535  13.750   0.729  0.00  0.00     0.019 A 
BRANCH  26  36
HETATM   36  C   UNK N   1      31.054  10.484  -0.316  0.00  0.00     0.067 A 
HETATM   37  N   UNK N   1      29.926  10.426   0.482  0.00  0.00    -0.335 N 
HETATM   38  C   UNK N   1      28.938   9.710  -0.109  0.00  0.00     0.145 A 
ATOM     39  HN  UNK N   1      29.848  10.866   1.400  1.00  0.00     0.168 HD
HETATM   40  S   UNK N   1      29.452   9.160  -1.577  0.00  0.00    -0.064 SA
HETATM   41  C   UNK N   1      30.970   9.800  -1.546  0.00  0.00     0.085 A 
BRANCH  38  42
HETATM   42  N   UNK N   1      27.622   9.612   0.409  0.00  0.00    -0.367 N 
HETATM   43  H   UNK N   1      27.093   8.806   0.209  0.00  0.00     0.162 HD
BRANCH  42  44
HETATM   44  C   UNK N   1      27.031  10.653   1.221  0.00  0.00     0.075 C 
HETATM   45  C   UNK N   1      27.040  10.232   2.674  0.00  0.00     0.032 C 
HETATM   46  C   UNK N   1      25.606  10.969   0.802  0.00  0.00     0.032 C 
ENDBRANCH  42  44
ENDBRANCH  38  42
ENDBRANCH  26  36
BRANCH  32  47
HETATM   47  O   UNK N   1      37.016  14.009  -2.586  0.00  0.00    -0.354 OA
HETATM   48  C   UNK N   1      36.883  15.072  -3.444  0.00  0.00     0.210 C 
ENDBRANCH  32  47
ENDBRANCH  23  24
ENDBRANCH   1  23
BRANCH  17  49
HETATM   49  N   UNK N   1      34.339  15.701   5.787  0.00  0.00    -0.324 N 
HETATM   50  C   UNK N   1      35.248  14.748   6.147  0.00  0.00     0.361 C 
HETATM   51  O   UNK N   1      36.053  14.348   5.331  0.00  0.00    -0.238 OA
HETATM   52  H   UNK N   1      34.496  16.230   4.971  0.00  0.00     0.165 HD
BRANCH  50  53
HETATM   53  O   UNK N   1      35.260  14.222   7.405  0.00  0.00    -0.299 OA
BRANCH  53  54
HETATM   54  C   UNK N   1      36.117  14.696   8.372  0.00  0.00     0.133 C 
HETATM   55  C   UNK N   1      35.379  15.397   9.481  0.00  0.00     0.032 C 
HETATM   56  C   UNK N   1      36.332  15.304  10.655  0.00  0.00     0.002 C 
HETATM   57  C   UNK N   1      37.111  14.012  10.463  0.00  0.00     0.002 C 
HETATM   58  C   UNK N   1      36.809  13.534   9.058  0.00  0.00     0.032 C 
ENDBRANCH  53  54
ENDBRANCH  50  53
ENDBRANCH  17  49
BRANCH   7  59
HETATM   59  P   UNK N   1      27.783  16.504   4.238  0.00  0.00     0.131 P 
HETATM   60  O   UNK N   1      28.658  16.856   3.006  0.00  0.00    -0.672 OA
BRANCH  59  61
HETATM   61  C   UNK N   1      27.599  14.927   3.249  0.00  0.00     0.141 C 
BRANCH  61  62
HETATM   62  C   UNK N   1      26.222  14.390   2.990  0.00  0.00     0.028 A 
HETATM   63  C   UNK N   1      25.525  14.876   1.870  0.00  0.00     0.126 A 
HETATM   64  C   UNK N   1      24.214  14.462   1.622  0.00  0.00     0.043 A 
HETATM   65  F   UNK N   1      26.107  15.774   1.036  0.00  0.00    -0.205 F 
HETATM   66  C   UNK N   1      23.589  13.561   2.483  0.00  0.00     0.006 A 
HETATM   67  C   UNK N   1      24.272  13.071   3.597  0.00  0.00     0.043 A 
HETATM   68  C   UNK N   1      25.582  13.480   3.859  0.00  0.00     0.126 A 
HETATM   69  F   UNK N   1      26.202  12.993   4.958  0.00  0.00    -0.205 F 
ENDBRANCH  61  62
ENDBRANCH  59  61
BRANCH  59  70
HETATM   70  O   UNK N   1      28.532  15.086   4.887  0.00  0.00    -0.347 OA
HETATM   71  H   UNK N   1      28.928  15.088   5.772  0.00  0.00     0.218 HD
ENDBRANCH  59  70
ENDBRANCH   7  59
TORSDOF 13
ENDMDL
MODEL 4
REMARK VINA RESULT:      -8.7      5.469     11.886
REMARK  13 active torsions:
REMARK  status: ('A' for Active; 'I' for Inactive)
REMARK    1  A    between atoms: C_2  and  N_4 
REMARK    2  A    between atoms: N_4  and  C_5 
REMARK    3  A    between atoms: C_8  and  C_11 
REMARK    4  A    between atoms: C_13  and  O_25 
REMARK    5  A    between atoms: C_17  and  O_23 
REMARK    6  A    between atoms: C_26  and  O_25 
REMARK    7  A    between atoms: C_32  and  P_56 
REMARK    8  A    between atoms: C_42  and  N_47 
REMARK       I    between atoms: N_47  and  C_48 
REMARK    9  A    between atoms: C_48  and  O_50 
REMARK   10  A    between atoms: O_50  and  C_51 
REMARK   11  A    between atoms: P_56  and  C_58 
REMARK   12  A    between atoms: P_56  and  O_67 
REMARK   13  A    between atoms: C_58  and  C_59 
ROOT
HETATM    1  C   UNK N   1      32.673  13.491   3.488  0.00  0.00     0.149 C 
HETATM    2  C   UNK N   1      32.578  14.867   2.836  0.00  0.00     0.069 C 
HETATM    3  C   UNK N   1      31.547  15.491   3.758  0.00  0.00     0.181 C 
HETATM    4  C   UNK N   1      31.310  16.983   3.794  0.00  0.00     0.241 C 
HETATM    5  O   UNK N   1      32.069  17.698   3.160  0.00  0.00    -0.271 OA
HETATM    6  N   UNK N   1      30.231  17.563   4.393  0.00  0.00    -0.341 N 
HETATM    7  C   UNK N   1      29.203  16.953   5.228  0.00  0.00     0.109 A 
HETATM    8  C   UNK N   1      29.666  16.401   6.537  0.00  0.00     0.049 A 
HETATM    9  C   UNK N   1      29.096  17.809   6.491  0.00  0.00     0.026 A 
HETATM   10  C   UNK N   1      27.997  17.714   7.528  0.00  0.00     0.008 C 
HETATM   11  C   UNK N   1      28.472  18.402   8.820  0.00  0.00     0.000 C 
HETATM   12  C   UNK N   1      29.772  17.809   9.382  0.00  0.00     0.000 C 
HETATM   13  C   UNK N   1      30.988  18.433   8.705  0.00  0.00     0.000 C 
HETATM   14  C   UNK N   1      32.175  17.487   8.752  0.00  0.00     0.000 C 
HETATM   15  C   UNK N   1      33.176  17.852   7.661  0.00  0.00     0.002 C 
HETATM   16  C   UNK N   1      32.778  17.231   6.330  0.00  0.00     0.035 C 
HETATM   17  C   UNK N   1      33.085  15.748   6.360  0.00  0.00     0.179 C 
HETATM   18  C   UNK N   1      31.974  14.764   6.123  0.00  0.00     0.243 C 
HETATM   19  O   UNK N   1      31.783  13.922   6.988  0.00  0.00    -0.271 OA
HETATM   20  N   UNK N   1      31.410  14.593   4.883  0.00  0.00    -0.334 N 
HETATM   21  C   UNK N   1      31.460  13.255   4.384  0.00  0.00     0.159 C 
HETATM   22  H   UNK N   1      30.133  18.531   4.239  0.00  0.00     0.163 HD
ENDROOT
BRANCH   1  23
HETATM   23  O   UNK N   1      33.318  12.485   2.820  0.00  0.00    -0.343 OA
BRANCH  23  24
HETATM   24  C   UNK N   1      34.349  12.649   1.968  0.00  0.00     0.084 A 
HETATM   25  C   UNK N   1      35.647  12.935   2.424  0.00  0.00     0.069 A 
HETATM   26  C   UNK N   1      36.673  13.112   1.492  0.00  0.00     0.062 A 
HETATM   27  N   UNK N   1      36.406  12.988   0.164  0.00  0.00    -0.352 N 
HETATM   28  C   UNK N   1      35.170  12.690  -0.309  0.00  0.00     0.070 A 
ATOM     29  HN  UNK N   1      37.166  13.124  -0.503  1.00  0.00     0.166 HD
HETATM   30  C   UNK N   1      34.959  12.549  -1.693  0.00  0.00     0.095 A 
HETATM   31  C   UNK N   1      34.110  12.516   0.595  0.00  0.00     0.026 A 
HETATM   32  C   UNK N   1      33.653  12.228  -2.172  0.00  0.00     0.092 A 
HETATM   33 Cl   UNK N   1      36.354  12.772  -2.755  0.00  0.00    -0.079 Cl
HETATM   34  C   UNK N   1      32.617  12.049  -1.247  0.00  0.00     0.039 A 
HETATM   35  C   UNK N   1      32.837  12.192   0.119  0.00  0.00     0.019 A 
BRANCH  26  36
HETATM   36  C   UNK N   1      38.058  13.366   1.909  0.00  0.00     0.067 A 
HETATM   37  N   UNK N   1      38.450  13.432   3.233  0.00  0.00    -0.335 N 
HETATM   38  C   UNK N   1      39.795  13.553   3.346  0.00  0.00     0.145 A 
ATOM     39  HN  UNK N   1      37.807  13.394   4.026  1.00  0.00     0.168 HD
HETATM   40  S   UNK N   1      40.478  13.585   1.845  0.00  0.00    -0.064 SA
HETATM   41  C   UNK N   1      39.096  13.448   0.958  0.00  0.00     0.085 A 
BRANCH  38  42
HETATM   42  N   UNK N   1      40.489  13.491   4.581  0.00  0.00    -0.367 N 
HETATM   43  H   UNK N   1      41.473  13.523   4.575  0.00  0.00     0.162 HD
BRANCH  42  44
HETATM   44  C   UNK N   1      39.801  13.383   5.850  0.00  0.00     0.075 C 
HETATM   45  C   UNK N   1      40.345  14.415   6.812  0.00  0.00     0.032 C 
HETATM   46  C   UNK N   1      39.945  12.003   6.465  0.00  0.00     0.032 C 
ENDBRANCH  42  44
ENDBRANCH  38  42
ENDBRANCH  26  36
BRANCH  32  47
HETATM   47  O   UNK N   1      33.328  12.084  -3.485  0.00  0.00    -0.354 OA
HETATM   48  C   UNK N   1      33.328  10.915  -4.206  0.00  0.00     0.210 C 
ENDBRANCH  32  47
ENDBRANCH  23  24
ENDBRANCH   1  23
BRANCH  17  49
HETATM   49  N   UNK N   1      34.185  15.367   5.506  0.00  0.00    -0.324 N 
HETATM   50  C   UNK N   1      35.371  14.925   6.018  0.00  0.00     0.361 C 
HETATM   51  O   UNK N   1      36.149  14.329   5.302  0.00  0.00    -0.238 OA
HETATM   52  H   UNK N   1      34.077  15.425   4.529  0.00  0.00     0.165 HD
BRANCH  50  53
HETATM   53  O   UNK N   1      35.694  15.126   7.328  0.00  0.00    -0.299 OA
BRANCH  53  54
HETATM   54  C   UNK N   1      35.716  14.086   8.229  0.00  0.00     0.133 C 
HETATM   55  C   UNK N   1      37.090  13.871   8.805  0.00  0.00     0.032 C 
HETATM   56  C   UNK N   1      36.816  13.170  10.120  0.00  0.00     0.002 C 
HETATM   57  C   UNK N   1      35.464  13.680  10.595  0.00  0.00     0.002 C 
HETATM   58  C   UNK N   1      34.855  14.429   9.429  0.00  0.00     0.032 C 
ENDBRANCH  53  54
ENDBRANCH  50  53
ENDBRANCH  17  49
BRANCH   7  59
HETATM   59  P   UNK N   1      27.564  16.394   4.443  0.00  0.00     0.131 P 
HETATM   60  O   UNK N   1      28.306  16.700   3.116  0.00  0.00    -0.672 OA
BRANCH  59  61
HETATM   61  C   UNK N   1      27.250  14.797   3.521  0.00  0.00     0.141 C 
BRANCH  61  62
HETATM   62  C   UNK N   1      25.855  14.487   3.062  0.00  0.00     0.028 A 
HETATM   63  C   UNK N   1      25.058  13.669   3.883  0.00  0.00     0.126 A 
HETATM   64  C   UNK N   1      23.779  13.292   3.470  0.00  0.00     0.043 A 
HETATM   65  F   UNK N   1      25.536  13.212   5.068  0.00  0.00    -0.205 F 
HETATM   66  C   UNK N   1      23.281  13.728   2.243  0.00  0.00     0.006 A 
HETATM   67  C   UNK N   1      24.063  14.542   1.421  0.00  0.00     0.043 A 
HETATM   68  C   UNK N   1      25.346  14.922   1.820  0.00  0.00     0.126 A 
HETATM   69  F   UNK N   1      26.077  15.698   0.987  0.00  0.00    -0.205 F 
ENDBRANCH  61  62
ENDBRANCH  59  61
BRANCH  59  70
HETATM   70  O   UNK N   1      28.356  14.979   5.046  0.00  0.00    -0.347 OA
HETATM   71  H   UNK N   1      28.210  14.111   4.641  0.00  0.00     0.218 HD
ENDBRANCH  59  70
ENDBRANCH   7  59
TORSDOF 13
ENDMDL
MODEL 5
REMARK VINA RESULT:      -8.6      5.465      8.886
REMARK  13 active torsions:
REMARK  status: ('A' for Active; 'I' for Inactive)
REMARK    1  A    between atoms: C_2  and  N_4 
REMARK    2  A    between atoms: N_4  and  C_5 
REMARK    3  A    between atoms: C_8  and  C_11 
REMARK    4  A    between atoms: C_13  and  O_25 
REMARK    5  A    between atoms: C_17  and  O_23 
REMARK    6  A    between atoms: C_26  and  O_25 
REMARK    7  A    between atoms: C_32  and  P_56 
REMARK    8  A    between atoms: C_42  and  N_47 
REMARK       I    between atoms: N_47  and  C_48 
REMARK    9  A    between atoms: C_48  and  O_50 
REMARK   10  A    between atoms: O_50  and  C_51 
REMARK   11  A    between atoms: P_56  and  C_58 
REMARK   12  A    between atoms: P_56  and  O_67 
REMARK   13  A    between atoms: C_58  and  C_59 
ROOT
HETATM    1  C   UNK N   1      33.448  15.091   9.203  0.00  0.00     0.149 C 
HETATM    2  C   UNK N   1      34.684  15.749   9.810  0.00  0.00     0.069 C 
HETATM    3  C   UNK N   1      35.533  14.508  10.013  0.00  0.00     0.181 C 
HETATM    4  C   UNK N   1      37.019  14.594  10.278  0.00  0.00     0.241 C 
HETATM    5  O   UNK N   1      37.553  15.687  10.187  0.00  0.00    -0.271 OA
HETATM    6  N   UNK N   1      37.769  13.548  10.728  0.00  0.00    -0.341 N 
HETATM    7  C   UNK N   1      37.391  12.150  10.893  0.00  0.00     0.109 A 
HETATM    8  C   UNK N   1      37.061  11.408   9.638  0.00  0.00     0.049 A 
HETATM    9  C   UNK N   1      38.471  11.317  10.200  0.00  0.00     0.026 A 
HETATM   10  C   UNK N   1      38.641   9.818  10.323  0.00  0.00     0.008 C 
HETATM   11  C   UNK N   1      39.523   9.321   9.164  0.00  0.00     0.000 C 
HETATM   12  C   UNK N   1      38.961   9.670   7.779  0.00  0.00     0.000 C 
HETATM   13  C   UNK N   1      39.368  11.081   7.370  0.00  0.00     0.000 C 
HETATM   14  C   UNK N   1      38.372  11.664   6.383  0.00  0.00     0.000 C 
HETATM   15  C   UNK N   1      38.463  13.187   6.389  0.00  0.00     0.002 C 
HETATM   16  C   UNK N   1      37.634  13.776   7.521  0.00  0.00     0.035 C 
HETATM   17  C   UNK N   1      36.165  13.690   7.162  0.00  0.00     0.179 C 
HETATM   18  C   UNK N   1      35.229  12.945   8.071  0.00  0.00     0.243 C 
HETATM   19  O   UNK N   1      34.576  12.039   7.576  0.00  0.00    -0.271 OA
HETATM   20  N   UNK N   1      34.870  13.439   9.301  0.00  0.00    -0.334 N 
HETATM   21  C   UNK N   1      33.462  13.593   9.494  0.00  0.00     0.159 C 
HETATM   22  H   UNK N   1      38.696  13.770  10.975  0.00  0.00     0.163 HD
ENDROOT
BRANCH   1  23
HETATM   23  O   UNK N   1      32.297  15.822   9.090  0.00  0.00    -0.343 OA
BRANCH  23  24
HETATM   24  C   UNK N   1      31.488  15.845   8.012  0.00  0.00     0.084 A 
HETATM   25  C   UNK N   1      31.606  14.900   6.980  0.00  0.00     0.069 A 
HETATM   26  C   UNK N   1      30.751  14.985   5.878  0.00  0.00     0.062 A 
HETATM   27  N   UNK N   1      29.810  15.966   5.828  0.00  0.00    -0.352 N 
HETATM   28  C   UNK N   1      29.654  16.880   6.819  0.00  0.00     0.070 A 
ATOM     29  HN  UNK N   1      29.197  16.015   5.015  1.00  0.00     0.166 HD
HETATM   30  C   UNK N   1      28.647  17.857   6.724  0.00  0.00     0.095 A 
HETATM   31  C   UNK N   1      30.501  16.836   7.937  0.00  0.00     0.026 A 
HETATM   32  C   UNK N   1      28.493  18.807   7.779  0.00  0.00     0.092 A 
HETATM   33 Cl   UNK N   1      27.618  17.829   5.287  0.00  0.00    -0.079 Cl
HETATM   34  C   UNK N   1      29.344  18.732   8.888  0.00  0.00     0.039 A 
HETATM   35  C   UNK N   1      30.339  17.762   8.969  0.00  0.00     0.019 A 
BRANCH  26  36
HETATM   36  C   UNK N   1      30.795  13.998   4.791  0.00  0.00     0.067 A 
HETATM   37  N   UNK N   1      31.004  12.648   5.001  0.00  0.00    -0.335 N 
HETATM   38  C   UNK N   1      30.876  11.941   3.851  0.00  0.00     0.145 A 
ATOM     39  HN  UNK N   1      31.228  12.235   5.908  1.00  0.00     0.168 HD
HETATM   40  S   UNK N   1      30.519  12.964   2.608  0.00  0.00    -0.064 SA
HETATM   41  C   UNK N   1      30.510  14.374   3.462  0.00  0.00     0.085 A 
BRANCH  38  42
HETATM   42  N   UNK N   1      30.888  10.525   3.794  0.00  0.00    -0.367 N 
HETATM   43  H   UNK N   1      30.694  10.083   2.936  0.00  0.00     0.162 HD
BRANCH  42  44
HETATM   44  C   UNK N   1      31.176   9.707   4.952  0.00  0.00     0.075 C 
HETATM   45  C   UNK N   1      32.638   9.318   4.950  0.00  0.00     0.032 C 
HETATM   46  C   UNK N   1      30.327   8.449   4.993  0.00  0.00     0.032 C 
ENDBRANCH  42  44
ENDBRANCH  38  42
ENDBRANCH  26  36
BRANCH  32  47
HETATM   47  O   UNK N   1      27.567  19.804   7.790  0.00  0.00    -0.354 OA
HETATM   48  C   UNK N   1      27.327  20.710   6.787  0.00  0.00     0.210 C 
ENDBRANCH  32  47
ENDBRANCH  23  24
ENDBRANCH   1  23
BRANCH  17  49
HETATM   49  N   UNK N   1      35.562  14.971   6.880  0.00  0.00    -0.324 N 
HETATM   50  C   UNK N   1      35.080  15.280   5.641  0.00  0.00     0.361 C 
HETATM   51  O   UNK N   1      34.316  16.215   5.509  0.00  0.00    -0.238 OA
HETATM   52  H   UNK N   1      35.495  15.639   7.601  0.00  0.00     0.165 HD
BRANCH  50  53
HETATM   53  O   UNK N   1      35.428  14.548   4.544  0.00  0.00    -0.299 OA
BRANCH  53  54
HETATM   54  C   UNK N   1      34.485  13.866   3.808  0.00  0.00     0.133 C 
HETATM   55  C   UNK N   1      34.561  14.209   2.345  0.00  0.00     0.032 C 
HETATM   56  C   UNK N   1      33.934  13.007   1.668  0.00  0.00     0.002 C 
HETATM   57  C   UNK N   1      34.238  11.815   2.561  0.00  0.00     0.002 C 
HETATM   58  C   UNK N   1      34.772  12.379   3.861  0.00  0.00     0.032 C 
ENDBRANCH  53  54
ENDBRANCH  50  53
ENDBRANCH  17  49
BRANCH   7  59
HETATM   59  P   UNK N   1      36.806  11.529  12.592  0.00  0.00     0.131 P 
HETATM   60  O   UNK N   1      37.154  12.973  13.037  0.00  0.00    -0.672 OA
BRANCH  59  61
HETATM   61  C   UNK N   1      35.218  11.990  13.467  0.00  0.00     0.141 C 
BRANCH  61  62
HETATM   62  C   UNK N   1      35.063  11.642  14.919  0.00  0.00     0.028 A 
HETATM   63  C   UNK N   1      35.289  12.656  15.867  0.00  0.00     0.126 A 
HETATM   64  C   UNK N   1      35.227  12.368  17.233  0.00  0.00     0.043 A 
HETATM   65  F   UNK N   1      35.599  13.914  15.466  0.00  0.00    -0.205 F 
HETATM   66  C   UNK N   1      34.937  11.075  17.664  0.00  0.00     0.006 A 
HETATM   67  C   UNK N   1      34.709  10.062  16.732  0.00  0.00     0.043 A 
HETATM   68  C   UNK N   1      34.773  10.334  15.364  0.00  0.00     0.126 A 
HETATM   69  F   UNK N   1      34.562   9.320  14.493  0.00  0.00    -0.205 F 
ENDBRANCH  61  62
ENDBRANCH  59  61
BRANCH  59  70
HETATM   70  O   UNK N   1      35.401  11.727  11.602  0.00  0.00    -0.347 OA
HETATM   71  H   UNK N   1      35.226  11.135  10.854  0.00  0.00     0.218 HD
ENDBRANCH  59  70
ENDBRANCH   7  59
TORSDOF 13
ENDMDL
MODEL 6
REMARK VINA RESULT:      -8.6      5.616     12.063
REMARK  13 active torsions:
REMARK  status: ('A' for Active; 'I' for Inactive)
REMARK    1  A    between atoms: C_2  and  N_4 
REMARK    2  A    between atoms: N_4  and  C_5 
REMARK    3  A    between atoms: C_8  and  C_11 
REMARK    4  A    between atoms: C_13  and  O_25 
REMARK    5  A    between atoms: C_17  and  O_23 
REMARK    6  A    between atoms: C_26  and  O_25 
REMARK    7  A    between atoms: C_32  and  P_56 
REMARK    8  A    between atoms: C_42  and  N_47 
REMARK       I    between atoms: N_47  and  C_48 
REMARK    9  A    between atoms: C_48  and  O_50 
REMARK   10  A    between atoms: O_50  and  C_51 
REMARK   11  A    between atoms: P_56  and  C_58 
REMARK   12  A    between atoms: P_56  and  O_67 
REMARK   13  A    between atoms: C_58  and  C_59 
ROOT
HETATM    1  C   UNK N   1      33.832  13.738   4.146  0.00  0.00     0.149 C 
HETATM    2  C   UNK N   1      33.821  15.120   3.498  0.00  0.00     0.069 C 
HETATM    3  C   UNK N   1      32.516  15.637   4.073  0.00  0.00     0.181 C 
HETATM    4  C   UNK N   1      32.158  17.105   4.040  0.00  0.00     0.241 C 
HETATM    5  O   UNK N   1      33.009  17.893   3.662  0.00  0.00    -0.271 OA
HETATM    6  N   UNK N   1      30.907  17.584   4.293  0.00  0.00    -0.341 N 
HETATM    7  C   UNK N   1      29.732  16.874   4.785  0.00  0.00     0.109 A 
HETATM    8  C   UNK N   1      29.831  16.326   6.171  0.00  0.00     0.049 A 
HETATM    9  C   UNK N   1      29.186  17.686   5.960  0.00  0.00     0.026 A 
HETATM   10  C   UNK N   1      27.842  17.479   6.625  0.00  0.00     0.008 C 
HETATM   11  C   UNK N   1      27.856  18.168   8.001  0.00  0.00     0.000 C 
HETATM   12  C   UNK N   1      28.976  17.663   8.922  0.00  0.00     0.000 C 
HETATM   13  C   UNK N   1      30.282  18.397   8.637  0.00  0.00     0.000 C 
HETATM   14  C   UNK N   1      31.475  17.545   9.033  0.00  0.00     0.000 C 
HETATM   15  C   UNK N   1      32.721  18.015   8.289  0.00  0.00     0.002 C 
HETATM   16  C   UNK N   1      32.787  17.400   6.898  0.00  0.00     0.035 C 
HETATM   17  C   UNK N   1      33.191  15.945   7.015  0.00  0.00     0.179 C 
HETATM   18  C   UNK N   1      32.284  14.884   6.458  0.00  0.00     0.243 C 
HETATM   19  O   UNK N   1      31.916  14.008   7.226  0.00  0.00    -0.271 OA
HETATM   20  N   UNK N   1      32.127  14.703   5.106  0.00  0.00    -0.334 N 
HETATM   21  C   UNK N   1      32.433  13.386   4.641  0.00  0.00     0.159 C 
HETATM   22  H   UNK N   1      30.780  18.545   4.119  0.00  0.00     0.163 HD
ENDROOT
BRANCH   1  23
HETATM   23  O   UNK N   1      34.726  12.803   3.697  0.00  0.00    -0.343 OA
BRANCH  23  24
HETATM   24  C   UNK N   1      35.361  12.836   2.509  0.00  0.00     0.084 A 
HETATM   25  C   UNK N   1      34.672  12.659   1.298  0.00  0.00     0.069 A 
HETATM   26  C   UNK N   1      35.386  12.686   0.097  0.00  0.00     0.062 A 
HETATM   27  N   UNK N   1      36.729  12.898   0.116  0.00  0.00    -0.352 N 
HETATM   28  C   UNK N   1      37.422  13.097   1.267  0.00  0.00     0.070 A 
ATOM     29  HN  UNK N   1      37.236  12.911  -0.768  1.00  0.00     0.166 HD
HETATM   30  C   UNK N   1      38.807  13.337   1.223  0.00  0.00     0.095 A 
HETATM   31  C   UNK N   1      36.742  13.066   2.495  0.00  0.00     0.026 A 
HETATM   32  C   UNK N   1      39.519  13.550   2.443  0.00  0.00     0.092 A 
HETATM   33 Cl   UNK N   1      39.577  13.372  -0.367  0.00  0.00    -0.079 Cl
HETATM   34  C   UNK N   1      38.813  13.526   3.652  0.00  0.00     0.039 A 
HETATM   35  C   UNK N   1      37.443  13.284   3.683  0.00  0.00     0.019 A 
BRANCH  26  36
HETATM   36  C   UNK N   1      34.715  12.553  -1.202  0.00  0.00     0.067 A 
HETATM   37  N   UNK N   1      33.431  12.060  -1.345  0.00  0.00    -0.335 N 
HETATM   38  C   UNK N   1      33.003  12.158  -2.628  0.00  0.00     0.145 A 
ATOM     39  HN  UNK N   1      32.876  11.672  -0.581  1.00  0.00     0.168 HD
HETATM   40  S   UNK N   1      34.186  12.830  -3.559  0.00  0.00    -0.064 SA
HETATM   41  C   UNK N   1      35.320  13.036  -2.381  0.00  0.00     0.085 A 
BRANCH  38  42
HETATM   42  N   UNK N   1      31.676  11.870  -3.037  0.00  0.00    -0.367 N 
HETATM   43  H   UNK N   1      31.298  12.364  -3.801  0.00  0.00     0.162 HD
BRANCH  42  44
HETATM   44  C   UNK N   1      30.860  10.878  -2.371  0.00  0.00     0.075 C 
HETATM   45  C   UNK N   1      29.985  10.176  -3.387  0.00  0.00     0.032 C 
HETATM   46  C   UNK N   1      29.982  11.486  -1.293  0.00  0.00     0.032 C 
ENDBRANCH  42  44
ENDBRANCH  38  42
ENDBRANCH  26  36
BRANCH  32  47
HETATM   47  O   UNK N   1      40.857  13.776   2.525  0.00  0.00    -0.354 OA
HETATM   48  C   UNK N   1      41.652  13.603   3.631  0.00  0.00     0.210 C 
ENDBRANCH  32  47
ENDBRANCH  23  24
ENDBRANCH   1  23
BRANCH  17  49
HETATM   49  N   UNK N   1      34.522  15.673   6.525  0.00  0.00    -0.324 N 
HETATM   50  C   UNK N   1      35.357  14.802   7.164  0.00  0.00     0.361 C 
HETATM   51  O   UNK N   1      36.325  14.361   6.579  0.00  0.00    -0.238 OA
HETATM   52  H   UNK N   1      34.835  16.125   5.708  0.00  0.00     0.165 HD
BRANCH  50  53
HETATM   53  O   UNK N   1      35.116  14.403   8.445  0.00  0.00    -0.299 OA
BRANCH  53  54
HETATM   54  C   UNK N   1      35.848  14.899   9.500  0.00  0.00     0.133 C 
HETATM   55  C   UNK N   1      35.144  16.041  10.182  0.00  0.00     0.032 C 
HETATM   56  C   UNK N   1      35.743  16.045  11.574  0.00  0.00     0.002 C 
HETATM   57  C   UNK N   1      36.101  14.599  11.882  0.00  0.00     0.002 C 
HETATM   58  C   UNK N   1      35.977  13.840  10.578  0.00  0.00     0.032 C 
ENDBRANCH  53  54
ENDBRANCH  50  53
ENDBRANCH  17  49
BRANCH   7  59
HETATM   59  P   UNK N   1      28.449  16.210   3.548  0.00  0.00     0.131 P 
HETATM   60  O   UNK N   1      29.551  16.542   2.507  0.00  0.00    -0.672 OA
BRANCH  59  61
HETATM   61  C   UNK N   1      28.521  14.586   2.624  0.00  0.00     0.141 C 
BRANCH  61  62
HETATM   62  C   UNK N   1      27.255  13.799   2.442  0.00  0.00     0.028 A 
HETATM   63  C   UNK N   1      26.177  14.427   1.793  0.00  0.00     0.126 A 
HETATM   64  C   UNK N   1      24.954  13.765   1.660  0.00  0.00     0.043 A 
HETATM   65  F   UNK N   1      26.304  15.691   1.317  0.00  0.00    -0.205 F 
HETATM   66  C   UNK N   1      24.795  12.476   2.167  0.00  0.00     0.006 A 
HETATM   67  C   UNK N   1      25.860  11.843   2.812  0.00  0.00     0.043 A 
HETATM   68  C   UNK N   1      27.086  12.495   2.956  0.00  0.00     0.126 A 
HETATM   69  F   UNK N   1      28.087  11.853   3.601  0.00  0.00    -0.205 F 
ENDBRANCH  61  62
ENDBRANCH  59  61
BRANCH  59  70
HETATM   70  O   UNK N   1      29.087  14.852   4.409  0.00  0.00    -0.347 OA
HETATM   71  H   UNK N   1      30.003  14.562   4.282  0.00  0.00     0.218 HD
ENDBRANCH  59  70
ENDBRANCH   7  59
TORSDOF 13
ENDMDL
MODEL 7
REMARK VINA RESULT:      -8.6      5.990     10.990
REMARK  13 active torsions:
REMARK  status: ('A' for Active; 'I' for Inactive)
REMARK    1  A    between atoms: C_2  and  N_4 
REMARK    2  A    between atoms: N_4  and  C_5 
REMARK    3  A    between atoms: C_8  and  C_11 
REMARK    4  A    between atoms: C_13  and  O_25 
REMARK    5  A    between atoms: C_17  and  O_23 
REMARK    6  A    between atoms: C_26  and  O_25 
REMARK    7  A    between atoms: C_32  and  P_56 
REMARK    8  A    between atoms: C_42  and  N_47 
REMARK       I    between atoms: N_47  and  C_48 
REMARK    9  A    between atoms: C_48  and  O_50 
REMARK   10  A    between atoms: O_50  and  C_51 
REMARK   11  A    between atoms: P_56  and  C_58 
REMARK   12  A    between atoms: P_56  and  O_67 
REMARK   13  A    between atoms: C_58  and  C_59 
ROOT
HETATM    1  C   UNK N   1      34.602  13.435   8.697  0.00  0.00     0.149 C 
HETATM    2  C   UNK N   1      33.303  12.638   8.775  0.00  0.00     0.069 C 
HETATM    3  C   UNK N   1      33.891  11.243   8.877  0.00  0.00     0.181 C 
HETATM    4  C   UNK N   1      33.063  10.061   9.324  0.00  0.00     0.241 C 
HETATM    5  O   UNK N   1      31.936  10.276   9.739  0.00  0.00    -0.271 OA
HETATM    6  N   UNK N   1      33.457   8.763   9.179  0.00  0.00    -0.341 N 
HETATM    7  C   UNK N   1      34.745   8.236   8.744  0.00  0.00     0.109 A 
HETATM    8  C   UNK N   1      35.904   8.515   9.646  0.00  0.00     0.049 A 
HETATM    9  C   UNK N   1      35.166   7.193   9.780  0.00  0.00     0.026 A 
HETATM   10  C   UNK N   1      36.303   6.206   9.624  0.00  0.00     0.008 C 
HETATM   11  C   UNK N   1      36.678   5.655  11.011  0.00  0.00     0.000 C 
HETATM   12  C   UNK N   1      37.072   6.749  12.013  0.00  0.00     0.000 C 
HETATM   13  C   UNK N   1      35.836   7.344  12.679  0.00  0.00     0.000 C 
HETATM   14  C   UNK N   1      36.107   8.762  13.149  0.00  0.00     0.000 C 
HETATM   15  C   UNK N   1      34.793   9.518  13.313  0.00  0.00     0.002 C 
HETATM   16  C   UNK N   1      34.325  10.087  11.980  0.00  0.00     0.035 C 
HETATM   17  C   UNK N   1      35.174  11.288  11.625  0.00  0.00     0.179 C 
HETATM   18  C   UNK N   1      35.938  11.291  10.331  0.00  0.00     0.243 C 
HETATM   19  O   UNK N   1      37.145  11.468  10.398  0.00  0.00    -0.271 OA
HETATM   20  N   UNK N   1      35.307  11.414   9.118  0.00  0.00    -0.334 N 
HETATM   21  C   UNK N   1      35.756  12.511   8.320  0.00  0.00     0.159 C 
HETATM   22  H   UNK N   1      32.775   8.089   9.399  0.00  0.00     0.163 HD
ENDROOT
BRANCH   1  23
HETATM   23  O   UNK N   1      34.548  14.754   8.334  0.00  0.00    -0.343 OA
BRANCH  23  24
HETATM   24  C   UNK N   1      33.598  15.314   7.560  0.00  0.00     0.084 A 
HETATM   25  C   UNK N   1      32.519  16.024   8.113  0.00  0.00     0.069 A 
HETATM   26  C   UNK N   1      31.554  16.568   7.261  0.00  0.00     0.062 A 
HETATM   27  N   UNK N   1      31.680  16.418   5.916  0.00  0.00    -0.352 N 
HETATM   28  C   UNK N   1      32.722  15.759   5.348  0.00  0.00     0.070 A 
ATOM     29  HN  UNK N   1      30.965  16.818   5.309  1.00  0.00     0.166 HD
HETATM   30  C   UNK N   1      32.814  15.657   3.948  0.00  0.00     0.095 A 
HETATM   31  C   UNK N   1      33.706  15.188   6.170  0.00  0.00     0.026 A 
HETATM   32  C   UNK N   1      33.921  14.965   3.368  0.00  0.00     0.092 A 
HETATM   33 Cl   UNK N   1      31.537  16.418   2.992  0.00  0.00    -0.079 Cl
HETATM   34  C   UNK N   1      34.893  14.416   4.212  0.00  0.00     0.039 A 
HETATM   35  C   UNK N   1      34.791  14.522   5.596  0.00  0.00     0.019 A 
BRANCH  26  36
HETATM   36  C   UNK N   1      30.429  17.360   7.776  0.00  0.00     0.067 A 
HETATM   37  N   UNK N   1      29.563  18.065   6.962  0.00  0.00    -0.335 N 
HETATM   38  C   UNK N   1      28.545  18.608   7.673  0.00  0.00     0.145 A 
ATOM     39  HN  UNK N   1      29.676  18.165   5.952  1.00  0.00     0.168 HD
HETATM   40  S   UNK N   1      28.718  18.229   9.269  0.00  0.00    -0.064 SA
HETATM   41  C   UNK N   1      30.108  17.351   9.149  0.00  0.00     0.085 A 
BRANCH  38  42
HETATM   42  N   UNK N   1      27.430  19.254   7.082  0.00  0.00    -0.367 N 
HETATM   43  H   UNK N   1      26.532  18.875   7.224  0.00  0.00     0.162 HD
BRANCH  42  44
HETATM   44  C   UNK N   1      27.565  20.450   6.279  0.00  0.00     0.075 C 
HETATM   45  C   UNK N   1      26.403  21.378   6.549  0.00  0.00     0.032 C 
HETATM   46  C   UNK N   1      27.621  20.141   4.794  0.00  0.00     0.032 C 
ENDBRANCH  42  44
ENDBRANCH  38  42
ENDBRANCH  26  36
BRANCH  32  47
HETATM   47  O   UNK N   1      34.106  14.791   2.032  0.00  0.00    -0.354 OA
HETATM   48  C   UNK N   1      34.539  13.648   1.406  0.00  0.00     0.210 C 
ENDBRANCH  32  47
ENDBRANCH  23  24
ENDBRANCH   1  23
BRANCH  17  49
HETATM   49  N   UNK N   1      34.465  12.544  11.707  0.00  0.00    -0.324 N 
HETATM   50  C   UNK N   1      35.045  13.662  12.234  0.00  0.00     0.361 C 
HETATM   51  O   UNK N   1      34.558  14.752  12.013  0.00  0.00    -0.238 OA
HETATM   52  H   UNK N   1      33.540  12.596  11.373  0.00  0.00     0.165 HD
BRANCH  50  53
HETATM   53  O   UNK N   1      36.174  13.582  12.995  0.00  0.00    -0.299 OA
BRANCH  53  54
HETATM   54  C   UNK N   1      36.110  13.391  14.357  0.00  0.00     0.133 C 
HETATM   55  C   UNK N   1      34.726  13.002  14.804  0.00  0.00     0.032 C 
HETATM   56  C   UNK N   1      34.968  12.284  16.116  0.00  0.00     0.002 C 
HETATM   57  C   UNK N   1      36.335  11.631  15.993  0.00  0.00     0.002 C 
HETATM   58  C   UNK N   1      36.977  12.211  14.750  0.00  0.00     0.032 C 
ENDBRANCH  53  54
ENDBRANCH  50  53
ENDBRANCH  17  49
BRANCH   7  59
HETATM   59  P   UNK N   1      35.001   7.767   6.919  0.00  0.00     0.131 P 
HETATM   60  O   UNK N   1      33.660   8.522   6.727  0.00  0.00    -0.672 OA
BRANCH  59  61
HETATM   61  C   UNK N   1      35.475   8.918   5.523  0.00  0.00     0.141 C 
BRANCH  61  62
HETATM   62  C   UNK N   1      34.415   9.357   4.555  0.00  0.00     0.028 A 
HETATM   63  C   UNK N   1      34.093   8.493   3.494  0.00  0.00     0.126 A 
HETATM   64  C   UNK N   1      33.166   8.883   2.525  0.00  0.00     0.043 A 
HETATM   65  F   UNK N   1      34.702   7.285   3.382  0.00  0.00    -0.205 F 
HETATM   66  C   UNK N   1      32.550  10.131   2.607  0.00  0.00     0.006 A 
HETATM   67  C   UNK N   1      32.861  10.996   3.657  0.00  0.00     0.043 A 
HETATM   68  C   UNK N   1      33.790  10.621   4.629  0.00  0.00     0.126 A 
HETATM   69  F   UNK N   1      34.075  11.495   5.622  0.00  0.00    -0.205 F 
ENDBRANCH  61  62
ENDBRANCH  59  61
BRANCH  59  70
HETATM   70  O   UNK N   1      36.133   9.021   7.294  0.00  0.00    -0.347 OA
HETATM   71  H   UNK N   1      37.061   8.957   7.023  0.00  0.00     0.218 HD
ENDBRANCH  59  70
ENDBRANCH   7  59
TORSDOF 13
ENDMDL
MODEL 8
REMARK VINA RESULT:      -8.5      5.459     11.991
REMARK  13 active torsions:
REMARK  status: ('A' for Active; 'I' for Inactive)
REMARK    1  A    between atoms: C_2  and  N_4 
REMARK    2  A    between atoms: N_4  and  C_5 
REMARK    3  A    between atoms: C_8  and  C_11 
REMARK    4  A    between atoms: C_13  and  O_25 
REMARK    5  A    between atoms: C_17  and  O_23 
REMARK    6  A    between atoms: C_26  and  O_25 
REMARK    7  A    between atoms: C_32  and  P_56 
REMARK    8  A    between atoms: C_42  and  N_47 
REMARK       I    between atoms: N_47  and  C_48 
REMARK    9  A    between atoms: C_48  and  O_50 
REMARK   10  A    between atoms: O_50  and  C_51 
REMARK   11  A    between atoms: P_56  and  C_58 
REMARK   12  A    between atoms: P_56  and  O_67 
REMARK   13  A    between atoms: C_58  and  C_59 
ROOT
HETATM    1  C   UNK N   1      32.903  13.668   3.407  0.00  0.00     0.149 C 
HETATM    2  C   UNK N   1      32.805  15.077   2.828  0.00  0.00     0.069 C 
HETATM    3  C   UNK N   1      31.721  15.626   3.736  0.00  0.00     0.181 C 
HETATM    4  C   UNK N   1      31.449  17.109   3.844  0.00  0.00     0.241 C 
HETATM    5  O   UNK N   1      32.218  17.874   3.285  0.00  0.00    -0.271 OA
HETATM    6  N   UNK N   1      30.332  17.633   4.426  0.00  0.00    -0.341 N 
HETATM    7  C   UNK N   1      29.284  16.956   5.180  0.00  0.00     0.109 A 
HETATM    8  C   UNK N   1      29.704  16.341   6.476  0.00  0.00     0.049 A 
HETATM    9  C   UNK N   1      29.104  17.738   6.482  0.00  0.00     0.026 A 
HETATM   10  C   UNK N   1      27.964  17.562   7.463  0.00  0.00     0.008 C 
HETATM   11  C   UNK N   1      28.367  18.187   8.811  0.00  0.00     0.000 C 
HETATM   12  C   UNK N   1      29.655  17.590   9.396  0.00  0.00     0.000 C 
HETATM   13  C   UNK N   1      30.884  18.276   8.808  0.00  0.00     0.000 C 
HETATM   14  C   UNK N   1      32.090  17.353   8.855  0.00  0.00     0.000 C 
HETATM   15  C   UNK N   1      33.128  17.799   7.831  0.00  0.00     0.002 C 
HETATM   16  C   UNK N   1      32.802  17.245   6.451  0.00  0.00     0.035 C 
HETATM   17  C   UNK N   1      33.141  15.769   6.413  0.00  0.00     0.179 C 
HETATM   18  C   UNK N   1      32.064  14.777   6.075  0.00  0.00     0.243 C 
HETATM   19  O   UNK N   1      31.855  13.885   6.883  0.00  0.00    -0.271 OA
HETATM   20  N   UNK N   1      31.557  14.665   4.804  0.00  0.00    -0.334 N 
HETATM   21  C   UNK N   1      31.659  13.358   4.234  0.00  0.00     0.159 C 
HETATM   22  H   UNK N   1      30.219  18.605   4.321  0.00  0.00     0.163 HD
ENDROOT
BRANCH   1  23
HETATM   23  O   UNK N   1      33.599  12.714   2.713  0.00  0.00    -0.343 OA
BRANCH  23  24
HETATM   24  C   UNK N   1      33.842  12.734   1.388  0.00  0.00     0.084 A 
HETATM   25  C   UNK N   1      35.044  13.240   0.865  0.00  0.00     0.069 A 
HETATM   26  C   UNK N   1      35.233  13.250  -0.520  0.00  0.00     0.062 A 
HETATM   27  N   UNK N   1      34.264  12.757  -1.337  0.00  0.00    -0.352 N 
HETATM   28  C   UNK N   1      33.102  12.240  -0.863  0.00  0.00     0.070 A 
ATOM     29  HN  UNK N   1      34.416  12.776  -2.345  1.00  0.00     0.166 HD
HETATM   30  C   UNK N   1      32.145  11.721  -1.755  0.00  0.00     0.095 A 
HETATM   31  C   UNK N   1      32.869  12.222   0.521  0.00  0.00     0.026 A 
HETATM   32  C   UNK N   1      30.931  11.175  -1.238  0.00  0.00     0.092 A 
HETATM   33 Cl   UNK N   1      32.529  11.773  -3.479  0.00  0.00    -0.079 Cl
HETATM   34  C   UNK N   1      30.732  11.159   0.148  0.00  0.00     0.039 A 
HETATM   35  C   UNK N   1      31.684  11.677   1.020  0.00  0.00     0.019 A 
BRANCH  26  36
HETATM   36  C   UNK N   1      36.486  13.723  -1.123  0.00  0.00     0.067 A 
HETATM   37  N   UNK N   1      36.542  14.750  -2.046  0.00  0.00    -0.335 N 
HETATM   38  C   UNK N   1      37.823  15.073  -2.352  0.00  0.00     0.145 A 
ATOM     39  HN  UNK N   1      35.722  15.208  -2.447  1.00  0.00     0.168 HD
HETATM   40  S   UNK N   1      38.856  14.105  -1.506  0.00  0.00    -0.064 SA
HETATM   41  C   UNK N   1      37.730  13.212  -0.699  0.00  0.00     0.085 A 
BRANCH  38  42
HETATM   42  N   UNK N   1      38.183  16.186  -3.152  0.00  0.00    -0.367 N 
HETATM   43  H   UNK N   1      38.549  16.987  -2.712  0.00  0.00     0.162 HD
BRANCH  42  44
HETATM   44  C   UNK N   1      38.032  16.185  -4.591  0.00  0.00     0.075 C 
HETATM   45  C   UNK N   1      36.688  16.772  -4.961  0.00  0.00     0.032 C 
HETATM   46  C   UNK N   1      38.146  14.791  -5.180  0.00  0.00     0.032 C 
ENDBRANCH  42  44
ENDBRANCH  38  42
ENDBRANCH  26  36
BRANCH  32  47
HETATM   47  O   UNK N   1      29.931  10.660  -2.003  0.00  0.00    -0.354 OA
HETATM   48  C   UNK N   1      29.560   9.341  -2.089  0.00  0.00     0.210 C 
ENDBRANCH  32  47
ENDBRANCH  23  24
ENDBRANCH   1  23
BRANCH  17  49
HETATM   49  N   UNK N   1      34.285  15.459   5.589  0.00  0.00    -0.324 N 
HETATM   50  C   UNK N   1      35.205  14.523   5.963  0.00  0.00     0.361 C 
HETATM   51  O   UNK N   1      35.966  14.065   5.135  0.00  0.00    -0.238 OA
HETATM   52  H   UNK N   1      34.403  15.933   4.734  0.00  0.00     0.165 HD
BRANCH  50  53
HETATM   53  O   UNK N   1      35.279  14.078   7.250  0.00  0.00    -0.299 OA
BRANCH  53  54
HETATM   54  C   UNK N   1      36.132  14.656   8.162  0.00  0.00     0.133 C 
HETATM   55  C   UNK N   1      35.398  15.167   9.372  0.00  0.00     0.032 C 
HETATM   56  C   UNK N   1      36.466  15.197  10.447  0.00  0.00     0.002 C 
HETATM   57  C   UNK N   1      37.434  14.074  10.109  0.00  0.00     0.002 C 
HETATM   58  C   UNK N   1      37.081  13.609   8.712  0.00  0.00     0.032 C 
ENDBRANCH  53  54
ENDBRANCH  50  53
ENDBRANCH  17  49
BRANCH   7  59
HETATM   59  P   UNK N   1      27.693  16.409   4.294  0.00  0.00     0.131 P 
HETATM   60  O   UNK N   1      28.518  16.713   3.016  0.00  0.00    -0.672 OA
BRANCH  59  61
HETATM   61  C   UNK N   1      27.427  14.815   3.352  0.00  0.00     0.141 C 
BRANCH  61  62
HETATM   62  C   UNK N   1      26.033  14.436   2.948  0.00  0.00     0.028 A 
HETATM   63  C   UNK N   1      25.340  13.518   3.758  0.00  0.00     0.126 A 
HETATM   64  C   UNK N   1      24.066  13.077   3.391  0.00  0.00     0.043 A 
HETATM   65  F   UNK N   1      25.913  13.029   4.887  0.00  0.00    -0.205 F 
HETATM   66  C   UNK N   1      23.472  13.547   2.221  0.00  0.00     0.006 A 
HETATM   67  C   UNK N   1      24.150  14.460   1.411  0.00  0.00     0.043 A 
HETATM   68  C   UNK N   1      25.426  14.905   1.764  0.00  0.00     0.126 A 
HETATM   69  F   UNK N   1      26.055  15.777   0.942  0.00  0.00    -0.205 F 
ENDBRANCH  61  62
ENDBRANCH  59  61
BRANCH  59  70
HETATM   70  O   UNK N   1      28.439  14.988   4.941  0.00  0.00    -0.347 OA
HETATM   71  H   UNK N   1      29.206  15.047   5.531  0.00  0.00     0.218 HD
ENDBRANCH  59  70
ENDBRANCH   7  59
TORSDOF 13
ENDMDL
MODEL 9
REMARK VINA RESULT:      -8.2      1.969      4.638
REMARK  13 active torsions:
REMARK  status: ('A' for Active; 'I' for Inactive)
REMARK    1  A    between atoms: C_2  and  N_4 
REMARK    2  A    between atoms: N_4  and  C_5 
REMARK    3  A    between atoms: C_8  and  C_11 
REMARK    4  A    between atoms: C_13  and  O_25 
REMARK    5  A    between atoms: C_17  and  O_23 
REMARK    6  A    between atoms: C_26  and  O_25 
REMARK    7  A    between atoms: C_32  and  P_56 
REMARK    8  A    between atoms: C_42  and  N_47 
REMARK       I    between atoms: N_47  and  C_48 
REMARK    9  A    between atoms: C_48  and  O_50 
REMARK   10  A    between atoms: O_50  and  C_51 
REMARK   11  A    between atoms: P_56  and  C_58 
REMARK   12  A    between atoms: P_56  and  O_67 
REMARK   13  A    between atoms: C_58  and  C_59 
ROOT
HETATM    1  C   UNK N   1      27.147  15.710   5.281  0.00  0.00     0.149 C 
HETATM    2  C   UNK N   1      27.984  16.564   4.333  0.00  0.00     0.069 C 
HETATM    3  C   UNK N   1      29.212  15.678   4.246  0.00  0.00     0.181 C 
HETATM    4  C   UNK N   1      30.252  15.862   3.164  0.00  0.00     0.241 C 
HETATM    5  O   UNK N   1      30.011  16.657   2.269  0.00  0.00    -0.271 OA
HETATM    6  N   UNK N   1      31.486  15.284   3.194  0.00  0.00    -0.341 N 
HETATM    7  C   UNK N   1      32.012  14.287   4.119  0.00  0.00     0.109 A 
HETATM    8  C   UNK N   1      31.355  12.945   4.079  0.00  0.00     0.049 A 
HETATM    9  C   UNK N   1      32.620  13.172   3.267  0.00  0.00     0.026 A 
HETATM   10  C   UNK N   1      33.501  12.053   3.779  0.00  0.00     0.008 C 
HETATM   11  C   UNK N   1      33.535  10.927   2.731  0.00  0.00     0.000 C 
HETATM   12  C   UNK N   1      32.144  10.377   2.385  0.00  0.00     0.000 C 
HETATM   13  C   UNK N   1      31.474  11.234   1.316  0.00  0.00     0.000 C 
HETATM   14  C   UNK N   1      29.962  11.127   1.409  0.00  0.00     0.000 C 
HETATM   15  C   UNK N   1      29.311  12.334   0.742  0.00  0.00     0.002 C 
HETATM   16  C   UNK N   1      29.251  13.516   1.699  0.00  0.00     0.035 C 
HETATM   17  C   UNK N   1      28.162  13.274   2.723  0.00  0.00     0.179 C 
HETATM   18  C   UNK N   1      28.516  13.266   4.184  0.00  0.00     0.243 C 
HETATM   19  O   UNK N   1      28.222  12.266   4.822  0.00  0.00    -0.271 OA
HETATM   20  N   UNK N   1      28.850  14.417   4.853  0.00  0.00    -0.334 N 
HETATM   21  C   UNK N   1      28.039  14.700   5.996  0.00  0.00     0.159 C 
HETATM   22  H   UNK N   1      32.109  15.582   2.492  0.00  0.00     0.163 HD
ENDROOT
BRANCH   1  23
HETATM   23  O   UNK N   1      26.028  16.257   5.850  0.00  0.00    -0.343 OA
BRANCH  23  24
HETATM   24  C   UNK N   1      24.777  15.765   5.744  0.00  0.00     0.084 A 
HETATM   25  C   UNK N   1      23.895  16.202   4.742  0.00  0.00     0.069 A 
HETATM   26  C   UNK N   1      22.604  15.669   4.691  0.00  0.00     0.062 A 
HETATM   27  N   UNK N   1      22.227  14.728   5.597  0.00  0.00    -0.352 N 
HETATM   28  C   UNK N   1      23.062  14.266   6.562  0.00  0.00     0.070 A 
ATOM     29  HN  UNK N   1      21.280  14.352   5.549  1.00  0.00     0.166 HD
HETATM   30  C   UNK N   1      22.626  13.272   7.457  0.00  0.00     0.095 A 
HETATM   31  C   UNK N   1      24.364  14.785   6.654  0.00  0.00     0.026 A 
HETATM   32  C   UNK N   1      23.520  12.794   8.462  0.00  0.00     0.092 A 
HETATM   33 Cl   UNK N   1      20.977  12.667   7.259  0.00  0.00    -0.079 Cl
HETATM   34  C   UNK N   1      24.816  13.321   8.522  0.00  0.00     0.039 A 
HETATM   35  C   UNK N   1      25.236  14.305   7.633  0.00  0.00     0.019 A 
BRANCH  26  36
HETATM   36  C   UNK N   1      21.652  16.052   3.640  0.00  0.00     0.067 A 
HETATM   37  N   UNK N   1      21.315  17.364   3.365  0.00  0.00    -0.335 N 
HETATM   38  C   UNK N   1      20.516  17.452   2.273  0.00  0.00     0.145 A 
ATOM     39  HN  UNK N   1      21.627  18.165   3.915  1.00  0.00     0.168 HD
HETATM   40  S   UNK N   1      20.232  15.943   1.670  0.00  0.00    -0.064 SA
HETATM   41  C   UNK N   1      21.110  15.085   2.770  0.00  0.00     0.085 A 
BRANCH  38  42
HETATM   42  N   UNK N   1      20.139  18.679   1.672  0.00  0.00    -0.367 N 
HETATM   43  H   UNK N   1      19.323  18.707   1.122  0.00  0.00     0.162 HD
BRANCH  42  44
HETATM   44  C   UNK N   1      20.912  19.891   1.838  0.00  0.00     0.075 C 
HETATM   45  C   UNK N   1      20.475  20.603   3.099  0.00  0.00     0.032 C 
HETATM   46  C   UNK N   1      20.764  20.833   0.658  0.00  0.00     0.032 C 
ENDBRANCH  42  44
ENDBRANCH  38  42
ENDBRANCH  26  36
BRANCH  32  47
HETATM   47  O   UNK N   1      23.205  11.849   9.388  0.00  0.00    -0.354 OA
HETATM   48  C   UNK N   1      23.309  11.970  10.752  0.00  0.00     0.210 C 
ENDBRANCH  32  47
ENDBRANCH  23  24
ENDBRANCH   1  23
BRANCH  17  49
HETATM   49  N   UNK N   1      27.015  14.137   2.564  0.00  0.00    -0.324 N 
HETATM   50  C   UNK N   1      25.844  13.682   2.029  0.00  0.00     0.361 C 
HETATM   51  O   UNK N   1      24.823  14.319   2.190  0.00  0.00    -0.238 OA
HETATM   52  H   UNK N   1      27.078  15.077   2.849  0.00  0.00     0.165 HD
BRANCH  50  53
HETATM   53  O   UNK N   1      25.793  12.512   1.329  0.00  0.00    -0.299 OA
BRANCH  53  54
HETATM   54  C   UNK N   1      24.631  11.780   1.239  0.00  0.00     0.133 C 
HETATM   55  C   UNK N   1      23.916  12.021  -0.063  0.00  0.00     0.032 C 
HETATM   56  C   UNK N   1      23.073  10.775  -0.239  0.00  0.00     0.002 C 
HETATM   57  C   UNK N   1      23.844   9.647   0.430  0.00  0.00     0.002 C 
HETATM   58  C   UNK N   1      24.958  10.300   1.221  0.00  0.00     0.032 C 
ENDBRANCH  53  54
ENDBRANCH  50  53
ENDBRANCH  17  49
BRANCH   7  59
HETATM   59  P   UNK N   1      33.027  14.848   5.626  0.00  0.00     0.131 P 
HETATM   60  O   UNK N   1      32.558  16.259   5.187  0.00  0.00    -0.672 OA
BRANCH  59  61
HETATM   61  C   UNK N   1      32.358  15.486   7.252  0.00  0.00     0.141 C 
BRANCH  61  62
HETATM   62  C   UNK N   1      33.299  15.645   8.411  0.00  0.00     0.028 A 
HETATM   63  C   UNK N   1      33.328  14.626   9.380  0.00  0.00     0.126 A 
HETATM   64  C   UNK N   1      34.133  14.757  10.514  0.00  0.00     0.043 A 
HETATM   65  F   UNK N   1      32.551  13.522   9.239  0.00  0.00    -0.205 F 
HETATM   66  C   UNK N   1      34.916  15.896  10.690  0.00  0.00     0.006 A 
HETATM   67  C   UNK N   1      34.897  16.912   9.733  0.00  0.00     0.043 A 
HETATM   68  C   UNK N   1      34.093  16.797   8.598  0.00  0.00     0.126 A 
HETATM   69  F   UNK N   1      34.091  17.812   7.703  0.00  0.00    -0.205 F 
ENDBRANCH  61  62
ENDBRANCH  59  61
BRANCH  59  70
HETATM   70  O   UNK N   1      31.586  14.099   6.223  0.00  0.00    -0.347 OA
HETATM   71  H   UNK N   1      31.066  13.496   5.669  0.00  0.00     0.218 HD
ENDBRANCH  59  70
ENDBRANCH   7  59
TORSDOF 13
ENDMDL
