REMARK  4 active torsions:
REMARK  status: ('A' for Active; 'I' for Inactive)
REMARK    1  A    between atoms: C_4  and  C_12 
REMARK    2  A    between atoms: C_12  and  N_13 
REMARK    3  A    between atoms: C_18  and  O_23 
REMARK    4  A    between atoms: O_23  and  C_24 
ROOT
HETATM    1  C   UNK N   1       2.802  -3.918   0.213  0.00  0.00     0.079 C 
HETATM    2  C   UNK N   1       2.663  -5.267   0.579  0.00  0.00     0.060 C 
HETATM    3  C   UNK N   1       1.482  -5.972   0.253  0.00  0.00     0.049 C 
HETATM    4  C   UNK N   1       0.402  -5.317  -0.362  0.00  0.00     0.046 C 
HETATM    5  C   UNK N   1       0.550  -4.001  -0.773  0.00  0.00     0.038 C 
HETATM    6  C   UNK N   1       1.756  -3.353  -0.554  0.00  0.00     0.061 C 
HETATM    7 Cl   UNK N   1      -0.786  -3.123  -1.497  0.00  0.00    -0.084 Cl
HETATM    8  C   UNK N   1       1.389  -7.377   0.520  0.00  0.00     0.099 C 
HETATM    9  N   UNK N   1       1.268  -8.511   0.717  0.00  0.00    -0.191 NA
ENDROOT
BRANCH   1  10
HETATM   10  O   UNK N   1       3.872  -3.129   0.651  0.00  0.00    -0.308 OA
BRANCH  10  11
HETATM   11  C   UNK N   1       3.837  -1.755   0.502  0.00  0.00     0.111 C 
HETATM   12  C   UNK N   1       4.911  -1.031  -0.085  0.00  0.00     0.069 C 
HETATM   13  C   UNK N   1       4.670   0.254  -0.634  0.00  0.00     0.029 C 
HETATM   14 Cl   UNK N   1       6.497  -1.739  -0.303  0.00  0.00    -0.081 Cl
HETATM   15  C   UNK N   1       3.363   0.768  -0.680  0.00  0.00     0.034 C 
HETATM   16  C   UNK N   1       2.380   0.074   0.017  0.00  0.00     0.065 C 
HETATM   17  N   UNK N   1       1.056   0.240  -0.021  0.00  0.00    -0.286 N 
HETATM   18  C   UNK N   1       2.633  -1.061   0.702  0.00  0.00     0.045 C 
HETATM   19  N   UNK N   1       0.474  -0.663   0.758  0.00  0.00    -0.308 N 
HETATM   20  C   UNK N   1       1.430  -1.463   1.261  0.00  0.00     0.124 C 
ATOM     21  HN  UNK N   1      -0.526  -0.737   0.943  1.00  0.00     0.186 HD
BRANCH  17  22
HETATM   22  C   UNK N   1       0.367   0.968  -1.066  0.00  0.00     0.208 C 
BRANCH  22  23
HETATM   23  C   UNK N   1      -0.982   1.325  -0.629  0.00  0.00     0.059 A 
HETATM   24  C   UNK N   1      -1.342   2.588  -0.363  0.00  0.00     0.035 A 
HETATM   25  C   UNK N   1      -0.651   3.781  -0.472  0.00  0.00     0.018 A 
HETATM   26  C   UNK N   1      -2.592   2.510   0.132  0.00  0.00     0.132 A 
HETATM   27  C   UNK N   1      -1.315   4.929  -0.031  0.00  0.00     0.018 A 
HETATM   28  C   UNK N   1      -2.625   4.819   0.502  0.00  0.00     0.090 A 
HETATM   29  N   UNK N   1      -3.255   3.602   0.575  0.00  0.00    -0.351 N 
ATOM     30  HN  UNK N   1      -4.199   3.523   0.954  1.00  0.00     0.166 HD
HETATM   31  N   UNK N   1      -3.008   1.230   0.154  0.00  0.00    -0.284 N 
HETATM   32  N   UNK N   1      -2.005   0.489  -0.317  0.00  0.00    -0.301 N 
HETATM   33  H   UNK N   1      -3.885   0.903   0.459  0.00  0.00     0.188 HD
ATOM     34  HN  UNK N   1      -2.006  -0.525  -0.424  1.00  0.00     0.186 HD
ENDBRANCH  22  23
ENDBRANCH  17  22
ENDBRANCH  10  11
ENDBRANCH   1  10
TORSDOF 4
