MODEL 1
REMARK VINA RESULT:      -6.7      0.000      0.000
REMARK  6 active torsions:
REMARK  status: ('A' for Active; 'I' for Inactive)
REMARK    1  A    between atoms: O_2  and  C_3 
REMARK    2  A    between atoms: C_12  and  C_5 
REMARK    3  A    between atoms: C_8  and  O_9 
REMARK    4  A    between atoms: C_16  and  N_26 
REMARK    5  A    between atoms: C_17  and  N_25 
REMARK    6  A    between atoms: C_20  and  N_24 
ROOT
HETATM    1  C   UNK N   1      23.197  18.084   4.607  0.00  0.00     0.102 A 
HETATM    2  C   UNK N   1      22.356  18.897   3.651  0.00  0.00    -0.008 A 
HETATM    3  C   UNK N   1      22.862  20.022   2.976  0.00  0.00     0.013 A 
HETATM    4  C   UNK N   1      22.103  20.730   2.069  0.00  0.00     0.032 A 
HETATM    5  C   UNK N   1      20.794  20.347   1.839  0.00  0.00     0.055 A 
HETATM    6  C   UNK N   1      20.249  19.241   2.523  0.00  0.00     0.087 A 
HETATM    7  C   UNK N   1      21.043  18.501   3.422  0.00  0.00     0.113 A 
HETATM    8  O   UNK N   1      20.544  17.399   4.046  0.00  0.00    -0.290 OA
HETATM    9  C   UNK N   1      21.262  16.578   4.873  0.00  0.00     0.159 A 
HETATM   10  C   UNK N   1      22.542  16.851   5.197  0.00  0.00     0.086 A 
HETATM   11  C   UNK N   1      23.261  15.957   6.097  0.00  0.00     0.100 C 
HETATM   12  N   UNK N   1      23.856  15.265   6.810  0.00  0.00    -0.191 NA
ENDROOT
BRANCH   9  13
HETATM   13  N   UNK N   1      20.645  15.409   5.379  0.00  0.00    -0.379 N 
HETATM   14  H   UNK N   1      21.164  14.581   5.497  0.00  0.00     0.158 HD
HETATM   15  H   UNK N   1      19.689  15.424   5.613  0.00  0.00     0.158 HD
ENDBRANCH   9  13
BRANCH   1  16
HETATM   16  C   UNK N   1      24.691  18.181   4.494  0.00  0.00    -0.040 A 
HETATM   17  C   UNK N   1      25.352  19.124   5.247  0.00  0.00     0.048 A 
HETATM   18  C   UNK N   1      26.704  19.174   5.370  0.00  0.00     0.103 A 
HETATM   19  C   UNK N   1      27.485  18.197   4.694  0.00  0.00     0.118 A 
HETATM   20  C   UNK N   1      26.811  17.246   3.852  0.00  0.00     0.047 A 
HETATM   21  C   UNK N   1      25.431  17.263   3.779  0.00  0.00     0.030 A 
HETATM   22 Br   UNK N   1      27.617  15.847   2.821  0.00  0.00    -0.048 Br
BRANCH  18  23
HETATM   23  O   UNK N   1      27.172  20.140   6.197  0.00  0.00    -0.353 OA
HETATM   24  C   UNK N   1      27.063  21.491   6.013  0.00  0.00     0.210 C 
ENDBRANCH  18  23
BRANCH  19  25
HETATM   25  O   UNK N   1      28.823  18.189   4.890  0.00  0.00    -0.352 OA
HETATM   26  C   UNK N   1      29.467  17.439   5.841  0.00  0.00     0.210 C 
ENDBRANCH  19  25
ENDBRANCH   1  16
BRANCH   6  27
HETATM   27  N   UNK N   1      18.909  18.869   2.301  0.00  0.00    -0.395 N 
HETATM   28  H   UNK N   1      18.224  19.044   2.986  0.00  0.00     0.156 HD
HETATM   29  H   UNK N   1      18.656  18.430   1.456  0.00  0.00     0.156 HD
ENDBRANCH   6  27
BRANCH   5  30
HETATM   30  N   UNK N   1      20.025  21.079   0.914  0.00  0.00    -0.397 N 
HETATM   31  H   UNK N   1      19.151  21.450   1.175  0.00  0.00     0.156 HD
HETATM   32  H   UNK N   1      20.363  21.222   0.000  0.00  0.00     0.156 HD
ENDBRANCH   5  30
TORSDOF 6
ENDMDL
MODEL 2
REMARK VINA RESULT:      -6.7      4.748      8.203
REMARK  6 active torsions:
REMARK  status: ('A' for Active; 'I' for Inactive)
REMARK    1  A    between atoms: O_2  and  C_3 
REMARK    2  A    between atoms: C_12  and  C_5 
REMARK    3  A    between atoms: C_8  and  O_9 
REMARK    4  A    between atoms: C_16  and  N_26 
REMARK    5  A    between atoms: C_17  and  N_25 
REMARK    6  A    between atoms: C_20  and  N_24 
ROOT
HETATM    1  C   UNK N   1      29.180  17.001   6.203  0.00  0.00     0.102 A 
HETATM    2  C   UNK N   1      30.285  16.744   5.205  0.00  0.00    -0.008 A 
HETATM    3  C   UNK N   1      30.055  16.725   3.818  0.00  0.00     0.013 A 
HETATM    4  C   UNK N   1      31.077  16.538   2.913  0.00  0.00     0.032 A 
HETATM    5  C   UNK N   1      32.363  16.326   3.378  0.00  0.00     0.055 A 
HETATM    6  C   UNK N   1      32.619  16.309   4.765  0.00  0.00     0.087 A 
HETATM    7  C   UNK N   1      31.575  16.538   5.683  0.00  0.00     0.113 A 
HETATM    8  O   UNK N   1      31.821  16.579   7.021  0.00  0.00    -0.290 OA
HETATM    9  C   UNK N   1      30.887  16.868   7.978  0.00  0.00     0.159 A 
HETATM   10  C   UNK N   1      29.593  17.072   7.660  0.00  0.00     0.086 A 
HETATM   11  C   UNK N   1      28.631  17.360   8.716  0.00  0.00     0.100 C 
HETATM   12  N   UNK N   1      27.844  17.589   9.534  0.00  0.00    -0.191 NA
ENDROOT
BRANCH   9  13
HETATM   13  N   UNK N   1      31.302  16.973   9.327  0.00  0.00    -0.379 N 
HETATM   14  H   UNK N   1      30.843  17.586   9.945  0.00  0.00     0.158 HD
HETATM   15  H   UNK N   1      32.056  16.428   9.650  0.00  0.00     0.158 HD
ENDBRANCH   9  13
BRANCH   1  16
HETATM   16  C   UNK N   1      27.938  17.693   5.721  0.00  0.00    -0.040 A 
HETATM   17  C   UNK N   1      27.896  19.068   5.742  0.00  0.00     0.048 A 
HETATM   18  C   UNK N   1      26.911  19.798   5.157  0.00  0.00     0.103 A 
HETATM   19  C   UNK N   1      25.868  19.112   4.477  0.00  0.00     0.118 A 
HETATM   20  C   UNK N   1      25.865  17.675   4.503  0.00  0.00     0.047 A 
HETATM   21  C   UNK N   1      26.904  17.005   5.123  0.00  0.00     0.030 A 
HETATM   22 Br   UNK N   1      24.578  16.511   3.692  0.00  0.00    -0.048 Br
BRANCH  18  23
HETATM   23  O   UNK N   1      27.067  21.142   5.234  0.00  0.00    -0.353 OA
HETATM   24  C   UNK N   1      27.010  21.903   6.370  0.00  0.00     0.210 C 
ENDBRANCH  18  23
BRANCH  19  25
HETATM   25  O   UNK N   1      24.939  19.839   3.816  0.00  0.00    -0.352 OA
HETATM   26  C   UNK N   1      25.113  20.374   2.565  0.00  0.00     0.210 C 
ENDBRANCH  19  25
ENDBRANCH   1  16
BRANCH   6  27
HETATM   27  N   UNK N   1      33.926  16.072   5.234  0.00  0.00    -0.395 N 
HETATM   28  H   UNK N   1      34.577  16.808   5.284  0.00  0.00     0.156 HD
HETATM   29  H   UNK N   1      34.189  15.165   5.513  0.00  0.00     0.156 HD
ENDBRANCH   6  27
BRANCH   5  30
HETATM   30  N   UNK N   1      33.399  16.131   2.445  0.00  0.00    -0.397 N 
HETATM   31  H   UNK N   1      33.673  15.222   2.188  0.00  0.00     0.156 HD
HETATM   32  H   UNK N   1      33.852  16.910   2.047  0.00  0.00     0.156 HD
ENDBRANCH   5  30
TORSDOF 6
ENDMDL
MODEL 3
REMARK VINA RESULT:      -6.6      1.512      2.368
REMARK  6 active torsions:
REMARK  status: ('A' for Active; 'I' for Inactive)
REMARK    1  A    between atoms: O_2  and  C_3 
REMARK    2  A    between atoms: C_12  and  C_5 
REMARK    3  A    between atoms: C_8  and  O_9 
REMARK    4  A    between atoms: C_16  and  N_26 
REMARK    5  A    between atoms: C_17  and  N_25 
REMARK    6  A    between atoms: C_20  and  N_24 
ROOT
HETATM    1  C   UNK N   1      22.822  17.901   4.770  0.00  0.00     0.102 A 
HETATM    2  C   UNK N   1      22.082  18.756   3.768  0.00  0.00    -0.008 A 
HETATM    3  C   UNK N   1      22.693  19.834   3.104  0.00  0.00     0.013 A 
HETATM    4  C   UNK N   1      22.026  20.580   2.156  0.00  0.00     0.032 A 
HETATM    5  C   UNK N   1      20.704  20.285   1.872  0.00  0.00     0.055 A 
HETATM    6  C   UNK N   1      20.054  19.228   2.543  0.00  0.00     0.087 A 
HETATM    7  C   UNK N   1      20.755  18.448   3.485  0.00  0.00     0.113 A 
HETATM    8  O   UNK N   1      20.155  17.392   4.098  0.00  0.00    -0.290 OA
HETATM    9  C   UNK N   1      20.777  16.535   4.965  0.00  0.00     0.159 A 
HETATM   10  C   UNK N   1      22.057  16.724   5.343  0.00  0.00     0.086 A 
HETATM   11  C   UNK N   1      22.672  15.796   6.284  0.00  0.00     0.100 C 
HETATM   12  N   UNK N   1      23.186  15.075   7.030  0.00  0.00    -0.191 NA
ENDROOT
BRANCH   9  13
HETATM   13  N   UNK N   1      20.059  15.419   5.455  0.00  0.00    -0.379 N 
HETATM   14  H   UNK N   1      20.220  14.520   5.087  0.00  0.00     0.158 HD
HETATM   15  H   UNK N   1      19.393  15.542   6.169  0.00  0.00     0.158 HD
ENDBRANCH   9  13
BRANCH   1  16
HETATM   16  C   UNK N   1      24.322  17.894   4.723  0.00  0.00    -0.040 A 
HETATM   17  C   UNK N   1      24.955  16.980   3.913  0.00  0.00     0.048 A 
HETATM   18  C   UNK N   1      26.287  17.007   3.646  0.00  0.00     0.103 A 
HETATM   19  C   UNK N   1      27.075  18.040   4.224  0.00  0.00     0.118 A 
HETATM   20  C   UNK N   1      26.438  18.963   5.123  0.00  0.00     0.047 A 
HETATM   21  C   UNK N   1      25.077  18.866   5.345  0.00  0.00     0.030 A 
HETATM   22 Br   UNK N   1      27.263  20.424   6.048  0.00  0.00    -0.048 Br
BRANCH  18  23
HETATM   23  O   UNK N   1      26.721  16.056   2.783  0.00  0.00    -0.353 OA
HETATM   24  C   UNK N   1      25.978  15.432   1.820  0.00  0.00     0.210 C 
ENDBRANCH  18  23
BRANCH  19  25
HETATM   25  O   UNK N   1      28.382  18.123   3.885  0.00  0.00    -0.352 OA
HETATM   26  C   UNK N   1      29.410  17.570   4.604  0.00  0.00     0.210 C 
ENDBRANCH  19  25
ENDBRANCH   1  16
BRANCH   6  27
HETATM   27  N   UNK N   1      18.703  18.946   2.266  0.00  0.00    -0.395 N 
HETATM   28  H   UNK N   1      18.446  18.545   1.405  0.00  0.00     0.156 HD
HETATM   29  H   UNK N   1      18.012  19.151   2.937  0.00  0.00     0.156 HD
ENDBRANCH   6  27
BRANCH   5  30
HETATM   30  N   UNK N   1      20.029  21.055   0.905  0.00  0.00    -0.397 N 
HETATM   31  H   UNK N   1      19.627  20.624   0.117  0.00  0.00     0.156 HD
HETATM   32  H   UNK N   1      19.958  22.030   1.019  0.00  0.00     0.156 HD
ENDBRANCH   5  30
TORSDOF 6
ENDMDL
MODEL 4
REMARK VINA RESULT:      -6.6     17.317     19.242
REMARK  6 active torsions:
REMARK  status: ('A' for Active; 'I' for Inactive)
REMARK    1  A    between atoms: O_2  and  C_3 
REMARK    2  A    between atoms: C_12  and  C_5 
REMARK    3  A    between atoms: C_8  and  O_9 
REMARK    4  A    between atoms: C_16  and  N_26 
REMARK    5  A    between atoms: C_17  and  N_25 
REMARK    6  A    between atoms: C_20  and  N_24 
ROOT
HETATM    1  C   UNK N   1      36.242  11.477  15.067  0.00  0.00     0.102 A 
HETATM    2  C   UNK N   1      35.861  11.859  16.479  0.00  0.00    -0.008 A 
HETATM    3  C   UNK N   1      35.631  10.899  17.480  0.00  0.00     0.013 A 
HETATM    4  C   UNK N   1      35.331  11.257  18.777  0.00  0.00     0.032 A 
HETATM    5  C   UNK N   1      35.215  12.597  19.099  0.00  0.00     0.055 A 
HETATM    6  C   UNK N   1      35.411  13.583  18.109  0.00  0.00     0.087 A 
HETATM    7  C   UNK N   1      35.753  13.209  16.794  0.00  0.00     0.113 A 
HETATM    8  O   UNK N   1      35.997  14.153  15.844  0.00  0.00    -0.290 OA
HETATM    9  C   UNK N   1      36.409  13.886  14.566  0.00  0.00     0.159 A 
HETATM   10  C   UNK N   1      36.537  12.622  14.118  0.00  0.00     0.086 A 
HETATM   11  C   UNK N   1      36.961  12.387  12.743  0.00  0.00     0.100 C 
HETATM   12  N   UNK N   1      37.294  12.171  11.655  0.00  0.00    -0.191 NA
ENDROOT
BRANCH   9  13
HETATM   13  N   UNK N   1      36.721  14.969  13.710  0.00  0.00    -0.379 N 
HETATM   14  H   UNK N   1      36.016  15.405  13.178  0.00  0.00     0.158 HD
HETATM   15  H   UNK N   1      37.650  15.287  13.644  0.00  0.00     0.158 HD
ENDBRANCH   9  13
BRANCH   1  16
HETATM   16  C   UNK N   1      36.830  10.115  14.837  0.00  0.00    -0.040 A 
HETATM   17  C   UNK N   1      36.040   9.139  14.277  0.00  0.00     0.048 A 
HETATM   18  C   UNK N   1      36.516   7.940  13.849  0.00  0.00     0.103 A 
HETATM   19  C   UNK N   1      37.908   7.677  13.977  0.00  0.00     0.118 A 
HETATM   20  C   UNK N   1      38.734   8.663  14.619  0.00  0.00     0.047 A 
HETATM   21  C   UNK N   1      38.171   9.857  15.029  0.00  0.00     0.030 A 
HETATM   22 Br   UNK N   1      40.620   8.555  14.936  0.00  0.00    -0.048 Br
BRANCH  18  23
HETATM   23  O   UNK N   1      35.597   7.126  13.275  0.00  0.00    -0.353 OA
HETATM   24  C   UNK N   1      34.962   7.332  12.082  0.00  0.00     0.210 C 
ENDBRANCH  18  23
BRANCH  19  25
HETATM   25  O   UNK N   1      38.397   6.524  13.468  0.00  0.00    -0.352 OA
HETATM   26  C   UNK N   1      38.907   6.385  12.202  0.00  0.00     0.210 C 
ENDBRANCH  19  25
ENDBRANCH   1  16
BRANCH   6  27
HETATM   27  N   UNK N   1      35.271  14.945  18.437  0.00  0.00    -0.395 N 
HETATM   28  H   UNK N   1      36.065  15.520  18.520  0.00  0.00     0.156 HD
HETATM   29  H   UNK N   1      34.374  15.324  18.585  0.00  0.00     0.156 HD
ENDBRANCH   6  27
BRANCH   5  30
HETATM   30  N   UNK N   1      34.904  12.953  20.426  0.00  0.00    -0.397 N 
HETATM   31  H   UNK N   1      34.526  12.287  21.044  0.00  0.00     0.156 HD
HETATM   32  H   UNK N   1      35.065  13.873  20.736  0.00  0.00     0.156 HD
ENDBRANCH   5  30
TORSDOF 6
ENDMDL
MODEL 5
REMARK VINA RESULT:      -6.4      5.008      7.372
REMARK  6 active torsions:
REMARK  status: ('A' for Active; 'I' for Inactive)
REMARK    1  A    between atoms: O_2  and  C_3 
REMARK    2  A    between atoms: C_12  and  C_5 
REMARK    3  A    between atoms: C_8  and  O_9 
REMARK    4  A    between atoms: C_16  and  N_26 
REMARK    5  A    between atoms: C_17  and  N_25 
REMARK    6  A    between atoms: C_20  and  N_24 
ROOT
HETATM    1  C   UNK N   1      30.026  17.324   6.423  0.00  0.00     0.102 A 
HETATM    2  C   UNK N   1      28.885  18.168   5.905  0.00  0.00    -0.008 A 
HETATM    3  C   UNK N   1      28.493  18.154   4.555  0.00  0.00     0.013 A 
HETATM    4  C   UNK N   1      27.421  18.890   4.099  0.00  0.00     0.032 A 
HETATM    5  C   UNK N   1      26.728  19.695   4.986  0.00  0.00     0.055 A 
HETATM    6  C   UNK N   1      27.116  19.753   6.341  0.00  0.00     0.087 A 
HETATM    7  C   UNK N   1      28.191  18.969   6.805  0.00  0.00     0.113 A 
HETATM    8  O   UNK N   1      28.539  18.976   8.121  0.00  0.00    -0.290 OA
HETATM    9  C   UNK N   1      29.516  18.192   8.674  0.00  0.00     0.159 A 
HETATM   10  C   UNK N   1      30.280  17.381   7.916  0.00  0.00     0.086 A 
HETATM   11  C   UNK N   1      31.321  16.579   8.548  0.00  0.00     0.100 C 
HETATM   12  N   UNK N   1      32.156  15.932   9.022  0.00  0.00    -0.191 NA
ENDROOT
BRANCH   9  13
HETATM   13  N   UNK N   1      29.708  18.229  10.076  0.00  0.00    -0.379 N 
HETATM   14  H   UNK N   1      30.372  17.642  10.505  0.00  0.00     0.158 HD
HETATM   15  H   UNK N   1      29.172  18.844  10.626  0.00  0.00     0.158 HD
ENDBRANCH   9  13
BRANCH   1  16
HETATM   16  C   UNK N   1      30.445  16.129   5.616  0.00  0.00    -0.040 A 
HETATM   17  C   UNK N   1      29.596  15.049   5.543  0.00  0.00     0.048 A 
HETATM   18  C   UNK N   1      29.783  14.003   4.696  0.00  0.00     0.103 A 
HETATM   19  C   UNK N   1      30.910  14.023   3.829  0.00  0.00     0.118 A 
HETATM   20  C   UNK N   1      31.840  15.113   3.941  0.00  0.00     0.047 A 
HETATM   21  C   UNK N   1      31.579  16.139   4.831  0.00  0.00     0.030 A 
HETATM   22 Br   UNK N   1      33.438  15.374   2.918  0.00  0.00    -0.048 Br
BRANCH  18  23
HETATM   23  O   UNK N   1      28.814  13.057   4.727  0.00  0.00    -0.353 OA
HETATM   24  C   UNK N   1      27.484  13.247   4.468  0.00  0.00     0.210 C 
ENDBRANCH  18  23
BRANCH  19  25
HETATM   25  O   UNK N   1      31.046  13.029   2.922  0.00  0.00    -0.352 OA
HETATM   26  C   UNK N   1      31.775  11.885   3.123  0.00  0.00     0.210 C 
ENDBRANCH  19  25
ENDBRANCH   1  16
BRANCH   6  27
HETATM   27  N   UNK N   1      26.421  20.590   7.235  0.00  0.00    -0.395 N 
HETATM   28  H   UNK N   1      26.560  20.506   8.205  0.00  0.00     0.156 HD
HETATM   29  H   UNK N   1      25.792  21.264   6.886  0.00  0.00     0.156 HD
ENDBRANCH   6  27
BRANCH   5  30
HETATM   30  N   UNK N   1      25.637  20.447   4.510  0.00  0.00    -0.397 N 
HETATM   31  H   UNK N   1      24.715  20.181   4.730  0.00  0.00     0.156 HD
HETATM   32  H   UNK N   1      25.796  21.244   3.955  0.00  0.00     0.156 HD
ENDBRANCH   5  30
TORSDOF 6
ENDMDL
MODEL 6
REMARK VINA RESULT:      -6.2      4.427      7.991
REMARK  6 active torsions:
REMARK  status: ('A' for Active; 'I' for Inactive)
REMARK    1  A    between atoms: O_2  and  C_3 
REMARK    2  A    between atoms: C_12  and  C_5 
REMARK    3  A    between atoms: C_8  and  O_9 
REMARK    4  A    between atoms: C_16  and  N_26 
REMARK    5  A    between atoms: C_17  and  N_25 
REMARK    6  A    between atoms: C_20  and  N_24 
ROOT
HETATM    1  C   UNK N   1      28.511  17.021   4.938  0.00  0.00     0.102 A 
HETATM    2  C   UNK N   1      28.869  17.478   6.333  0.00  0.00    -0.008 A 
HETATM    3  C   UNK N   1      28.109  18.437   7.027  0.00  0.00     0.013 A 
HETATM    4  C   UNK N   1      28.414  18.813   8.317  0.00  0.00     0.032 A 
HETATM    5  C   UNK N   1      29.520  18.262   8.939  0.00  0.00     0.055 A 
HETATM    6  C   UNK N   1      30.319  17.321   8.257  0.00  0.00     0.087 A 
HETATM    7  C   UNK N   1      29.979  16.914   6.951  0.00  0.00     0.113 A 
HETATM    8  O   UNK N   1      30.711  15.965   6.305  0.00  0.00    -0.290 OA
HETATM    9  C   UNK N   1      30.412  15.455   5.071  0.00  0.00     0.159 A 
HETATM   10  C   UNK N   1      29.374  15.923   4.349  0.00  0.00     0.086 A 
HETATM   11  C   UNK N   1      29.106  15.361   3.031  0.00  0.00     0.100 C 
HETATM   12  N   UNK N   1      28.870  14.934   1.980  0.00  0.00    -0.191 NA
ENDROOT
BRANCH   9  13
HETATM   13  N   UNK N   1      31.205  14.402   4.558  0.00  0.00    -0.379 N 
HETATM   14  H   UNK N   1      31.526  14.425   3.627  0.00  0.00     0.158 HD
HETATM   15  H   UNK N   1      31.437  13.639   5.135  0.00  0.00     0.158 HD
ENDBRANCH   9  13
BRANCH   1  16
HETATM   16  C   UNK N   1      27.101  17.228   4.465  0.00  0.00    -0.040 A 
HETATM   17  C   UNK N   1      26.145  16.300   4.809  0.00  0.00     0.048 A 
HETATM   18  C   UNK N   1      24.814  16.482   4.603  0.00  0.00     0.103 A 
HETATM   19  C   UNK N   1      24.378  17.697   4.008  0.00  0.00     0.118 A 
HETATM   20  C   UNK N   1      25.371  18.646   3.585  0.00  0.00     0.047 A 
HETATM   21  C   UNK N   1      26.706  18.386   3.829  0.00  0.00     0.030 A 
HETATM   22 Br   UNK N   1      25.061  20.340   2.745  0.00  0.00    -0.048 Br
BRANCH  18  23
HETATM   23  O   UNK N   1      24.019  15.481   5.056  0.00  0.00    -0.353 OA
HETATM   24  C   UNK N   1      23.523  15.348   6.323  0.00  0.00     0.210 C 
ENDBRANCH  18  23
BRANCH  19  25
HETATM   25  O   UNK N   1      23.049  17.918   3.887  0.00  0.00    -0.352 OA
HETATM   26  C   UNK N   1      22.279  18.564   4.820  0.00  0.00     0.210 C 
ENDBRANCH  19  25
ENDBRANCH   1  16
BRANCH   6  27
HETATM   27  N   UNK N   1      31.456  16.779   8.886  0.00  0.00    -0.395 N 
HETATM   28  H   UNK N   1      32.250  17.338   9.047  0.00  0.00     0.156 HD
HETATM   29  H   UNK N   1      31.457  15.834   9.168  0.00  0.00     0.156 HD
ENDBRANCH   6  27
BRANCH   5  30
HETATM   30  N   UNK N   1      29.826  18.657  10.255  0.00  0.00    -0.397 N 
HETATM   31  H   UNK N   1      30.458  19.394  10.420  0.00  0.00     0.156 HD
HETATM   32  H   UNK N   1      29.406  18.194  11.015  0.00  0.00     0.156 HD
ENDBRANCH   5  30
TORSDOF 6
ENDMDL
MODEL 7
REMARK VINA RESULT:      -6.2      4.984      7.473
REMARK  6 active torsions:
REMARK  status: ('A' for Active; 'I' for Inactive)
REMARK    1  A    between atoms: O_2  and  C_3 
REMARK    2  A    between atoms: C_12  and  C_5 
REMARK    3  A    between atoms: C_8  and  O_9 
REMARK    4  A    between atoms: C_16  and  N_26 
REMARK    5  A    between atoms: C_17  and  N_25 
REMARK    6  A    between atoms: C_20  and  N_24 
ROOT
HETATM    1  C   UNK N   1      30.038  17.374   6.454  0.00  0.00     0.102 A 
HETATM    2  C   UNK N   1      28.903  18.235   5.953  0.00  0.00    -0.008 A 
HETATM    3  C   UNK N   1      28.537  18.279   4.596  0.00  0.00     0.013 A 
HETATM    4  C   UNK N   1      27.469  19.030   4.153  0.00  0.00     0.032 A 
HETATM    5  C   UNK N   1      26.757  19.793   5.061  0.00  0.00     0.055 A 
HETATM    6  C   UNK N   1      27.119  19.793   6.424  0.00  0.00     0.087 A 
HETATM    7  C   UNK N   1      28.189  18.994   6.874  0.00  0.00     0.113 A 
HETATM    8  O   UNK N   1      28.512  18.944   8.195  0.00  0.00    -0.290 OA
HETATM    9  C   UNK N   1      29.482  18.141   8.732  0.00  0.00     0.159 A 
HETATM   10  C   UNK N   1      30.264  17.366   7.954  0.00  0.00     0.086 A 
HETATM   11  C   UNK N   1      31.297  16.541   8.569  0.00  0.00     0.100 C 
HETATM   12  N   UNK N   1      32.126  15.877   9.030  0.00  0.00    -0.191 NA
ENDROOT
BRANCH   9  13
HETATM   13  N   UNK N   1      29.648  18.116  10.137  0.00  0.00    -0.379 N 
HETATM   14  H   UNK N   1      29.858  18.942  10.630  0.00  0.00     0.158 HD
HETATM   15  H   UNK N   1      29.553  17.267  10.625  0.00  0.00     0.158 HD
ENDBRANCH   9  13
BRANCH   1  16
HETATM   16  C   UNK N   1      30.478  16.217   5.605  0.00  0.00    -0.040 A 
HETATM   17  C   UNK N   1      31.793  16.149   5.209  0.00  0.00     0.048 A 
HETATM   18  C   UNK N   1      32.341  15.060   4.607  0.00  0.00     0.103 A 
HETATM   19  C   UNK N   1      31.519  13.924   4.379  0.00  0.00     0.118 A 
HETATM   20  C   UNK N   1      30.127  14.005   4.728  0.00  0.00     0.047 A 
HETATM   21  C   UNK N   1      29.646  15.150   5.335  0.00  0.00     0.030 A 
HETATM   22 Br   UNK N   1      28.802  12.638   4.511  0.00  0.00    -0.048 Br
BRANCH  18  23
HETATM   23  O   UNK N   1      33.666  15.157   4.338  0.00  0.00    -0.353 OA
HETATM   24  C   UNK N   1      34.675  15.279   5.254  0.00  0.00     0.210 C 
ENDBRANCH  18  23
BRANCH  19  25
HETATM   25  O   UNK N   1      32.085  12.808   3.865  0.00  0.00    -0.352 OA
HETATM   26  C   UNK N   1      32.291  12.583   2.528  0.00  0.00     0.210 C 
ENDBRANCH  19  25
ENDBRANCH   1  16
BRANCH   6  27
HETATM   27  N   UNK N   1      26.404  20.588   7.340  0.00  0.00    -0.395 N 
HETATM   28  H   UNK N   1      26.241  20.267   8.256  0.00  0.00     0.156 HD
HETATM   29  H   UNK N   1      26.064  21.470   7.063  0.00  0.00     0.156 HD
ENDBRANCH   6  27
BRANCH   5  30
HETATM   30  N   UNK N   1      25.671  20.561   4.598  0.00  0.00    -0.397 N 
HETATM   31  H   UNK N   1      25.441  21.413   5.035  0.00  0.00     0.156 HD
HETATM   32  H   UNK N   1      25.139  20.245   3.833  0.00  0.00     0.156 HD
ENDBRANCH   5  30
TORSDOF 6
ENDMDL
MODEL 8
REMARK VINA RESULT:      -6.2      3.043      7.127
REMARK  6 active torsions:
REMARK  status: ('A' for Active; 'I' for Inactive)
REMARK    1  A    between atoms: O_2  and  C_3 
REMARK    2  A    between atoms: C_12  and  C_5 
REMARK    3  A    between atoms: C_8  and  O_9 
REMARK    4  A    between atoms: C_16  and  N_26 
REMARK    5  A    between atoms: C_17  and  N_25 
REMARK    6  A    between atoms: C_20  and  N_24 
ROOT
HETATM    1  C   UNK N   1      24.521  18.330   4.553  0.00  0.00     0.102 A 
HETATM    2  C   UNK N   1      25.782  17.578   4.907  0.00  0.00    -0.008 A 
HETATM    3  C   UNK N   1      25.762  16.388   5.657  0.00  0.00     0.013 A 
HETATM    4  C   UNK N   1      26.912  15.682   5.935  0.00  0.00     0.032 A 
HETATM    5  C   UNK N   1      28.129  16.173   5.497  0.00  0.00     0.055 A 
HETATM    6  C   UNK N   1      28.185  17.380   4.768  0.00  0.00     0.087 A 
HETATM    7  C   UNK N   1      27.000  18.076   4.458  0.00  0.00     0.113 A 
HETATM    8  O   UNK N   1      27.037  19.212   3.708  0.00  0.00    -0.290 OA
HETATM    9  C   UNK N   1      25.935  19.910   3.294  0.00  0.00     0.159 A 
HETATM   10  C   UNK N   1      24.692  19.551   3.671  0.00  0.00     0.086 A 
HETATM   11  C   UNK N   1      23.550  20.337   3.220  0.00  0.00     0.100 C 
HETATM   12  N   UNK N   1      22.625  20.943   2.878  0.00  0.00    -0.191 NA
ENDROOT
BRANCH   9  13
HETATM   13  N   UNK N   1      26.114  21.021   2.436  0.00  0.00    -0.379 N 
HETATM   14  H   UNK N   1      25.491  21.783   2.468  0.00  0.00     0.158 HD
HETATM   15  H   UNK N   1      26.866  21.032   1.801  0.00  0.00     0.158 HD
ENDBRANCH   9  13
BRANCH   1  16
HETATM   16  C   UNK N   1      23.218  17.585   4.591  0.00  0.00    -0.040 A 
HETATM   17  C   UNK N   1      22.442  17.665   5.723  0.00  0.00     0.048 A 
HETATM   18  C   UNK N   1      21.169  17.195   5.797  0.00  0.00     0.103 A 
HETATM   19  C   UNK N   1      20.598  16.594   4.642  0.00  0.00     0.118 A 
HETATM   20  C   UNK N   1      21.420  16.447   3.471  0.00  0.00     0.047 A 
HETATM   21  C   UNK N   1      22.708  16.950   3.478  0.00  0.00     0.030 A 
HETATM   22 Br   UNK N   1      20.912  15.662   1.799  0.00  0.00    -0.048 Br
BRANCH  18  23
HETATM   23  O   UNK N   1      20.543  17.411   6.979  0.00  0.00    -0.353 OA
HETATM   24  C   UNK N   1      20.482  16.545   8.036  0.00  0.00     0.210 C 
ENDBRANCH  18  23
BRANCH  19  25
HETATM   25  O   UNK N   1      19.302  16.211   4.685  0.00  0.00    -0.352 OA
HETATM   26  C   UNK N   1      18.876  14.933   4.943  0.00  0.00     0.210 C 
ENDBRANCH  19  25
ENDBRANCH   1  16
BRANCH   6  27
HETATM   27  N   UNK N   1      29.428  17.885   4.343  0.00  0.00    -0.395 N 
HETATM   28  H   UNK N   1      29.996  18.396   4.963  0.00  0.00     0.156 HD
HETATM   29  H   UNK N   1      29.731  17.728   3.419  0.00  0.00     0.156 HD
ENDBRANCH   6  27
BRANCH   5  30
HETATM   30  N   UNK N   1      29.300  15.447   5.790  0.00  0.00    -0.397 N 
HETATM   31  H   UNK N   1      29.243  14.517   6.107  0.00  0.00     0.156 HD
HETATM   32  H   UNK N   1      30.180  15.872   5.677  0.00  0.00     0.156 HD
ENDBRANCH   5  30
TORSDOF 6
ENDMDL
MODEL 9
REMARK VINA RESULT:      -6.1     11.586     13.212
REMARK  6 active torsions:
REMARK  status: ('A' for Active; 'I' for Inactive)
REMARK    1  A    between atoms: O_2  and  C_3 
REMARK    2  A    between atoms: C_12  and  C_5 
REMARK    3  A    between atoms: C_8  and  O_9 
REMARK    4  A    between atoms: C_16  and  N_26 
REMARK    5  A    between atoms: C_17  and  N_25 
REMARK    6  A    between atoms: C_20  and  N_24 
ROOT
HETATM    1  C   UNK N   1      29.114  23.136  -5.061  0.00  0.00     0.102 A 
HETATM    2  C   UNK N   1      28.867  22.542  -6.427  0.00  0.00    -0.008 A 
HETATM    3  C   UNK N   1      28.155  23.229  -7.427  0.00  0.00     0.013 A 
HETATM    4  C   UNK N   1      27.975  22.700  -8.687  0.00  0.00     0.032 A 
HETATM    5  C   UNK N   1      28.475  21.442  -8.970  0.00  0.00     0.055 A 
HETATM    6  C   UNK N   1      29.167  20.716  -7.978  0.00  0.00     0.087 A 
HETATM    7  C   UNK N   1      29.378  21.279  -6.704  0.00  0.00     0.113 A 
HETATM    8  O   UNK N   1      30.093  20.610  -5.758  0.00  0.00    -0.290 OA
HETATM    9  C   UNK N   1      30.412  21.109  -4.524  0.00  0.00     0.159 A 
HETATM   10  C   UNK N   1      29.967  22.313  -4.115  0.00  0.00     0.086 A 
HETATM   11  C   UNK N   1      30.318  22.794  -2.784  0.00  0.00     0.100 C 
HETATM   12  N   UNK N   1      30.580  23.201  -1.732  0.00  0.00    -0.191 NA
ENDROOT
BRANCH   9  13
HETATM   13  N   UNK N   1      31.244  20.343  -3.673  0.00  0.00    -0.379 N 
HETATM   14  H   UNK N   1      32.224  20.405  -3.745  0.00  0.00     0.158 HD
HETATM   15  H   UNK N   1      30.841  19.743  -3.005  0.00  0.00     0.158 HD
ENDBRANCH   9  13
BRANCH   1  16
HETATM   16  C   UNK N   1      29.016  24.627  -4.908  0.00  0.00    -0.040 A 
HETATM   17  C   UNK N   1      27.897  25.158  -4.311  0.00  0.00     0.048 A 
HETATM   18  C   UNK N   1      27.787  26.464  -3.949  0.00  0.00     0.103 A 
HETATM   19  C   UNK N   1      28.887  27.331  -4.191  0.00  0.00     0.118 A 
HETATM   20  C   UNK N   1      30.037  26.803  -4.872  0.00  0.00     0.047 A 
HETATM   21  C   UNK N   1      30.071  25.463  -5.209  0.00  0.00     0.030 A 
HETATM   22 Br   UNK N   1      31.637  27.750  -5.337  0.00  0.00    -0.048 Br
BRANCH  18  23
HETATM   23  O   UNK N   1      26.630  26.793  -3.325  0.00  0.00    -0.353 OA
HETATM   24  C   UNK N   1      25.632  27.583  -3.826  0.00  0.00     0.210 C 
ENDBRANCH  18  23
BRANCH  19  25
HETATM   25  O   UNK N   1      28.815  28.607  -3.748  0.00  0.00    -0.352 OA
HETATM   26  C   UNK N   1      29.344  29.051  -2.563  0.00  0.00     0.210 C 
ENDBRANCH  19  25
ENDBRANCH   1  16
BRANCH   6  27
HETATM   27  N   UNK N   1      29.656  19.427  -8.266  0.00  0.00    -0.395 N 
HETATM   28  H   UNK N   1      30.556  19.310  -8.646  0.00  0.00     0.156 HD
HETATM   29  H   UNK N   1      29.094  18.638  -8.085  0.00  0.00     0.156 HD
ENDBRANCH   6  27
BRANCH   5  30
HETATM   30  N   UNK N   1      28.282  20.909 -10.259  0.00  0.00    -0.397 N 
HETATM   31  H   UNK N   1      27.598  20.217 -10.414  0.00  0.00     0.156 HD
HETATM   32  H   UNK N   1      28.833  21.229 -11.009  0.00  0.00     0.156 HD
ENDBRANCH   5  30
TORSDOF 6
ENDMDL
