MODEL 1
REMARK VINA RESULT:      -8.0      0.000      0.000
REMARK  15 active torsions:
REMARK  status: ('A' for Active; 'I' for Inactive)
REMARK    1  A    between atoms: C_2  and  O_3 
REMARK    2  A    between atoms: O_3  and  C_4 
REMARK    3  A    between atoms: C_4  and  O_6 
REMARK    4  A    between atoms: O_6  and  C_7 
REMARK    5  A    between atoms: C_8  and  C_7 
REMARK    6  A    between atoms: C_9  and  O_38 
REMARK    7  A    between atoms: C_10  and  O_37 
REMARK    8  A    between atoms: C_11  and  O_36 
REMARK    9  A    between atoms: C_12  and  O_14 
REMARK   10  A    between atoms: O_14  and  C_15 
REMARK   11  A    between atoms: C_16  and  C_25 
REMARK   12  A    between atoms: N_18  and  C_21 
REMARK   13  A    between atoms: C_25  and  C_26 
REMARK   14  A    between atoms: C_29  and  O_32 
REMARK   15  A    between atoms: O_32  and  C_33 
ROOT
HETATM    1  C   UNK N   1      29.178  17.883   5.300  0.00  0.00     0.168 A 
HETATM    2  C   UNK N   1      28.336  18.974   5.182  0.00  0.00     0.022 A 
HETATM    3  C   UNK N   1      28.075  19.342   6.503  0.00  0.00     0.036 A 
HETATM    4  N   UNK N   1      28.716  18.487   7.326  0.00  0.00    -0.290 N 
HETATM    5  N   UNK N   1      29.393  17.601   6.602  0.00  0.00    -0.277 N 
ATOM      6  HN  UNK N   1      29.972  16.843   6.964  1.00  0.00     0.189 HD
HETATM    7  C   UNK N   1      27.266  20.491   7.007  0.00  0.00     0.070 C 
ENDROOT
BRANCH   1   8
HETATM    8  O   UNK N   1      29.809  17.271   4.271  0.00  0.00    -0.300 OA
BRANCH   8   9
HETATM    9  C   UNK N   1      30.831  16.349   4.374  0.00  0.00     0.300 C 
HETATM   10  C   UNK N   1      30.713  15.432   5.599  0.00  0.00     0.205 C 
HETATM   11  C   UNK N   1      31.870  14.462   5.495  0.00  0.00     0.183 C 
HETATM   12  C   UNK N   1      33.197  15.210   5.552  0.00  0.00     0.180 C 
HETATM   13  C   UNK N   1      33.079  16.674   5.087  0.00  0.00     0.180 C 
HETATM   14  O   UNK N   1      32.111  16.902   4.074  0.00  0.00    -0.348 OA
BRANCH  10  15
HETATM   15  O   UNK N   1      29.506  14.733   5.538  0.00  0.00    -0.388 OA
HETATM   16  H   UNK N   1      28.858  14.896   4.835  0.00  0.00     0.210 HD
ENDBRANCH  10  15
BRANCH  11  17
HETATM   17  O   UNK N   1      31.818  13.494   6.499  0.00  0.00    -0.390 OA
HETATM   18  H   UNK N   1      31.968  13.353   7.447  0.00  0.00     0.210 HD
ENDBRANCH  11  17
BRANCH  12  19
HETATM   19  O   UNK N   1      34.135  14.528   4.777  0.00  0.00    -0.390 OA
HETATM   20  H   UNK N   1      35.037  14.362   5.092  0.00  0.00     0.210 HD
ENDBRANCH  12  19
BRANCH  13  21
HETATM   21  C   UNK N   1      32.933  17.650   6.251  0.00  0.00     0.215 C 
BRANCH  21  22
HETATM   22  O   UNK N   1      34.170  18.026   6.736  0.00  0.00    -0.295 OA
BRANCH  22  23
HETATM   23  C   UNK N   1      34.425  18.234   8.052  0.00  0.00     0.406 C 
HETATM   24  O   UNK N   1      35.046  19.231   8.389  0.00  0.00    -0.230 OA
BRANCH  23  25
HETATM   25  O   UNK N   1      34.011  17.334   8.983  0.00  0.00    -0.298 OA
BRANCH  25  26
HETATM   26  C   UNK N   1      34.600  16.100   9.130  0.00  0.00     0.176 C 
HETATM   27  C   UNK N   1      35.095  15.943  10.552  0.00  0.00     0.034 C 
ENDBRANCH  25  26
ENDBRANCH  23  25
ENDBRANCH  22  23
ENDBRANCH  21  22
ENDBRANCH  13  21
ENDBRANCH   8   9
ENDBRANCH   1   8
BRANCH   2  28
HETATM   28  C   UNK N   1      27.893  19.574   3.859  0.00  0.00     0.083 C 
BRANCH  28  29
HETATM   29  C   UNK N   1      26.425  19.514   3.626  0.00  0.00    -0.054 A 
HETATM   30  C   UNK N   1      25.790  20.580   2.986  0.00  0.00     0.010 A 
HETATM   31  C   UNK N   1      24.397  20.625   2.925  0.00  0.00     0.037 A 
HETATM   32  C   UNK N   1      23.636  19.622   3.530  0.00  0.00     0.069 A 
HETATM   33  C   UNK N   1      24.275  18.509   4.100  0.00  0.00     0.037 A 
HETATM   34  C   UNK N   1      25.668  18.447   4.126  0.00  0.00     0.010 A 
BRANCH  32  35
HETATM   35  O   UNK N   1      22.299  19.804   3.644  0.00  0.00    -0.347 OA
BRANCH  35  36
HETATM   36  C   UNK N   1      21.384  19.414   2.673  0.00  0.00     0.120 C 
HETATM   37  C   UNK N   1      20.254  18.579   3.234  0.00  0.00     0.040 C 
HETATM   38  C   UNK N   1      20.865  20.580   1.831  0.00  0.00     0.040 C 
ENDBRANCH  35  36
ENDBRANCH  32  35
ENDBRANCH  28  29
ENDBRANCH   2  28
BRANCH   4  39
HETATM   39  C   UNK N   1      28.714  18.554   8.795  0.00  0.00     0.100 C 
HETATM   40  C   UNK N   1      30.113  18.709   9.363  0.00  0.00     0.034 C 
HETATM   41  C   UNK N   1      28.072  17.316   9.399  0.00  0.00     0.034 C 
ENDBRANCH   4  39
TORSDOF 15
ENDMDL
MODEL 2
REMARK VINA RESULT:      -7.9      5.945     10.248
REMARK  15 active torsions:
REMARK  status: ('A' for Active; 'I' for Inactive)
REMARK    1  A    between atoms: C_2  and  O_3 
REMARK    2  A    between atoms: O_3  and  C_4 
REMARK    3  A    between atoms: C_4  and  O_6 
REMARK    4  A    between atoms: O_6  and  C_7 
REMARK    5  A    between atoms: C_8  and  C_7 
REMARK    6  A    between atoms: C_9  and  O_38 
REMARK    7  A    between atoms: C_10  and  O_37 
REMARK    8  A    between atoms: C_11  and  O_36 
REMARK    9  A    between atoms: C_12  and  O_14 
REMARK   10  A    between atoms: O_14  and  C_15 
REMARK   11  A    between atoms: C_16  and  C_25 
REMARK   12  A    between atoms: N_18  and  C_21 
REMARK   13  A    between atoms: C_25  and  C_26 
REMARK   14  A    between atoms: C_29  and  O_32 
REMARK   15  A    between atoms: O_32  and  C_33 
ROOT
HETATM    1  C   UNK N   1      21.449  15.789   3.513  0.00  0.00     0.168 A 
HETATM    2  C   UNK N   1      21.759  15.507   4.831  0.00  0.00     0.022 A 
HETATM    3  C   UNK N   1      23.041  14.958   4.766  0.00  0.00     0.036 A 
HETATM    4  N   UNK N   1      23.425  14.909   3.474  0.00  0.00    -0.290 N 
HETATM    5  N   UNK N   1      22.465  15.417   2.707  0.00  0.00    -0.277 N 
ATOM      6  HN  UNK N   1      22.491  15.511   1.692  1.00  0.00     0.189 HD
HETATM    7  C   UNK N   1      23.920  14.510   5.885  0.00  0.00     0.070 C 
ENDROOT
BRANCH   1   8
HETATM    8  O   UNK N   1      20.351  16.465   3.098  0.00  0.00    -0.300 OA
BRANCH   8   9
HETATM    9  C   UNK N   1      20.270  17.823   2.866  0.00  0.00     0.300 C 
HETATM   10  C   UNK N   1      20.716  18.235   1.456  0.00  0.00     0.205 C 
HETATM   11  C   UNK N   1      20.488  19.729   1.377  0.00  0.00     0.183 C 
HETATM   12  C   UNK N   1      21.345  20.453   2.409  0.00  0.00     0.180 C 
HETATM   13  C   UNK N   1      21.712  19.563   3.612  0.00  0.00     0.180 C 
HETATM   14  O   UNK N   1      20.728  18.604   3.967  0.00  0.00    -0.348 OA
BRANCH  10  15
HETATM   15  O   UNK N   1      19.919  17.586   0.511  0.00  0.00    -0.388 OA
HETATM   16  H   UNK N   1      18.955  17.531   0.609  0.00  0.00     0.210 HD
ENDBRANCH  10  15
BRANCH  11  17
HETATM   17  O   UNK N   1      20.753  20.221   0.099  0.00  0.00    -0.390 OA
HETATM   18  H   UNK N   1      20.680  20.004  -0.844  0.00  0.00     0.210 HD
ENDBRANCH  11  17
BRANCH  12  19
HETATM   19  O   UNK N   1      20.670  21.596   2.838  0.00  0.00    -0.390 OA
HETATM   20  H   UNK N   1      20.001  21.563   3.539  0.00  0.00     0.210 HD
ENDBRANCH  12  19
BRANCH  13  21
HETATM   21  C   UNK N   1      23.100  18.941   3.480  0.00  0.00     0.215 C 
BRANCH  21  22
HETATM   22  O   UNK N   1      24.079  19.831   3.874  0.00  0.00    -0.295 OA
BRANCH  22  23
HETATM   23  C   UNK N   1      25.120  20.194   3.085  0.00  0.00     0.406 C 
HETATM   24  O   UNK N   1      24.902  20.836   2.068  0.00  0.00    -0.230 OA
BRANCH  23  25
HETATM   25  O   UNK N   1      26.389  19.833   3.412  0.00  0.00    -0.298 OA
BRANCH  25  26
HETATM   26  C   UNK N   1      26.798  19.673   4.716  0.00  0.00     0.176 C 
HETATM   27  C   UNK N   1      27.054  21.030   5.335  0.00  0.00     0.034 C 
ENDBRANCH  25  26
ENDBRANCH  23  25
ENDBRANCH  22  23
ENDBRANCH  21  22
ENDBRANCH  13  21
ENDBRANCH   8   9
ENDBRANCH   1   8
BRANCH   2  28
HETATM   28  C   UNK N   1      20.847  15.807   6.008  0.00  0.00     0.083 C 
BRANCH  28  29
HETATM   29  C   UNK N   1      20.930  14.810   7.111  0.00  0.00    -0.054 A 
HETATM   30  C   UNK N   1      21.116  15.254   8.421  0.00  0.00     0.010 A 
HETATM   31  C   UNK N   1      21.381  14.336   9.436  0.00  0.00     0.037 A 
HETATM   32  C   UNK N   1      21.492  12.975   9.139  0.00  0.00     0.069 A 
HETATM   33  C   UNK N   1      21.222  12.521   7.838  0.00  0.00     0.037 A 
HETATM   34  C   UNK N   1      20.919  13.438   6.831  0.00  0.00     0.010 A 
BRANCH  32  35
HETATM   35  O   UNK N   1      21.961  12.140  10.096  0.00  0.00    -0.347 OA
BRANCH  35  36
HETATM   36  C   UNK N   1      23.064  12.426  10.892  0.00  0.00     0.120 C 
HETATM   37  C   UNK N   1      22.991  11.772  12.254  0.00  0.00     0.040 C 
HETATM   38  C   UNK N   1      24.397  12.145  10.197  0.00  0.00     0.040 C 
ENDBRANCH  35  36
ENDBRANCH  32  35
ENDBRANCH  28  29
ENDBRANCH   2  28
BRANCH   4  39
HETATM   39  C   UNK N   1      24.725  14.422   2.988  0.00  0.00     0.100 C 
HETATM   40  C   UNK N   1      25.695  15.556   2.711  0.00  0.00     0.034 C 
HETATM   41  C   UNK N   1      24.562  13.593   1.725  0.00  0.00     0.034 C 
ENDBRANCH   4  39
TORSDOF 15
ENDMDL
MODEL 3
REMARK VINA RESULT:      -7.8      5.896     10.338
REMARK  15 active torsions:
REMARK  status: ('A' for Active; 'I' for Inactive)
REMARK    1  A    between atoms: C_2  and  O_3 
REMARK    2  A    between atoms: O_3  and  C_4 
REMARK    3  A    between atoms: C_4  and  O_6 
REMARK    4  A    between atoms: O_6  and  C_7 
REMARK    5  A    between atoms: C_8  and  C_7 
REMARK    6  A    between atoms: C_9  and  O_38 
REMARK    7  A    between atoms: C_10  and  O_37 
REMARK    8  A    between atoms: C_11  and  O_36 
REMARK    9  A    between atoms: C_12  and  O_14 
REMARK   10  A    between atoms: O_14  and  C_15 
REMARK   11  A    between atoms: C_16  and  C_25 
REMARK   12  A    between atoms: N_18  and  C_21 
REMARK   13  A    between atoms: C_25  and  C_26 
REMARK   14  A    between atoms: C_29  and  O_32 
REMARK   15  A    between atoms: O_32  and  C_33 
ROOT
HETATM    1  C   UNK N   1      24.307  17.939   4.858  0.00  0.00     0.168 A 
HETATM    2  C   UNK N   1      25.144  16.857   5.060  0.00  0.00     0.022 A 
HETATM    3  C   UNK N   1      26.359  17.435   5.429  0.00  0.00     0.036 A 
HETATM    4  N   UNK N   1      26.224  18.777   5.411  0.00  0.00    -0.290 N 
HETATM    5  N   UNK N   1      24.977  19.091   5.070  0.00  0.00    -0.277 N 
ATOM      6  HN  UNK N   1      24.595  20.032   4.985  1.00  0.00     0.189 HD
HETATM    7  C   UNK N   1      27.630  16.759   5.826  0.00  0.00     0.070 C 
ENDROOT
BRANCH   1   8
HETATM    8  O   UNK N   1      22.977  17.862   4.618  0.00  0.00    -0.300 OA
BRANCH   8   9
HETATM    9  C   UNK N   1      22.359  18.007   3.393  0.00  0.00     0.300 C 
HETATM   10  C   UNK N   1      21.530  19.293   3.269  0.00  0.00     0.205 C 
HETATM   11  C   UNK N   1      21.002  19.302   1.851  0.00  0.00     0.183 C 
HETATM   12  C   UNK N   1      20.100  18.096   1.612  0.00  0.00     0.180 C 
HETATM   13  C   UNK N   1      20.419  16.917   2.550  0.00  0.00     0.180 C 
HETATM   14  O   UNK N   1      21.787  16.794   2.910  0.00  0.00    -0.348 OA
BRANCH  10  15
HETATM   15  O   UNK N   1      22.360  20.399   3.469  0.00  0.00    -0.388 OA
HETATM   16  H   UNK N   1      23.212  20.320   3.925  0.00  0.00     0.210 HD
ENDBRANCH  10  15
BRANCH  11  17
HETATM   17  O   UNK N   1      20.314  20.483   1.568  0.00  0.00    -0.390 OA
HETATM   18  H   UNK N   1      19.503  20.974   1.772  0.00  0.00     0.210 HD
ENDBRANCH  11  17
BRANCH  12  19
HETATM   19  O   UNK N   1      20.213  17.703   0.279  0.00  0.00    -0.390 OA
HETATM   20  H   UNK N   1      19.652  17.009  -0.100  0.00  0.00     0.210 HD
ENDBRANCH  12  19
BRANCH  13  21
HETATM   21  C   UNK N   1      19.497  16.866   3.765  0.00  0.00     0.215 C 
BRANCH  21  22
HETATM   22  O   UNK N   1      20.054  16.108   4.775  0.00  0.00    -0.295 OA
BRANCH  22  23
HETATM   23  C   UNK N   1      19.320  15.425   5.689  0.00  0.00     0.406 C 
HETATM   24  O   UNK N   1      19.084  14.241   5.499  0.00  0.00    -0.230 OA
BRANCH  23  25
HETATM   25  O   UNK N   1      18.838  16.054   6.793  0.00  0.00    -0.298 OA
BRANCH  25  26
HETATM   26  C   UNK N   1      19.662  16.620   7.738  0.00  0.00     0.176 C 
HETATM   27  C   UNK N   1      19.618  15.793   9.005  0.00  0.00     0.034 C 
ENDBRANCH  25  26
ENDBRANCH  23  25
ENDBRANCH  22  23
ENDBRANCH  21  22
ENDBRANCH  13  21
ENDBRANCH   8   9
ENDBRANCH   1   8
BRANCH   2  28
HETATM   28  C   UNK N   1      24.716  15.406   4.921  0.00  0.00     0.083 C 
BRANCH  28  29
HETATM   29  C   UNK N   1      24.252  14.785   6.191  0.00  0.00    -0.054 A 
HETATM   30  C   UNK N   1      25.185  14.189   7.041  0.00  0.00     0.010 A 
HETATM   31  C   UNK N   1      24.751  13.444   8.138  0.00  0.00     0.037 A 
HETATM   32  C   UNK N   1      23.384  13.267   8.369  0.00  0.00     0.069 A 
HETATM   33  C   UNK N   1      22.449  13.936   7.563  0.00  0.00     0.037 A 
HETATM   34  C   UNK N   1      22.886  14.712   6.490  0.00  0.00     0.010 A 
BRANCH  32  35
HETATM   35  O   UNK N   1      22.998  12.367   9.304  0.00  0.00    -0.347 OA
BRANCH  35  36
HETATM   36  C   UNK N   1      22.549  12.719  10.571  0.00  0.00     0.120 C 
HETATM   37  C   UNK N   1      21.044  12.641  10.703  0.00  0.00     0.040 C 
HETATM   38  C   UNK N   1      23.258  11.960  11.693  0.00  0.00     0.040 C 
ENDBRANCH  35  36
ENDBRANCH  32  35
ENDBRANCH  28  29
ENDBRANCH   2  28
BRANCH   4  39
HETATM   39  C   UNK N   1      27.271  19.746   5.767  0.00  0.00     0.100 C 
HETATM   40  C   UNK N   1      26.706  20.973   6.458  0.00  0.00     0.034 C 
HETATM   41  C   UNK N   1      28.050  20.187   4.539  0.00  0.00     0.034 C 
ENDBRANCH   4  39
TORSDOF 15
ENDMDL
MODEL 4
REMARK VINA RESULT:      -7.7      4.986      9.740
REMARK  15 active torsions:
REMARK  status: ('A' for Active; 'I' for Inactive)
REMARK    1  A    between atoms: C_2  and  O_3 
REMARK    2  A    between atoms: O_3  and  C_4 
REMARK    3  A    between atoms: C_4  and  O_6 
REMARK    4  A    between atoms: O_6  and  C_7 
REMARK    5  A    between atoms: C_8  and  C_7 
REMARK    6  A    between atoms: C_9  and  O_38 
REMARK    7  A    between atoms: C_10  and  O_37 
REMARK    8  A    between atoms: C_11  and  O_36 
REMARK    9  A    between atoms: C_12  and  O_14 
REMARK   10  A    between atoms: O_14  and  C_15 
REMARK   11  A    between atoms: C_16  and  C_25 
REMARK   12  A    between atoms: N_18  and  C_21 
REMARK   13  A    between atoms: C_25  and  C_26 
REMARK   14  A    between atoms: C_29  and  O_32 
REMARK   15  A    between atoms: O_32  and  C_33 
ROOT
HETATM    1  C   UNK N   1      20.343  16.605   5.387  0.00  0.00     0.168 A 
HETATM    2  C   UNK N   1      21.091  15.584   5.943  0.00  0.00     0.022 A 
HETATM    3  C   UNK N   1      20.717  15.585   7.288  0.00  0.00     0.036 A 
HETATM    4  N   UNK N   1      19.822  16.575   7.487  0.00  0.00    -0.290 N 
HETATM    5  N   UNK N   1      19.586  17.195   6.335  0.00  0.00    -0.277 N 
ATOM      6  HN  UNK N   1      18.946  17.976   6.192  1.00  0.00     0.189 HD
HETATM    7  C   UNK N   1      21.156  14.665   8.378  0.00  0.00     0.070 C 
ENDROOT
BRANCH   1   8
HETATM    8  O   UNK N   1      20.270  16.887   4.065  0.00  0.00    -0.300 OA
BRANCH   8   9
HETATM    9  C   UNK N   1      20.300  18.145   3.497  0.00  0.00     0.300 C 
HETATM   10  C   UNK N   1      20.544  18.131   1.981  0.00  0.00     0.205 C 
HETATM   11  C   UNK N   1      20.471  19.578   1.543  0.00  0.00     0.183 C 
HETATM   12  C   UNK N   1      21.565  20.394   2.222  0.00  0.00     0.180 C 
HETATM   13  C   UNK N   1      22.030  19.778   3.556  0.00  0.00     0.180 C 
HETATM   14  O   UNK N   1      21.020  19.092   4.281  0.00  0.00    -0.348 OA
BRANCH  10  15
HETATM   15  O   UNK N   1      19.532  17.398   1.357  0.00  0.00    -0.388 OA
HETATM   16  H   UNK N   1      18.661  17.282   1.767  0.00  0.00     0.210 HD
ENDBRANCH  10  15
BRANCH  11  17
HETATM   17  O   UNK N   1      20.568  19.699   0.157  0.00  0.00    -0.390 OA
HETATM   18  H   UNK N   1      20.450  19.210  -0.673  0.00  0.00     0.210 HD
ENDBRANCH  11  17
BRANCH  12  19
HETATM   19  O   UNK N   1      21.101  21.694   2.423  0.00  0.00    -0.390 OA
HETATM   20  H   UNK N   1      21.634  22.364   2.878  0.00  0.00     0.210 HD
ENDBRANCH  12  19
BRANCH  13  21
HETATM   21  C   UNK N   1      23.298  18.943   3.405  0.00  0.00     0.215 C 
BRANCH  21  22
HETATM   22  O   UNK N   1      24.392  19.611   3.918  0.00  0.00    -0.295 OA
BRANCH  22  23
HETATM   23  C   UNK N   1      25.303  20.255   3.147  0.00  0.00     0.406 C 
HETATM   24  O   UNK N   1      24.941  20.768   2.098  0.00  0.00    -0.230 OA
BRANCH  23  25
HETATM   25  O   UNK N   1      26.606  20.315   3.528  0.00  0.00    -0.298 OA
BRANCH  25  26
HETATM   26  C   UNK N   1      27.033  19.899   4.767  0.00  0.00     0.176 C 
HETATM   27  C   UNK N   1      27.227  21.102   5.665  0.00  0.00     0.034 C 
ENDBRANCH  25  26
ENDBRANCH  23  25
ENDBRANCH  22  23
ENDBRANCH  21  22
ENDBRANCH  13  21
ENDBRANCH   8   9
ENDBRANCH   1   8
BRANCH   2  28
HETATM   28  C   UNK N   1      22.046  14.698   5.161  0.00  0.00     0.083 C 
BRANCH  28  29
HETATM   29  C   UNK N   1      23.309  15.374   4.758  0.00  0.00    -0.054 A 
HETATM   30  C   UNK N   1      23.803  15.187   3.466  0.00  0.00     0.010 A 
HETATM   31  C   UNK N   1      25.072  15.658   3.130  0.00  0.00     0.037 A 
HETATM   32  C   UNK N   1      25.863  16.290   4.094  0.00  0.00     0.069 A 
HETATM   33  C   UNK N   1      25.333  16.552   5.367  0.00  0.00     0.037 A 
HETATM   34  C   UNK N   1      24.048  16.114   5.689  0.00  0.00     0.010 A 
BRANCH  32  35
HETATM   35  O   UNK N   1      27.161  16.538   3.802  0.00  0.00    -0.347 OA
BRANCH  35  36
HETATM   36  C   UNK N   1      28.115  15.542   3.630  0.00  0.00     0.120 C 
HETATM   37  C   UNK N   1      29.297  15.998   2.804  0.00  0.00     0.040 C 
HETATM   38  C   UNK N   1      28.555  14.896   4.944  0.00  0.00     0.040 C 
ENDBRANCH  35  36
ENDBRANCH  32  35
ENDBRANCH  28  29
ENDBRANCH   2  28
BRANCH   4  39
HETATM   39  C   UNK N   1      19.164  16.886   8.765  0.00  0.00     0.100 C 
HETATM   40  C   UNK N   1      17.651  16.859   8.652  0.00  0.00     0.034 C 
HETATM   41  C   UNK N   1      19.595  18.248   9.285  0.00  0.00     0.034 C 
ENDBRANCH   4  39
TORSDOF 15
ENDMDL
MODEL 5
REMARK VINA RESULT:      -7.7      4.539     10.042
REMARK  15 active torsions:
REMARK  status: ('A' for Active; 'I' for Inactive)
REMARK    1  A    between atoms: C_2  and  O_3 
REMARK    2  A    between atoms: O_3  and  C_4 
REMARK    3  A    between atoms: C_4  and  O_6 
REMARK    4  A    between atoms: O_6  and  C_7 
REMARK    5  A    between atoms: C_8  and  C_7 
REMARK    6  A    between atoms: C_9  and  O_38 
REMARK    7  A    between atoms: C_10  and  O_37 
REMARK    8  A    between atoms: C_11  and  O_36 
REMARK    9  A    between atoms: C_12  and  O_14 
REMARK   10  A    between atoms: O_14  and  C_15 
REMARK   11  A    between atoms: C_16  and  C_25 
REMARK   12  A    between atoms: N_18  and  C_21 
REMARK   13  A    between atoms: C_25  and  C_26 
REMARK   14  A    between atoms: C_29  and  O_32 
REMARK   15  A    between atoms: O_32  and  C_33 
ROOT
HETATM    1  C   UNK N   1      20.575  16.024   5.922  0.00  0.00     0.168 A 
HETATM    2  C   UNK N   1      21.248  15.146   6.752  0.00  0.00     0.022 A 
HETATM    3  C   UNK N   1      20.743  15.429   8.022  0.00  0.00     0.036 A 
HETATM    4  N   UNK N   1      19.849  16.434   7.919  0.00  0.00    -0.290 N 
HETATM    5  N   UNK N   1      19.738  16.797   6.644  0.00  0.00    -0.277 N 
ATOM      6  HN  UNK N   1      19.128  17.527   6.277  1.00  0.00     0.189 HD
HETATM    7  C   UNK N   1      21.057  14.761   9.320  0.00  0.00     0.070 C 
ENDROOT
BRANCH   1   8
HETATM    8  O   UNK N   1      20.638  16.020   4.570  0.00  0.00    -0.300 OA
BRANCH   8   9
HETATM    9  C   UNK N   1      20.233  17.040   3.733  0.00  0.00     0.300 C 
HETATM   10  C   UNK N   1      20.672  16.852   2.274  0.00  0.00     0.205 C 
HETATM   11  C   UNK N   1      20.079  18.019   1.515  0.00  0.00     0.183 C 
HETATM   12  C   UNK N   1      20.638  19.336   2.043  0.00  0.00     0.180 C 
HETATM   13  C   UNK N   1      21.121  19.236   3.503  0.00  0.00     0.180 C 
HETATM   14  O   UNK N   1      20.387  18.333   4.315  0.00  0.00    -0.348 OA
BRANCH  10  15
HETATM   15  O   UNK N   1      20.145  15.655   1.784  0.00  0.00    -0.388 OA
HETATM   16  H   UNK N   1      19.999  15.514   0.835  0.00  0.00     0.210 HD
ENDBRANCH  10  15
BRANCH  11  17
HETATM   17  O   UNK N   1      20.313  17.911   0.144  0.00  0.00    -0.390 OA
HETATM   18  H   UNK N   1      20.166  18.359  -0.704  0.00  0.00     0.210 HD
ENDBRANCH  11  17
BRANCH  12  19
HETATM   19  O   UNK N   1      19.662  20.324   1.920  0.00  0.00    -0.390 OA
HETATM   20  H   UNK N   1      18.918  20.391   2.538  0.00  0.00     0.210 HD
ENDBRANCH  12  19
BRANCH  13  21
HETATM   21  C   UNK N   1      22.627  19.012   3.609  0.00  0.00     0.215 C 
BRANCH  21  22
HETATM   22  O   UNK N   1      23.315  20.197   3.437  0.00  0.00    -0.295 OA
BRANCH  22  23
HETATM   23  C   UNK N   1      24.584  20.262   2.962  0.00  0.00     0.406 C 
HETATM   24  O   UNK N   1      24.814  20.937   1.969  0.00  0.00    -0.230 OA
BRANCH  23  25
HETATM   25  O   UNK N   1      25.583  19.571   3.571  0.00  0.00    -0.298 OA
BRANCH  25  26
HETATM   26  C   UNK N   1      26.752  20.169   3.977  0.00  0.00     0.176 C 
HETATM   27  C   UNK N   1      26.529  20.865   5.303  0.00  0.00     0.034 C 
ENDBRANCH  25  26
ENDBRANCH  23  25
ENDBRANCH  22  23
ENDBRANCH  21  22
ENDBRANCH  13  21
ENDBRANCH   8   9
ENDBRANCH   1   8
BRANCH   2  28
HETATM   28  C   UNK N   1      22.261  14.121   6.273  0.00  0.00     0.083 C 
BRANCH  28  29
HETATM   29  C   UNK N   1      23.675  14.576   6.360  0.00  0.00    -0.054 A 
HETATM   30  C   UNK N   1      24.507  14.040   7.345  0.00  0.00     0.010 A 
HETATM   31  C   UNK N   1      25.772  14.585   7.559  0.00  0.00     0.037 A 
HETATM   32  C   UNK N   1      26.197  15.687   6.813  0.00  0.00     0.069 A 
HETATM   33  C   UNK N   1      25.395  16.172   5.767  0.00  0.00     0.037 A 
HETATM   34  C   UNK N   1      24.145  15.600   5.528  0.00  0.00     0.010 A 
BRANCH  32  35
HETATM   35  O   UNK N   1      27.330  16.325   7.189  0.00  0.00    -0.347 OA
BRANCH  35  36
HETATM   36  C   UNK N   1      27.813  17.469   6.564  0.00  0.00     0.120 C 
HETATM   37  C   UNK N   1      28.278  18.522   7.545  0.00  0.00     0.040 C 
HETATM   38  C   UNK N   1      28.874  17.172   5.503  0.00  0.00     0.040 C 
ENDBRANCH  35  36
ENDBRANCH  32  35
ENDBRANCH  28  29
ENDBRANCH   2  28
BRANCH   4  39
HETATM   39  C   UNK N   1      19.074  17.005   9.030  0.00  0.00     0.100 C 
HETATM   40  C   UNK N   1      17.589  17.067   8.722  0.00  0.00     0.034 C 
HETATM   41  C   UNK N   1      19.563  18.400   9.380  0.00  0.00     0.034 C 
ENDBRANCH   4  39
TORSDOF 15
ENDMDL
MODEL 6
REMARK VINA RESULT:      -7.6      5.058     12.228
REMARK  15 active torsions:
REMARK  status: ('A' for Active; 'I' for Inactive)
REMARK    1  A    between atoms: C_2  and  O_3 
REMARK    2  A    between atoms: O_3  and  C_4 
REMARK    3  A    between atoms: C_4  and  O_6 
REMARK    4  A    between atoms: O_6  and  C_7 
REMARK    5  A    between atoms: C_8  and  C_7 
REMARK    6  A    between atoms: C_9  and  O_38 
REMARK    7  A    between atoms: C_10  and  O_37 
REMARK    8  A    between atoms: C_11  and  O_36 
REMARK    9  A    between atoms: C_12  and  O_14 
REMARK   10  A    between atoms: O_14  and  C_15 
REMARK   11  A    between atoms: C_16  and  C_25 
REMARK   12  A    between atoms: N_18  and  C_21 
REMARK   13  A    between atoms: C_25  and  C_26 
REMARK   14  A    between atoms: C_29  and  O_32 
REMARK   15  A    between atoms: O_32  and  C_33 
ROOT
HETATM    1  C   UNK N   1      34.901  13.578  10.428  0.00  0.00     0.168 A 
HETATM    2  C   UNK N   1      35.890  13.245  11.335  0.00  0.00     0.022 A 
HETATM    3  C   UNK N   1      36.246  11.942  10.983  0.00  0.00     0.036 A 
HETATM    4  N   UNK N   1      35.479  11.549   9.945  0.00  0.00    -0.290 N 
HETATM    5  N   UNK N   1      34.663  12.540   9.599  0.00  0.00    -0.277 N 
ATOM      6  HN  UNK N   1      33.980  12.521   8.842  1.00  0.00     0.189 HD
HETATM    7  C   UNK N   1      37.305  11.073  11.576  0.00  0.00     0.070 C 
ENDROOT
BRANCH   1   8
HETATM    8  O   UNK N   1      34.347  14.806  10.295  0.00  0.00    -0.300 OA
BRANCH   8   9
HETATM    9  C   UNK N   1      34.491  15.651   9.213  0.00  0.00     0.300 C 
HETATM   10  C   UNK N   1      34.652  17.128   9.602  0.00  0.00     0.205 C 
HETATM   11  C   UNK N   1      34.864  17.871   8.301  0.00  0.00     0.183 C 
HETATM   12  C   UNK N   1      33.646  17.719   7.397  0.00  0.00     0.180 C 
HETATM   13  C   UNK N   1      32.836  16.443   7.696  0.00  0.00     0.180 C 
HETATM   14  O   UNK N   1      33.608  15.336   8.139  0.00  0.00    -0.348 OA
BRANCH  10  15
HETATM   15  O   UNK N   1      35.779  17.271  10.415  0.00  0.00    -0.388 OA
HETATM   16  H   UNK N   1      36.477  16.598  10.440  0.00  0.00     0.210 HD
ENDBRANCH  10  15
BRANCH  11  17
HETATM   17  O   UNK N   1      35.136  19.222   8.522  0.00  0.00    -0.390 OA
HETATM   18  H   UNK N   1      35.133  20.092   8.093  0.00  0.00     0.210 HD
ENDBRANCH  11  17
BRANCH  12  19
HETATM   19  O   UNK N   1      34.065  17.729   6.067  0.00  0.00    -0.390 OA
HETATM   20  H   UNK N   1      33.847  17.009   5.455  0.00  0.00     0.210 HD
ENDBRANCH  12  19
BRANCH  13  21
HETATM   21  C   UNK N   1      31.636  16.707   8.601  0.00  0.00     0.215 C 
BRANCH  21  22
HETATM   22  O   UNK N   1      31.062  17.929   8.314  0.00  0.00    -0.295 OA
BRANCH  22  23
HETATM   23  C   UNK N   1      29.884  18.344   8.844  0.00  0.00     0.406 C 
HETATM   24  O   UNK N   1      29.887  18.931   9.917  0.00  0.00    -0.230 OA
BRANCH  23  25
HETATM   25  O   UNK N   1      28.714  18.096   8.199  0.00  0.00    -0.298 OA
BRANCH  25  26
HETATM   26  C   UNK N   1      28.198  18.949   7.252  0.00  0.00     0.176 C 
HETATM   27  C   UNK N   1      28.436  18.374   5.872  0.00  0.00     0.034 C 
ENDBRANCH  25  26
ENDBRANCH  23  25
ENDBRANCH  22  23
ENDBRANCH  21  22
ENDBRANCH  13  21
ENDBRANCH   8   9
ENDBRANCH   1   8
BRANCH   2  28
HETATM   28  C   UNK N   1      36.418  14.181  12.408  0.00  0.00     0.083 C 
BRANCH  28  29
HETATM   29  C   UNK N   1      35.967  13.844  13.786  0.00  0.00    -0.054 A 
HETATM   30  C   UNK N   1      36.702  14.306  14.878  0.00  0.00     0.010 A 
HETATM   31  C   UNK N   1      36.404  13.849  16.162  0.00  0.00     0.037 A 
HETATM   32  C   UNK N   1      35.391  12.905  16.352  0.00  0.00     0.069 A 
HETATM   33  C   UNK N   1      34.599  12.504  15.265  0.00  0.00     0.037 A 
HETATM   34  C   UNK N   1      34.874  12.993  13.987  0.00  0.00     0.010 A 
BRANCH  32  35
HETATM   35  O   UNK N   1      35.272  12.322  17.568  0.00  0.00    -0.347 OA
BRANCH  35  36
HETATM   36  C   UNK N   1      35.278  10.946  17.764  0.00  0.00     0.120 C 
HETATM   37  C   UNK N   1      36.474  10.268  17.133  0.00  0.00     0.040 C 
HETATM   38  C   UNK N   1      35.107  10.547  19.231  0.00  0.00     0.040 C 
ENDBRANCH  35  36
ENDBRANCH  32  35
ENDBRANCH  28  29
ENDBRANCH   2  28
BRANCH   4  39
HETATM   39  C   UNK N   1      35.566  10.249   9.263  0.00  0.00     0.100 C 
HETATM   40  C   UNK N   1      36.072  10.382   7.839  0.00  0.00     0.034 C 
HETATM   41  C   UNK N   1      34.217   9.549   9.243  0.00  0.00     0.034 C 
ENDBRANCH   4  39
TORSDOF 15
ENDMDL
MODEL 7
REMARK VINA RESULT:      -7.5      5.720     10.488
REMARK  15 active torsions:
REMARK  status: ('A' for Active; 'I' for Inactive)
REMARK    1  A    between atoms: C_2  and  O_3 
REMARK    2  A    between atoms: O_3  and  C_4 
REMARK    3  A    between atoms: C_4  and  O_6 
REMARK    4  A    between atoms: O_6  and  C_7 
REMARK    5  A    between atoms: C_8  and  C_7 
REMARK    6  A    between atoms: C_9  and  O_38 
REMARK    7  A    between atoms: C_10  and  O_37 
REMARK    8  A    between atoms: C_11  and  O_36 
REMARK    9  A    between atoms: C_12  and  O_14 
REMARK   10  A    between atoms: O_14  and  C_15 
REMARK   11  A    between atoms: C_16  and  C_25 
REMARK   12  A    between atoms: N_18  and  C_21 
REMARK   13  A    between atoms: C_25  and  C_26 
REMARK   14  A    between atoms: C_29  and  O_32 
REMARK   15  A    between atoms: O_32  and  C_33 
ROOT
HETATM    1  C   UNK N   1      20.779  15.431   3.450  0.00  0.00     0.168 A 
HETATM    2  C   UNK N   1      21.733  14.998   4.353  0.00  0.00     0.022 A 
HETATM    3  C   UNK N   1      22.522  14.116   3.612  0.00  0.00     0.036 A 
HETATM    4  N   UNK N   1      22.023  14.035   2.361  0.00  0.00    -0.290 N 
HETATM    5  N   UNK N   1      20.967  14.835   2.254  0.00  0.00    -0.277 N 
ATOM      6  HN  UNK N   1      20.400  14.975   1.418  1.00  0.00     0.189 HD
HETATM    7  C   UNK N   1      23.745  13.376   4.042  0.00  0.00     0.070 C 
ENDROOT
BRANCH   1   8
HETATM    8  O   UNK N   1      19.873  16.410   3.682  0.00  0.00    -0.300 OA
BRANCH   8   9
HETATM    9  C   UNK N   1      20.006  17.741   3.342  0.00  0.00     0.300 C 
HETATM   10  C   UNK N   1      20.381  17.966   1.871  0.00  0.00     0.205 C 
HETATM   11  C   UNK N   1      20.408  19.468   1.683  0.00  0.00     0.183 C 
HETATM   12  C   UNK N   1      21.472  20.096   2.576  0.00  0.00     0.180 C 
HETATM   13  C   UNK N   1      21.792  19.240   3.816  0.00  0.00     0.180 C 
HETATM   14  O   UNK N   1      20.694  18.502   4.332  0.00  0.00    -0.348 OA
BRANCH  10  15
HETATM   15  O   UNK N   1      19.397  17.407   1.052  0.00  0.00    -0.388 OA
HETATM   16  H   UNK N   1      18.455  17.594   1.188  0.00  0.00     0.210 HD
ENDBRANCH  10  15
BRANCH  11  17
HETATM   17  O   UNK N   1      20.631  19.813   0.349  0.00  0.00    -0.390 OA
HETATM   18  H   UNK N   1      21.294  20.186  -0.253  0.00  0.00     0.210 HD
ENDBRANCH  11  17
BRANCH  12  19
HETATM   19  O   UNK N   1      21.049  21.368   2.959  0.00  0.00    -0.390 OA
HETATM   20  H   UNK N   1      21.340  22.167   2.493  0.00  0.00     0.210 HD
ENDBRANCH  12  19
BRANCH  13  21
HETATM   21  C   UNK N   1      23.032  18.371   3.626  0.00  0.00     0.215 C 
BRANCH  21  22
HETATM   22  O   UNK N   1      23.774  18.309   4.789  0.00  0.00    -0.295 OA
BRANCH  22  23
HETATM   23  C   UNK N   1      25.103  18.573   4.842  0.00  0.00     0.406 C 
HETATM   24  O   UNK N   1      25.502  19.688   4.538  0.00  0.00    -0.230 OA
BRANCH  23  25
HETATM   25  O   UNK N   1      25.982  17.605   5.213  0.00  0.00    -0.298 OA
BRANCH  25  26
HETATM   26  C   UNK N   1      25.589  16.316   5.484  0.00  0.00     0.176 C 
HETATM   27  C   UNK N   1      26.579  15.676   6.435  0.00  0.00     0.034 C 
ENDBRANCH  25  26
ENDBRANCH  23  25
ENDBRANCH  22  23
ENDBRANCH  21  22
ENDBRANCH  13  21
ENDBRANCH   8   9
ENDBRANCH   1   8
BRANCH   2  28
HETATM   28  C   UNK N   1      21.827  15.475   5.792  0.00  0.00     0.083 C 
BRANCH  28  29
HETATM   29  C   UNK N   1      22.072  14.386   6.777  0.00  0.00    -0.054 A 
HETATM   30  C   UNK N   1      21.077  13.434   7.005  0.00  0.00     0.010 A 
HETATM   31  C   UNK N   1      21.213  12.521   8.051  0.00  0.00     0.037 A 
HETATM   32  C   UNK N   1      22.328  12.579   8.891  0.00  0.00     0.069 A 
HETATM   33  C   UNK N   1      23.366  13.481   8.610  0.00  0.00     0.037 A 
HETATM   34  C   UNK N   1      23.246  14.367   7.539  0.00  0.00     0.010 A 
BRANCH  32  35
HETATM   35  O   UNK N   1      22.327  11.830  10.019  0.00  0.00    -0.347 OA
BRANCH  35  36
HETATM   36  C   UNK N   1      22.001  12.331  11.274  0.00  0.00     0.120 C 
HETATM   37  C   UNK N   1      20.552  12.098  11.641  0.00  0.00     0.040 C 
HETATM   38  C   UNK N   1      22.950  11.858  12.375  0.00  0.00     0.040 C 
ENDBRANCH  35  36
ENDBRANCH  32  35
ENDBRANCH  28  29
ENDBRANCH   2  28
BRANCH   4  39
HETATM   39  C   UNK N   1      22.589  13.231   1.268  0.00  0.00     0.100 C 
HETATM   40  C   UNK N   1      23.619  14.003   0.463  0.00  0.00     0.034 C 
HETATM   41  C   UNK N   1      21.500  12.738   0.330  0.00  0.00     0.034 C 
ENDBRANCH   4  39
TORSDOF 15
ENDMDL
MODEL 8
REMARK VINA RESULT:      -7.5      2.421      4.492
REMARK  15 active torsions:
REMARK  status: ('A' for Active; 'I' for Inactive)
REMARK    1  A    between atoms: C_2  and  O_3 
REMARK    2  A    between atoms: O_3  and  C_4 
REMARK    3  A    between atoms: C_4  and  O_6 
REMARK    4  A    between atoms: O_6  and  C_7 
REMARK    5  A    between atoms: C_8  and  C_7 
REMARK    6  A    between atoms: C_9  and  O_38 
REMARK    7  A    between atoms: C_10  and  O_37 
REMARK    8  A    between atoms: C_11  and  O_36 
REMARK    9  A    between atoms: C_12  and  O_14 
REMARK   10  A    between atoms: O_14  and  C_15 
REMARK   11  A    between atoms: C_16  and  C_25 
REMARK   12  A    between atoms: N_18  and  C_21 
REMARK   13  A    between atoms: C_25  and  C_26 
REMARK   14  A    between atoms: C_29  and  O_32 
REMARK   15  A    between atoms: O_32  and  C_33 
ROOT
HETATM    1  C   UNK N   1      28.995  17.842   5.367  0.00  0.00     0.168 A 
HETATM    2  C   UNK N   1      28.192  18.959   5.235  0.00  0.00     0.022 A 
HETATM    3  C   UNK N   1      27.927  19.342   6.551  0.00  0.00     0.036 A 
HETATM    4  N   UNK N   1      28.529  18.469   7.385  0.00  0.00    -0.290 N 
HETATM    5  N   UNK N   1      29.185  17.558   6.672  0.00  0.00    -0.277 N 
ATOM      6  HN  UNK N   1      29.734  16.784   7.045  1.00  0.00     0.189 HD
HETATM    7  C   UNK N   1      27.150  20.519   7.041  0.00  0.00     0.070 C 
ENDROOT
BRANCH   1   8
HETATM    8  O   UNK N   1      29.617  17.204   4.348  0.00  0.00    -0.300 OA
BRANCH   8   9
HETATM    9  C   UNK N   1      30.756  16.430   4.444  0.00  0.00     0.300 C 
HETATM   10  C   UNK N   1      31.428  16.151   3.093  0.00  0.00     0.205 C 
HETATM   11  C   UNK N   1      32.678  15.360   3.414  0.00  0.00     0.183 C 
HETATM   12  C   UNK N   1      32.314  14.038   4.079  0.00  0.00     0.180 C 
HETATM   13  C   UNK N   1      30.951  14.085   4.797  0.00  0.00     0.180 C 
HETATM   14  O   UNK N   1      30.615  15.345   5.358  0.00  0.00    -0.348 OA
BRANCH  10  15
HETATM   15  O   UNK N   1      31.778  17.361   2.491  0.00  0.00    -0.388 OA
HETATM   16  H   UNK N   1      31.716  18.204   2.968  0.00  0.00     0.210 HD
ENDBRANCH  10  15
BRANCH  11  17
HETATM   17  O   UNK N   1      33.447  15.132   2.273  0.00  0.00    -0.390 OA
HETATM   18  H   UNK N   1      34.053  14.495   1.863  0.00  0.00     0.210 HD
ENDBRANCH  11  17
BRANCH  12  19
HETATM   19  O   UNK N   1      33.324  13.688   4.975  0.00  0.00    -0.390 OA
HETATM   20  H   UNK N   1      33.233  12.938   5.583  0.00  0.00     0.210 HD
ENDBRANCH  12  19
BRANCH  13  21
HETATM   21  C   UNK N   1      29.820  13.513   3.947  0.00  0.00     0.215 C 
BRANCH  21  22
HETATM   22  O   UNK N   1      28.617  13.573   4.622  0.00  0.00    -0.295 OA
BRANCH  22  23
HETATM   23  C   UNK N   1      27.454  13.086   4.122  0.00  0.00     0.406 C 
HETATM   24  O   UNK N   1      26.731  12.413   4.842  0.00  0.00    -0.230 OA
BRANCH  23  25
HETATM   25  O   UNK N   1      27.106  13.329   2.832  0.00  0.00    -0.298 OA
BRANCH  25  26
HETATM   26  C   UNK N   1      26.123  14.228   2.489  0.00  0.00     0.176 C 
HETATM   27  C   UNK N   1      26.735  15.601   2.310  0.00  0.00     0.034 C 
ENDBRANCH  25  26
ENDBRANCH  23  25
ENDBRANCH  22  23
ENDBRANCH  21  22
ENDBRANCH  13  21
ENDBRANCH   8   9
ENDBRANCH   1   8
BRANCH   2  28
HETATM   28  C   UNK N   1      27.784  19.568   3.904  0.00  0.00     0.083 C 
BRANCH  28  29
HETATM   29  C   UNK N   1      26.320  19.529   3.641  0.00  0.00    -0.054 A 
HETATM   30  C   UNK N   1      25.735  20.541   2.878  0.00  0.00     0.010 A 
HETATM   31  C   UNK N   1      24.347  20.623   2.776  0.00  0.00     0.037 A 
HETATM   32  C   UNK N   1      23.539  19.712   3.463  0.00  0.00     0.069 A 
HETATM   33  C   UNK N   1      24.128  18.646   4.162  0.00  0.00     0.037 A 
HETATM   34  C   UNK N   1      25.518  18.544   4.230  0.00  0.00     0.010 A 
BRANCH  32  35
HETATM   35  O   UNK N   1      22.207  19.947   3.523  0.00  0.00    -0.347 OA
BRANCH  35  36
HETATM   36  C   UNK N   1      21.311  19.550   2.537  0.00  0.00     0.120 C 
HETATM   37  C   UNK N   1      20.188  18.692   3.075  0.00  0.00     0.040 C 
HETATM   38  C   UNK N   1      20.784  20.715   1.699  0.00  0.00     0.040 C 
ENDBRANCH  35  36
ENDBRANCH  32  35
ENDBRANCH  28  29
ENDBRANCH   2  28
BRANCH   4  39
HETATM   39  C   UNK N   1      28.513  18.542   8.854  0.00  0.00     0.100 C 
HETATM   40  C   UNK N   1      29.890  18.819   9.429  0.00  0.00     0.034 C 
HETATM   41  C   UNK N   1      27.975  17.257   9.460  0.00  0.00     0.034 C 
ENDBRANCH   4  39
TORSDOF 15
ENDMDL
MODEL 9
REMARK VINA RESULT:      -7.5      6.121     10.173
REMARK  15 active torsions:
REMARK  status: ('A' for Active; 'I' for Inactive)
REMARK    1  A    between atoms: C_2  and  O_3 
REMARK    2  A    between atoms: O_3  and  C_4 
REMARK    3  A    between atoms: C_4  and  O_6 
REMARK    4  A    between atoms: O_6  and  C_7 
REMARK    5  A    between atoms: C_8  and  C_7 
REMARK    6  A    between atoms: C_9  and  O_38 
REMARK    7  A    between atoms: C_10  and  O_37 
REMARK    8  A    between atoms: C_11  and  O_36 
REMARK    9  A    between atoms: C_12  and  O_14 
REMARK   10  A    between atoms: O_14  and  C_15 
REMARK   11  A    between atoms: C_16  and  C_25 
REMARK   12  A    between atoms: N_18  and  C_21 
REMARK   13  A    between atoms: C_25  and  C_26 
REMARK   14  A    between atoms: C_29  and  O_32 
REMARK   15  A    between atoms: O_32  and  C_33 
ROOT
HETATM    1  C   UNK N   1      19.651  16.160   3.739  0.00  0.00     0.168 A 
HETATM    2  C   UNK N   1      20.015  17.214   2.921  0.00  0.00     0.022 A 
HETATM    3  C   UNK N   1      20.025  16.659   1.640  0.00  0.00     0.036 A 
HETATM    4  N   UNK N   1      19.707  15.351   1.733  0.00  0.00    -0.290 N 
HETATM    5  N   UNK N   1      19.474  15.042   3.005  0.00  0.00    -0.277 N 
ATOM      6  HN  UNK N   1      19.207  14.125   3.362  1.00  0.00     0.189 HD
HETATM    7  C   UNK N   1      20.294  17.332   0.336  0.00  0.00     0.070 C 
ENDROOT
BRANCH   1   8
HETATM    8  O   UNK N   1      19.376  16.258   5.061  0.00  0.00    -0.300 OA
BRANCH   8   9
HETATM    9  C   UNK N   1      19.663  15.314   6.026  0.00  0.00     0.300 C 
HETATM   10  C   UNK N   1      20.452  15.873   7.219  0.00  0.00     0.205 C 
HETATM   11  C   UNK N   1      20.603  14.717   8.184  0.00  0.00     0.183 C 
HETATM   12  C   UNK N   1      21.398  13.586   7.540  0.00  0.00     0.180 C 
HETATM   13  C   UNK N   1      21.310  13.596   6.001  0.00  0.00     0.180 C 
HETATM   14  O   UNK N   1      20.078  14.066   5.476  0.00  0.00    -0.348 OA
BRANCH  10  15
HETATM   15  O   UNK N   1      19.716  16.895   7.821  0.00  0.00    -0.388 OA
HETATM   16  H   UNK N   1      20.068  17.796   7.902  0.00  0.00     0.210 HD
ENDBRANCH  10  15
BRANCH  11  17
HETATM   17  O   UNK N   1      21.213  15.119   9.373  0.00  0.00    -0.390 OA
HETATM   18  H   UNK N   1      21.797  14.814  10.085  0.00  0.00     0.210 HD
ENDBRANCH  11  17
BRANCH  12  19
HETATM   19  O   UNK N   1      20.944  12.368   8.045  0.00  0.00    -0.390 OA
HETATM   20  H   UNK N   1      20.377  11.777   7.526  0.00  0.00     0.210 HD
ENDBRANCH  12  19
BRANCH  13  21
HETATM   21  C   UNK N   1      22.510  14.278   5.349  0.00  0.00     0.215 C 
BRANCH  21  22
HETATM   22  O   UNK N   1      22.386  14.286   3.975  0.00  0.00    -0.295 OA
BRANCH  22  23
HETATM   23  C   UNK N   1      23.312  14.825   3.143  0.00  0.00     0.406 C 
HETATM   24  O   UNK N   1      23.062  14.914   1.950  0.00  0.00    -0.230 OA
BRANCH  23  25
HETATM   25  O   UNK N   1      24.511  15.244   3.628  0.00  0.00    -0.298 OA
BRANCH  25  26
HETATM   26  C   UNK N   1      25.706  14.725   3.189  0.00  0.00     0.176 C 
HETATM   27  C   UNK N   1      26.487  15.800   2.465  0.00  0.00     0.034 C 
ENDBRANCH  25  26
ENDBRANCH  23  25
ENDBRANCH  22  23
ENDBRANCH  21  22
ENDBRANCH  13  21
ENDBRANCH   8   9
ENDBRANCH   1   8
BRANCH   2  28
HETATM   28  C   UNK N   1      20.282  18.626   3.413  0.00  0.00     0.083 C 
BRANCH  28  29
HETATM   29  C   UNK N   1      21.713  19.032   3.347  0.00  0.00    -0.054 A 
HETATM   30  C   UNK N   1      22.668  18.286   4.041  0.00  0.00     0.010 A 
HETATM   31  C   UNK N   1      23.978  18.754   4.142  0.00  0.00     0.037 A 
HETATM   32  C   UNK N   1      24.328  19.984   3.578  0.00  0.00     0.069 A 
HETATM   33  C   UNK N   1      23.390  20.692   2.810  0.00  0.00     0.037 A 
HETATM   34  C   UNK N   1      22.090  20.202   2.677  0.00  0.00     0.010 A 
BRANCH  32  35
HETATM   35  O   UNK N   1      25.539  20.511   3.877  0.00  0.00    -0.347 OA
BRANCH  35  36
HETATM   36  C   UNK N   1      26.358  20.029   4.892  0.00  0.00     0.120 C 
HETATM   37  C   UNK N   1      27.638  19.415   4.370  0.00  0.00     0.040 C 
HETATM   38  C   UNK N   1      26.627  21.059   5.989  0.00  0.00     0.040 C 
ENDBRANCH  35  36
ENDBRANCH  32  35
ENDBRANCH  28  29
ENDBRANCH   2  28
BRANCH   4  39
HETATM   39  C   UNK N   1      19.583  14.421   0.601  0.00  0.00     0.100 C 
HETATM   40  C   UNK N   1      18.139  14.221   0.179  0.00  0.00     0.034 C 
HETATM   41  C   UNK N   1      20.191  13.068   0.933  0.00  0.00     0.034 C 
ENDBRANCH   4  39
TORSDOF 15
ENDMDL
