MODEL 1
REMARK VINA RESULT:      -7.6      0.000      0.000
REMARK  4 active torsions:
REMARK  status: ('A' for Active; 'I' for Inactive)
REMARK    1  A    between atoms: C_6  and  O_7 
REMARK    2  A    between atoms: O_7  and  C_8 
REMARK    3  A    between atoms: C_11  and  C_15 
REMARK       I    between atoms: C_15  and  N_17 
REMARK    4  A    between atoms: N_21  and  C_24 
ROOT
HETATM    1  C   UNK N   1      34.795  14.675  11.228  0.00  0.00     0.147 A 
HETATM    2  C   UNK N   1      35.604  15.593  10.546  0.00  0.00     0.057 A 
HETATM    3  C   UNK N   1      35.350  15.878   9.218  0.00  0.00     0.022 A 
HETATM    4  C   UNK N   1      34.299  15.244   8.558  0.00  0.00     0.047 A 
HETATM    5  C   UNK N   1      33.545  14.287   9.262  0.00  0.00     0.107 A 
HETATM    6  N   UNK N   1      33.804  14.021  10.571  0.00  0.00    -0.346 N 
ATOM      7  HN  UNK N   1      33.246  13.324  11.064  1.00  0.00     0.167 HD
ENDROOT
BRANCH   4   8
HETATM    8  C   UNK N   1      34.030  15.620   7.136  0.00  0.00     0.255 C 
HETATM    9  O   UNK N   1      34.115  14.746   6.286  0.00  0.00    -0.267 OA
HETATM   10  N   UNK N   1      33.636  16.882   6.764  0.00  0.00    -0.346 N 
HETATM   11  C   UNK N   1      33.250  17.132   5.395  0.00  0.00     0.127 C 
HETATM   12  C   UNK N   1      33.316  17.909   7.719  0.00  0.00     0.145 C 
HETATM   13  C   UNK N   1      31.755  17.472   5.355  0.00  0.00     0.039 C 
HETATM   14  C   UNK N   1      30.966  16.604   6.346  0.00  0.00     0.119 C 
HETATM   15  N   UNK N   1      30.880  17.177   7.702  0.00  0.00    -0.406 N 
HETATM   16  C   UNK N   1      32.088  17.456   8.511  0.00  0.00     0.137 C 
BRANCH  15  17
HETATM   17  C   UNK N   1      29.737  18.072   7.900  0.00  0.00     0.079 A 
HETATM   18  C   UNK N   1      29.532  18.423   9.362  0.00  0.00     0.025 A 
HETATM   19  C   UNK N   1      28.244  17.618   9.371  0.00  0.00     0.004 A 
HETATM   20  C   UNK N   1      28.432  17.290   7.903  0.00  0.00     0.025 A 
ENDBRANCH  15  17
ENDBRANCH   4   8
BRANCH   1  21
HETATM   21  O   UNK N   1      34.901  14.572  12.572  0.00  0.00    -0.294 OA
BRANCH  21  22
HETATM   22  C   UNK N   1      35.737  13.635  13.096  0.00  0.00     0.078 A 
HETATM   23  C   UNK N   1      36.028  13.640  14.478  0.00  0.00     0.040 A 
HETATM   24  C   UNK N   1      36.914  12.727  15.026  0.00  0.00     0.045 A 
HETATM   25  C   UNK N   1      37.525  11.787  14.204  0.00  0.00     0.116 A 
HETATM   26  C   UNK N   1      37.228  11.749  12.834  0.00  0.00     0.045 A 
HETATM   27  F   UNK N   1      38.407  10.912  14.740  0.00  0.00    -0.206 F 
HETATM   28  C   UNK N   1      36.328  12.670  12.279  0.00  0.00     0.040 A 
ENDBRANCH  21  22
ENDBRANCH   1  21
TORSDOF 4
ENDMDL
MODEL 2
REMARK VINA RESULT:      -7.6      3.472      8.504
REMARK  4 active torsions:
REMARK  status: ('A' for Active; 'I' for Inactive)
REMARK    1  A    between atoms: C_6  and  O_7 
REMARK    2  A    between atoms: O_7  and  C_8 
REMARK    3  A    between atoms: C_11  and  C_15 
REMARK       I    between atoms: C_15  and  N_17 
REMARK    4  A    between atoms: N_21  and  C_24 
ROOT
HETATM    1  C   UNK N   1      34.853  16.334   9.873  0.00  0.00     0.147 A 
HETATM    2  C   UNK N   1      35.676  16.376  11.006  0.00  0.00     0.057 A 
HETATM    3  C   UNK N   1      36.415  15.262  11.359  0.00  0.00     0.022 A 
HETATM    4  C   UNK N   1      36.332  14.099  10.595  0.00  0.00     0.047 A 
HETATM    5  C   UNK N   1      35.451  14.080   9.498  0.00  0.00     0.107 A 
HETATM    6  N   UNK N   1      34.735  15.186   9.159  0.00  0.00    -0.346 N 
ATOM      7  HN  UNK N   1      34.102  15.151   8.360  1.00  0.00     0.167 HD
ENDROOT
BRANCH   4   8
HETATM    8  C   UNK N   1      37.187  12.937  10.986  0.00  0.00     0.255 C 
HETATM    9  O   UNK N   1      38.399  13.063  10.900  0.00  0.00    -0.267 OA
HETATM   10  N   UNK N   1      36.667  11.769  11.489  0.00  0.00    -0.346 N 
HETATM   11  C   UNK N   1      37.561  10.748  11.983  0.00  0.00     0.127 C 
HETATM   12  C   UNK N   1      35.274  11.614  11.811  0.00  0.00     0.145 C 
HETATM   13  C   UNK N   1      37.361  10.604  13.496  0.00  0.00     0.039 C 
HETATM   14  C   UNK N   1      37.141  11.974  14.155  0.00  0.00     0.119 C 
HETATM   15  N   UNK N   1      35.730  12.400  14.188  0.00  0.00    -0.406 N 
HETATM   16  C   UNK N   1      34.939  12.581  12.949  0.00  0.00     0.137 C 
BRANCH  15  17
HETATM   17  C   UNK N   1      34.996  11.946  15.373  0.00  0.00     0.079 A 
HETATM   18  C   UNK N   1      34.346  13.097  16.119  0.00  0.00     0.025 A 
HETATM   19  C   UNK N   1      35.312  12.890  17.272  0.00  0.00     0.004 A 
HETATM   20  C   UNK N   1      35.944  11.721  16.542  0.00  0.00     0.025 A 
ENDBRANCH  15  17
ENDBRANCH   4   8
BRANCH   1  21
HETATM   21  O   UNK N   1      34.316  17.483   9.404  0.00  0.00    -0.294 OA
BRANCH  21  22
HETATM   22  C   UNK N   1      33.577  17.445   8.263  0.00  0.00     0.078 A 
HETATM   23  C   UNK N   1      32.177  17.272   8.332  0.00  0.00     0.040 A 
HETATM   24  C   UNK N   1      31.409  17.181   7.182  0.00  0.00     0.045 A 
HETATM   25  C   UNK N   1      32.025  17.265   5.938  0.00  0.00     0.116 A 
HETATM   26  C   UNK N   1      33.410  17.464   5.849  0.00  0.00     0.045 A 
HETATM   27  F   UNK N   1      31.274  17.152   4.819  0.00  0.00    -0.206 F 
HETATM   28  C   UNK N   1      34.188  17.560   7.012  0.00  0.00     0.040 A 
ENDBRANCH  21  22
ENDBRANCH   1  21
TORSDOF 4
ENDMDL
MODEL 3
REMARK VINA RESULT:      -7.3      8.738     11.998
REMARK  4 active torsions:
REMARK  status: ('A' for Active; 'I' for Inactive)
REMARK    1  A    between atoms: C_6  and  O_7 
REMARK    2  A    between atoms: O_7  and  C_8 
REMARK    3  A    between atoms: C_11  and  C_15 
REMARK       I    between atoms: C_15  and  N_17 
REMARK    4  A    between atoms: N_21  and  C_24 
ROOT
HETATM    1  C   UNK N   1      21.493  15.911   5.760  0.00  0.00     0.147 A 
HETATM    2  C   UNK N   1      21.783  17.112   6.422  0.00  0.00     0.057 A 
HETATM    3  C   UNK N   1      22.449  18.121   5.752  0.00  0.00     0.022 A 
HETATM    4  C   UNK N   1      22.841  17.939   4.427  0.00  0.00     0.047 A 
HETATM    5  C   UNK N   1      22.581  16.698   3.816  0.00  0.00     0.107 A 
HETATM    6  N   UNK N   1      21.919  15.716   4.487  0.00  0.00    -0.346 N 
ATOM      7  HN  UNK N   1      21.741  14.824   4.026  1.00  0.00     0.167 HD
ENDROOT
BRANCH   4   8
HETATM    8  C   UNK N   1      23.515  19.076   3.728  0.00  0.00     0.255 C 
HETATM    9  O   UNK N   1      22.914  20.137   3.650  0.00  0.00    -0.267 OA
HETATM   10  N   UNK N   1      24.793  18.990   3.231  0.00  0.00    -0.346 N 
HETATM   11  C   UNK N   1      25.431  20.172   2.703  0.00  0.00     0.127 C 
HETATM   12  C   UNK N   1      25.639  17.850   3.460  0.00  0.00     0.145 C 
HETATM   13  C   UNK N   1      26.615  20.541   3.604  0.00  0.00     0.039 C 
HETATM   14  C   UNK N   1      26.272  20.314   5.084  0.00  0.00     0.119 C 
HETATM   15  N   UNK N   1      26.563  18.949   5.561  0.00  0.00    -0.406 N 
HETATM   16  C   UNK N   1      25.918  17.758   4.962  0.00  0.00     0.137 C 
BRANCH  15  17
HETATM   17  C   UNK N   1      27.927  18.771   6.066  0.00  0.00     0.079 A 
HETATM   18  C   UNK N   1      28.163  17.368   6.595  0.00  0.00     0.025 A 
HETATM   19  C   UNK N   1      28.264  17.920   8.006  0.00  0.00     0.004 A 
HETATM   20  C   UNK N   1      28.058  19.326   7.476  0.00  0.00     0.025 A 
ENDBRANCH  15  17
ENDBRANCH   4   8
BRANCH   1  21
HETATM   21  O   UNK N   1      20.649  15.026   6.337  0.00  0.00    -0.294 OA
BRANCH  21  22
HETATM   22  C   UNK N   1      21.027  14.415   7.491  0.00  0.00     0.078 A 
HETATM   23  C   UNK N   1      20.277  14.608   8.672  0.00  0.00     0.040 A 
HETATM   24  C   UNK N   1      20.671  14.035   9.872  0.00  0.00     0.045 A 
HETATM   25  C   UNK N   1      21.819  13.254   9.914  0.00  0.00     0.116 A 
HETATM   26  C   UNK N   1      22.562  13.028   8.746  0.00  0.00     0.045 A 
HETATM   27  F   UNK N   1      22.212  12.717  11.091  0.00  0.00    -0.206 F 
HETATM   28  C   UNK N   1      22.164  13.604   7.531  0.00  0.00     0.040 A 
ENDBRANCH  21  22
ENDBRANCH   1  21
TORSDOF 4
ENDMDL
MODEL 4
REMARK VINA RESULT:      -7.3      2.536      4.004
REMARK  4 active torsions:
REMARK  status: ('A' for Active; 'I' for Inactive)
REMARK    1  A    between atoms: C_6  and  O_7 
REMARK    2  A    between atoms: O_7  and  C_8 
REMARK    3  A    between atoms: C_11  and  C_15 
REMARK       I    between atoms: C_15  and  N_17 
REMARK    4  A    between atoms: N_21  and  C_24 
ROOT
HETATM    1  C   UNK N   1      35.841  13.515  11.832  0.00  0.00     0.147 A 
HETATM    2  C   UNK N   1      36.732  14.163  10.966  0.00  0.00     0.057 A 
HETATM    3  C   UNK N   1      36.297  15.233  10.208  0.00  0.00     0.022 A 
HETATM    4  C   UNK N   1      34.972  15.658  10.297  0.00  0.00     0.047 A 
HETATM    5  C   UNK N   1      34.095  14.946  11.136  0.00  0.00     0.107 A 
HETATM    6  N   UNK N   1      34.540  13.897  11.880  0.00  0.00    -0.346 N 
ATOM      7  HN  UNK N   1      33.888  13.394  12.482  1.00  0.00     0.167 HD
ENDROOT
BRANCH   4   8
HETATM    8  C   UNK N   1      34.559  16.851   9.497  0.00  0.00     0.255 C 
HETATM    9  O   UNK N   1      35.288  17.832   9.510  0.00  0.00    -0.267 OA
HETATM   10  N   UNK N   1      33.434  16.863   8.708  0.00  0.00    -0.346 N 
HETATM   11  C   UNK N   1      33.180  17.995   7.849  0.00  0.00     0.127 C 
HETATM   12  C   UNK N   1      32.636  15.689   8.477  0.00  0.00     0.145 C 
HETATM   13  C   UNK N   1      33.281  17.541   6.387  0.00  0.00     0.039 C 
HETATM   14  C   UNK N   1      34.428  16.537   6.201  0.00  0.00     0.119 C 
HETATM   15  N   UNK N   1      34.033  15.134   6.424  0.00  0.00    -0.406 N 
HETATM   16  C   UNK N   1      33.495  14.670   7.723  0.00  0.00     0.137 C 
BRANCH  15  17
HETATM   17  C   UNK N   1      33.527  14.459   5.226  0.00  0.00     0.079 A 
HETATM   18  C   UNK N   1      33.415  12.958   5.420  0.00  0.00     0.025 A 
HETATM   19  C   UNK N   1      34.548  12.749   4.430  0.00  0.00     0.004 A 
HETATM   20  C   UNK N   1      34.641  14.247   4.213  0.00  0.00     0.025 A 
ENDBRANCH  15  17
ENDBRANCH   4   8
BRANCH   1  21
HETATM   21  O   UNK N   1      36.322  12.627  12.731  0.00  0.00    -0.294 OA
BRANCH  21  22
HETATM   22  C   UNK N   1      36.050  12.816  14.050  0.00  0.00     0.078 A 
HETATM   23  C   UNK N   1      35.106  11.993  14.703  0.00  0.00     0.040 A 
HETATM   24  C   UNK N   1      34.776  12.198  16.034  0.00  0.00     0.045 A 
HETATM   25  C   UNK N   1      35.388  13.227  16.740  0.00  0.00     0.116 A 
HETATM   26  C   UNK N   1      36.348  14.037  16.117  0.00  0.00     0.045 A 
HETATM   27  F   UNK N   1      35.046  13.438  18.032  0.00  0.00    -0.206 F 
HETATM   28  C   UNK N   1      36.685  13.829  14.772  0.00  0.00     0.040 A 
ENDBRANCH  21  22
ENDBRANCH   1  21
TORSDOF 4
ENDMDL
MODEL 5
REMARK VINA RESULT:      -7.2     14.796     17.777
REMARK  4 active torsions:
REMARK  status: ('A' for Active; 'I' for Inactive)
REMARK    1  A    between atoms: C_6  and  O_7 
REMARK    2  A    between atoms: O_7  and  C_8 
REMARK    3  A    between atoms: C_11  and  C_15 
REMARK       I    between atoms: C_15  and  N_17 
REMARK    4  A    between atoms: N_21  and  C_24 
ROOT
HETATM    1  C   UNK N   1      30.425  22.991  -2.801  0.00  0.00     0.147 A 
HETATM    2  C   UNK N   1      30.769  23.913  -3.799  0.00  0.00     0.057 A 
HETATM    3  C   UNK N   1      29.856  24.873  -4.191  0.00  0.00     0.022 A 
HETATM    4  C   UNK N   1      28.593  24.916  -3.602  0.00  0.00     0.047 A 
HETATM    5  C   UNK N   1      28.267  23.939  -2.644  0.00  0.00     0.107 A 
HETATM    6  N   UNK N   1      29.179  23.003  -2.265  0.00  0.00    -0.346 N 
ATOM      7  HN  UNK N   1      28.922  22.303  -1.568  1.00  0.00     0.167 HD
ENDROOT
BRANCH   4   8
HETATM    8  C   UNK N   1      27.657  26.003  -4.022  0.00  0.00     0.255 C 
HETATM    9  O   UNK N   1      28.085  27.147  -4.059  0.00  0.00    -0.267 OA
HETATM   10  N   UNK N   1      26.365  25.757  -4.421  0.00  0.00    -0.346 N 
HETATM   11  C   UNK N   1      25.568  26.837  -4.954  0.00  0.00     0.127 C 
HETATM   12  C   UNK N   1      25.847  24.428  -4.599  0.00  0.00     0.145 C 
HETATM   13  C   UNK N   1      25.278  26.556  -6.433  0.00  0.00     0.039 C 
HETATM   14  C   UNK N   1      26.503  25.942  -7.127  0.00  0.00     0.119 C 
HETATM   15  N   UNK N   1      26.561  24.471  -7.041  0.00  0.00    -0.406 N 
HETATM   16  C   UNK N   1      26.622  23.765  -5.741  0.00  0.00     0.137 C 
BRANCH  15  17
HETATM   17  C   UNK N   1      25.860  23.781  -8.129  0.00  0.00     0.079 A 
HETATM   18  C   UNK N   1      25.484  22.359  -7.756  0.00  0.00     0.025 A 
HETATM   19  C   UNK N   1      26.492  21.832  -8.763  0.00  0.00     0.004 A 
HETATM   20  C   UNK N   1      26.848  23.252  -9.158  0.00  0.00     0.025 A 
ENDBRANCH  15  17
ENDBRANCH   4   8
BRANCH   1  21
HETATM   21  O   UNK N   1      31.388  22.209  -2.263  0.00  0.00    -0.294 OA
BRANCH  21  22
HETATM   22  C   UNK N   1      32.036  21.321  -3.064  0.00  0.00     0.078 A 
HETATM   23  C   UNK N   1      33.419  21.093  -2.893  0.00  0.00     0.040 A 
HETATM   24  C   UNK N   1      34.111  20.231  -3.728  0.00  0.00     0.045 A 
HETATM   25  C   UNK N   1      33.434  19.575  -4.749  0.00  0.00     0.116 A 
HETATM   26  C   UNK N   1      32.055  19.767  -4.918  0.00  0.00     0.045 A 
HETATM   27  F   UNK N   1      34.118  18.752  -5.576  0.00  0.00    -0.206 F 
HETATM   28  C   UNK N   1      31.353  20.637  -4.071  0.00  0.00     0.040 A 
ENDBRANCH  21  22
ENDBRANCH   1  21
TORSDOF 4
ENDMDL
MODEL 6
REMARK VINA RESULT:      -7.2      2.548      3.980
REMARK  4 active torsions:
REMARK  status: ('A' for Active; 'I' for Inactive)
REMARK    1  A    between atoms: C_6  and  O_7 
REMARK    2  A    between atoms: O_7  and  C_8 
REMARK    3  A    between atoms: C_11  and  C_15 
REMARK       I    between atoms: C_15  and  N_17 
REMARK    4  A    between atoms: N_21  and  C_24 
ROOT
HETATM    1  C   UNK N   1      36.457  13.826  13.128  0.00  0.00     0.147 A 
HETATM    2  C   UNK N   1      35.112  13.838  12.733  0.00  0.00     0.057 A 
HETATM    3  C   UNK N   1      34.756  13.340  11.495  0.00  0.00     0.022 A 
HETATM    4  C   UNK N   1      35.734  12.838  10.637  0.00  0.00     0.047 A 
HETATM    5  C   UNK N   1      37.079  12.896  11.048  0.00  0.00     0.107 A 
HETATM    6  N   UNK N   1      37.413  13.385  12.273  0.00  0.00    -0.346 N 
ATOM      7  HN  UNK N   1      38.394  13.418  12.552  1.00  0.00     0.167 HD
ENDROOT
BRANCH   4   8
HETATM    8  C   UNK N   1      35.297  12.264   9.328  0.00  0.00     0.255 C 
HETATM    9  O   UNK N   1      34.588  11.268   9.347  0.00  0.00    -0.267 OA
HETATM   10  N   UNK N   1      35.610  12.842   8.122  0.00  0.00    -0.346 N 
HETATM   11  C   UNK N   1      35.029  12.316   6.909  0.00  0.00     0.127 C 
HETATM   12  C   UNK N   1      36.264  14.119   8.020  0.00  0.00     0.145 C 
HETATM   13  C   UNK N   1      34.086  13.369   6.314  0.00  0.00     0.039 C 
HETATM   14  C   UNK N   1      33.306  14.097   7.418  0.00  0.00     0.119 C 
HETATM   15  N   UNK N   1      34.002  15.281   7.956  0.00  0.00    -0.406 N 
HETATM   16  C   UNK N   1      35.329  15.180   8.604  0.00  0.00     0.137 C 
BRANCH  15  17
HETATM   17  C   UNK N   1      33.719  16.522   7.229  0.00  0.00     0.079 A 
HETATM   18  C   UNK N   1      34.320  17.735   7.914  0.00  0.00     0.025 A 
HETATM   19  C   UNK N   1      32.924  18.227   8.258  0.00  0.00     0.004 A 
HETATM   20  C   UNK N   1      32.322  17.030   7.548  0.00  0.00     0.025 A 
ENDBRANCH  15  17
ENDBRANCH   4   8
BRANCH   1  21
HETATM   21  O   UNK N   1      36.769  14.099  14.415  0.00  0.00    -0.294 OA
BRANCH  21  22
HETATM   22  C   UNK N   1      36.293  13.283  15.394  0.00  0.00     0.078 A 
HETATM   23  C   UNK N   1      35.524  13.820  16.449  0.00  0.00     0.040 A 
HETATM   24  C   UNK N   1      35.069  13.018  17.484  0.00  0.00     0.045 A 
HETATM   25  C   UNK N   1      35.370  11.661  17.482  0.00  0.00     0.116 A 
HETATM   26  C   UNK N   1      36.109  11.104  16.428  0.00  0.00     0.045 A 
HETATM   27  F   UNK N   1      34.943  10.886  18.505  0.00  0.00    -0.206 F 
HETATM   28  C   UNK N   1      36.568  11.914  15.379  0.00  0.00     0.040 A 
ENDBRANCH  21  22
ENDBRANCH   1  21
TORSDOF 4
ENDMDL
MODEL 7
REMARK VINA RESULT:      -7.2     11.059     13.007
REMARK  4 active torsions:
REMARK  status: ('A' for Active; 'I' for Inactive)
REMARK    1  A    between atoms: C_6  and  O_7 
REMARK    2  A    between atoms: O_7  and  C_8 
REMARK    3  A    between atoms: C_11  and  C_15 
REMARK       I    between atoms: C_15  and  N_17 
REMARK    4  A    between atoms: N_21  and  C_24 
ROOT
HETATM    1  C   UNK N   1      22.178  13.383   7.959  0.00  0.00     0.147 A 
HETATM    2  C   UNK N   1      21.416  14.480   8.383  0.00  0.00     0.057 A 
HETATM    3  C   UNK N   1      21.364  15.621   7.604  0.00  0.00     0.022 A 
HETATM    4  C   UNK N   1      22.077  15.682   6.408  0.00  0.00     0.047 A 
HETATM    5  C   UNK N   1      22.875  14.581   6.046  0.00  0.00     0.107 A 
HETATM    6  N   UNK N   1      22.911  13.462   6.821  0.00  0.00    -0.346 N 
ATOM      7  HN  UNK N   1      23.496  12.675   6.541  1.00  0.00     0.167 HD
ENDROOT
BRANCH   4   8
HETATM    8  C   UNK N   1      21.951  16.917   5.575  0.00  0.00     0.255 C 
HETATM    9  O   UNK N   1      22.949  17.603   5.412  0.00  0.00    -0.267 OA
HETATM   10  N   UNK N   1      20.784  17.270   4.942  0.00  0.00    -0.346 N 
HETATM   11  C   UNK N   1      20.778  18.393   4.035  0.00  0.00     0.127 C 
HETATM   12  C   UNK N   1      19.627  16.415   4.915  0.00  0.00     0.145 C 
HETATM   13  C   UNK N   1      20.507  17.881   2.615  0.00  0.00     0.039 C 
HETATM   14  C   UNK N   1      21.231  16.550   2.361  0.00  0.00     0.119 C 
HETATM   15  N   UNK N   1      20.447  15.363   2.748  0.00  0.00    -0.406 N 
HETATM   16  C   UNK N   1      19.991  15.147   4.140  0.00  0.00     0.137 C 
BRANCH  15  17
HETATM   17  C   UNK N   1      19.576  14.851   1.686  0.00  0.00     0.079 A 
HETATM   18  C   UNK N   1      19.088  13.443   1.976  0.00  0.00     0.025 A 
HETATM   19  C   UNK N   1      19.933  12.918   0.827  0.00  0.00     0.004 A 
HETATM   20  C   UNK N   1      20.398  14.328   0.518  0.00  0.00     0.025 A 
ENDBRANCH  15  17
ENDBRANCH   4   8
BRANCH   1  21
HETATM   21  O   UNK N   1      22.045  12.199   8.600  0.00  0.00    -0.294 OA
BRANCH  21  22
HETATM   22  C   UNK N   1      22.474  12.097   9.886  0.00  0.00     0.078 A 
HETATM   23  C   UNK N   1      21.539  12.073  10.944  0.00  0.00     0.040 A 
HETATM   24  C   UNK N   1      21.954  12.019  12.266  0.00  0.00     0.045 A 
HETATM   25  C   UNK N   1      23.313  11.982  12.556  0.00  0.00     0.116 A 
HETATM   26  C   UNK N   1      24.256  11.977  11.518  0.00  0.00     0.045 A 
HETATM   27  F   UNK N   1      23.713  11.953  13.848  0.00  0.00    -0.206 F 
HETATM   28  C   UNK N   1      23.837  12.029  10.181  0.00  0.00     0.040 A 
ENDBRANCH  21  22
ENDBRANCH   1  21
TORSDOF 4
ENDMDL
MODEL 8
REMARK VINA RESULT:      -7.1     10.224     12.307
REMARK  4 active torsions:
REMARK  status: ('A' for Active; 'I' for Inactive)
REMARK    1  A    between atoms: C_6  and  O_7 
REMARK    2  A    between atoms: O_7  and  C_8 
REMARK    3  A    between atoms: C_11  and  C_15 
REMARK       I    between atoms: C_15  and  N_17 
REMARK    4  A    between atoms: N_21  and  C_24 
ROOT
HETATM    1  C   UNK N   1      21.185  13.694   7.222  0.00  0.00     0.147 A 
HETATM    2  C   UNK N   1      22.272  14.532   7.503  0.00  0.00     0.057 A 
HETATM    3  C   UNK N   1      22.318  15.801   6.957  0.00  0.00     0.022 A 
HETATM    4  C   UNK N   1      21.293  16.239   6.121  0.00  0.00     0.047 A 
HETATM    5  C   UNK N   1      20.247  15.346   5.819  0.00  0.00     0.107 A 
HETATM    6  N   UNK N   1      20.213  14.102   6.369  0.00  0.00    -0.346 N 
ATOM      7  HN  UNK N   1      19.446  13.470   6.137  1.00  0.00     0.167 HD
ENDROOT
BRANCH   4   8
HETATM    8  C   UNK N   1      21.360  17.636   5.593  0.00  0.00     0.255 C 
HETATM    9  O   UNK N   1      21.168  18.554   6.376  0.00  0.00    -0.267 OA
HETATM   10  N   UNK N   1      21.687  17.923   4.290  0.00  0.00    -0.346 N 
HETATM   11  C   UNK N   1      21.878  19.297   3.891  0.00  0.00     0.127 C 
HETATM   12  C   UNK N   1      22.123  16.917   3.360  0.00  0.00     0.145 C 
HETATM   13  C   UNK N   1      23.350  19.503   3.512  0.00  0.00     0.039 C 
HETATM   14  C   UNK N   1      24.276  18.725   4.458  0.00  0.00     0.119 C 
HETATM   15  N   UNK N   1      24.542  17.340   4.026  0.00  0.00    -0.406 N 
HETATM   16  C   UNK N   1      23.453  16.350   3.862  0.00  0.00     0.137 C 
BRANCH  15  17
HETATM   17  C   UNK N   1      25.692  17.205   3.128  0.00  0.00     0.079 A 
HETATM   18  C   UNK N   1      25.929  15.764   2.715  0.00  0.00     0.025 A 
HETATM   19  C   UNK N   1      27.214  15.747   3.525  0.00  0.00     0.004 A 
HETATM   20  C   UNK N   1      26.994  17.196   3.915  0.00  0.00     0.025 A 
ENDBRANCH  15  17
ENDBRANCH   4   8
BRANCH   1  21
HETATM   21  O   UNK N   1      21.030  12.553   7.933  0.00  0.00    -0.294 OA
BRANCH  21  22
HETATM   22  C   UNK N   1      21.726  12.401   9.091  0.00  0.00     0.078 A 
HETATM   23  C   UNK N   1      23.070  11.970   9.057  0.00  0.00     0.040 A 
HETATM   24  C   UNK N   1      23.785  11.761  10.225  0.00  0.00     0.045 A 
HETATM   25  C   UNK N   1      23.171  11.982  11.453  0.00  0.00     0.116 A 
HETATM   26  C   UNK N   1      21.846  12.437  11.507  0.00  0.00     0.045 A 
HETATM   27  F   UNK N   1      23.866  11.754  12.591  0.00  0.00    -0.206 F 
HETATM   28  C   UNK N   1      21.123  12.652  10.325  0.00  0.00     0.040 A 
ENDBRANCH  21  22
ENDBRANCH   1  21
TORSDOF 4
ENDMDL
MODEL 9
REMARK VINA RESULT:      -6.9     16.159     19.289
REMARK  4 active torsions:
REMARK  status: ('A' for Active; 'I' for Inactive)
REMARK    1  A    between atoms: C_6  and  O_7 
REMARK    2  A    between atoms: O_7  and  C_8 
REMARK    3  A    between atoms: C_11  and  C_15 
REMARK       I    between atoms: C_15  and  N_17 
REMARK    4  A    between atoms: N_21  and  C_24 
ROOT
HETATM    1  C   UNK N   1      28.384  25.362  -3.700  0.00  0.00     0.147 A 
HETATM    2  C   UNK N   1      29.709  25.808  -3.804  0.00  0.00     0.057 A 
HETATM    3  C   UNK N   1      30.749  24.916  -3.626  0.00  0.00     0.022 A 
HETATM    4  C   UNK N   1      30.479  23.580  -3.333  0.00  0.00     0.047 A 
HETATM    5  C   UNK N   1      29.137  23.185  -3.182  0.00  0.00     0.107 A 
HETATM    6  N   UNK N   1      28.124  24.074  -3.366  0.00  0.00    -0.346 N 
ATOM      7  HN  UNK N   1      27.158  23.767  -3.251  1.00  0.00     0.167 HD
ENDROOT
BRANCH   4   8
HETATM    8  C   UNK N   1      31.635  22.641  -3.198  0.00  0.00     0.255 C 
HETATM    9  O   UNK N   1      31.810  22.098  -2.118  0.00  0.00    -0.267 OA
HETATM   10  N   UNK N   1      32.460  22.323  -4.250  0.00  0.00    -0.346 N 
HETATM   11  C   UNK N   1      33.461  21.297  -4.083  0.00  0.00     0.127 C 
HETATM   12  C   UNK N   1      32.203  22.757  -5.597  0.00  0.00     0.145 C 
HETATM   13  C   UNK N   1      33.107  20.107  -4.984  0.00  0.00     0.039 C 
HETATM   14  C   UNK N   1      31.591  19.862  -5.002  0.00  0.00     0.119 C 
HETATM   15  N   UNK N   1      30.875  20.632  -6.036  0.00  0.00    -0.406 N 
HETATM   16  C   UNK N   1      30.895  22.112  -6.063  0.00  0.00     0.137 C 
BRANCH  15  17
HETATM   17  C   UNK N   1      30.788  19.953  -7.332  0.00  0.00     0.079 A 
HETATM   18  C   UNK N   1      30.339  20.889  -8.439  0.00  0.00     0.025 A 
HETATM   19  C   UNK N   1      29.024  20.136  -8.537  0.00  0.00     0.004 A 
HETATM   20  C   UNK N   1      29.483  19.181  -7.452  0.00  0.00     0.025 A 
ENDBRANCH  15  17
ENDBRANCH   4   8
BRANCH   1  21
HETATM   21  O   UNK N   1      27.380  26.177  -4.097  0.00  0.00    -0.294 OA
BRANCH  21  22
HETATM   22  C   UNK N   1      27.017  26.181  -5.407  0.00  0.00     0.078 A 
HETATM   23  C   UNK N   1      27.584  27.122  -6.295  0.00  0.00     0.040 A 
HETATM   24  C   UNK N   1      27.193  27.178  -7.624  0.00  0.00     0.045 A 
HETATM   25  C   UNK N   1      26.231  26.292  -8.093  0.00  0.00     0.116 A 
HETATM   26  C   UNK N   1      25.676  25.333  -7.234  0.00  0.00     0.045 A 
HETATM   27  F   UNK N   1      25.836  26.366  -9.385  0.00  0.00    -0.206 F 
HETATM   28  C   UNK N   1      26.073  25.273  -5.890  0.00  0.00     0.040 A 
ENDBRANCH  21  22
ENDBRANCH   1  21
TORSDOF 4
ENDMDL
