REMARK  6 active torsions:
REMARK  status: ('A' for Active; 'I' for Inactive)
REMARK    1  A    between atoms: N_6  and  C_7 
REMARK    2  A    between atoms: C_7  and  C_8 
REMARK    3  A    between atoms: C_8  and  C_9 
REMARK    4  A    between atoms: C_9  and  O_10 
REMARK    5  A    between atoms: O_10  and  C_11 
REMARK    6  A    between atoms: C_14  and  C_17 
ROOT
HETATM    1  C   UNK N   1       3.635  -4.261   0.032  0.00  0.00     0.068 A 
HETATM    2  C   UNK N   1       4.926  -3.760  -0.170  0.00  0.00     0.037 A 
HETATM    3  C   UNK N   1       6.026  -4.626  -0.168  0.00  0.00     0.016 A 
HETATM    4  C   UNK N   1       5.841  -6.006   0.022  0.00  0.00    -0.008 A 
HETATM    5  C   UNK N   1       4.547  -6.502   0.219  0.00  0.00     0.016 A 
HETATM    6  C   UNK N   1       3.456  -5.639   0.233  0.00  0.00     0.037 A 
ENDROOT
BRANCH   1   7
HETATM    7  O   UNK N   1       2.582  -3.404   0.030  0.00  0.00    -0.351 OA
BRANCH   7   8
HETATM    8  C   UNK N   1       1.300  -3.757   0.408  0.00  0.00     0.177 C 
BRANCH   8   9
HETATM    9  C   UNK N   1       0.696  -4.803  -0.518  0.00  0.00     0.057 C 
BRANCH   9  10
HETATM   10  C   UNK N   1      -0.509  -5.418   0.175  0.00  0.00     0.275 C 
BRANCH  10  11
HETATM   11  N   UNK N   1      -1.755  -4.934  -0.410  0.00  0.00     0.092 N 
HETATM   12  C   UNK N   1      -1.924  -3.522  -0.085  0.00  0.00     0.273 C 
HETATM   13  C   UNK N   1      -3.409  -3.274   0.107  0.00  0.00     0.032 C 
HETATM   14  C   UNK N   1      -4.037  -4.648   0.140  0.00  0.00     0.037 C 
HETATM   15  C   UNK N   1      -2.858  -5.577   0.284  0.00  0.00     0.219 C 
HETATM   16  C   UNK N   1      -3.175  -6.932  -0.323  0.00  0.00     0.043 C 
ENDBRANCH  10  11
ENDBRANCH   9  10
ENDBRANCH   8   9
ENDBRANCH   7   8
ENDBRANCH   1   7
BRANCH   4  17
HETATM   17  C   UNK N   1       6.981  -6.943   0.013  0.00  0.00     0.058 A 
HETATM   18  C   UNK N   1       8.296  -6.481  -0.105  0.00  0.00     0.037 A 
HETATM   19  C   UNK N   1       9.345  -7.397  -0.108  0.00  0.00     0.078 A 
HETATM   20  C   UNK N   1       9.058  -8.754  -0.001  0.00  0.00     0.259 A 
HETATM   21  O   UNK N   1       9.958  -9.573  -0.005  0.00  0.00    -0.267 OA
HETATM   22  N   UNK N   1       7.757  -9.164   0.110  0.00  0.00    -0.266 N 
HETATM   23  N   UNK N   1       6.755  -8.283   0.120  0.00  0.00    -0.297 N 
HETATM   24  H   UNK N   1       7.557 -10.125   0.184  0.00  0.00     0.190 HD
ATOM     25  HN  UNK N   1       5.796  -8.620   0.208  1.00  0.00     0.187 HD
ENDBRANCH   4  17
TORSDOF 6
