MODEL 1
REMARK VINA RESULT:      -5.8      0.000      0.000
REMARK  4 active torsions:
REMARK  status: ('A' for Active; 'I' for Inactive)
REMARK    1  A    between atoms: N_11  and  C_7 
REMARK    2  A    between atoms: N_13  and  C_8 
REMARK    3  A    between atoms: N_11  and  N_9 
REMARK    4  A    between atoms: N_13  and  N_10 
ROOT
HETATM    1  C   UNK N   1      35.124   9.548  16.944  0.00  0.00     0.001 A 
HETATM    2  C   UNK N   1      34.869   9.508  18.314  0.00  0.00     0.001 A 
HETATM    3  C   UNK N   1      35.394  10.766  16.317  0.00  0.00     0.016 A 
HETATM    4  C   UNK N   1      34.884  10.687  19.058  0.00  0.00     0.016 A 
HETATM    5  C   UNK N   1      35.415  11.969  17.047  0.00  0.00     0.025 A 
HETATM    6  C   UNK N   1      35.154  11.919  18.438  0.00  0.00     0.025 A 
HETATM    7  C   UNK N   1      35.686  13.236  16.451  0.00  0.00     0.145 A 
HETATM    8  C   UNK N   1      35.170  13.105  19.184  0.00  0.00     0.145 A 
HETATM    9  N   UNK N   1      35.682  14.339  17.246  0.00  0.00    -0.282 N 
HETATM   10  N   UNK N   1      35.435  14.280  18.554  0.00  0.00    -0.282 N 
HETATM   11  H   UNK N   1      35.868  15.216  16.839  0.00  0.00     0.188 HD
HETATM   12  H   UNK N   1      35.445  15.113  19.081  0.00  0.00     0.188 HD
ENDROOT
BRANCH   7  13
HETATM   13  N   UNK N   1      35.938  13.405  15.192  0.00  0.00    -0.290 N 
ATOM     14  HN  UNK N   1      35.147  13.444  14.547  1.00  0.00     0.188 HD
BRANCH  13  15
HETATM   15  N   UNK N   1      37.200  13.536  14.670  0.00  0.00    -0.344 N 
HETATM   16  H   UNK N   1      37.983  13.248  15.194  0.00  0.00     0.176 HD
HETATM   17  H   UNK N   1      37.325  13.918  13.771  0.00  0.00     0.176 HD
ENDBRANCH  13  15
ENDBRANCH   7  13
BRANCH   8  18
HETATM   18  N   UNK N   1      34.936  13.084  20.450  0.00  0.00    -0.290 N 
ATOM     19  HN  UNK N   1      35.332  12.336  21.018  1.00  0.00     0.188 HD
BRANCH  18  20
HETATM   20  N   UNK N   1      34.165  14.049  21.050  0.00  0.00    -0.344 N 
HETATM   21  H   UNK N   1      34.317  15.000  20.845  0.00  0.00     0.176 HD
HETATM   22  H   UNK N   1      33.459  13.790  21.687  0.00  0.00     0.176 HD
ENDBRANCH  18  20
ENDBRANCH   8  18
TORSDOF 4
ENDMDL
MODEL 2
REMARK VINA RESULT:      -5.8      0.441      3.763
REMARK  4 active torsions:
REMARK  status: ('A' for Active; 'I' for Inactive)
REMARK    1  A    between atoms: N_11  and  C_7 
REMARK    2  A    between atoms: N_13  and  C_8 
REMARK    3  A    between atoms: N_11  and  N_9 
REMARK    4  A    between atoms: N_13  and  N_10 
ROOT
HETATM    1  C   UNK N   1      34.947   9.605  17.798  0.00  0.00     0.001 A 
HETATM    2  C   UNK N   1      35.288   9.789  16.459  0.00  0.00     0.001 A 
HETATM    3  C   UNK N   1      34.910  10.697  18.667  0.00  0.00     0.016 A 
HETATM    4  C   UNK N   1      35.593  11.065  15.988  0.00  0.00     0.016 A 
HETATM    5  C   UNK N   1      35.214  11.995  18.216  0.00  0.00     0.025 A 
HETATM    6  C   UNK N   1      35.559  12.172  16.854  0.00  0.00     0.025 A 
HETATM    7  C   UNK N   1      35.190  13.140  19.067  0.00  0.00     0.145 A 
HETATM    8  C   UNK N   1      35.865  13.456  16.384  0.00  0.00     0.145 A 
HETATM    9  N   UNK N   1      35.500  14.350  18.531  0.00  0.00    -0.282 N 
HETATM   10  N   UNK N   1      35.824  14.505  17.247  0.00  0.00    -0.282 N 
HETATM   11  H   UNK N   1      35.485  15.143  19.114  0.00  0.00     0.188 HD
HETATM   12  H   UNK N   1      36.039  15.407  16.914  0.00  0.00     0.188 HD
ENDROOT
BRANCH   7  13
HETATM   13  N   UNK N   1      34.890  13.101  20.326  0.00  0.00    -0.290 N 
ATOM     14  HN  UNK N   1      35.188  12.286  20.863  1.00  0.00     0.188 HD
BRANCH  13  15
HETATM   15  N   UNK N   1      34.195  14.086  20.983  0.00  0.00    -0.344 N 
HETATM   16  H   UNK N   1      34.655  14.657  21.641  0.00  0.00     0.176 HD
HETATM   17  H   UNK N   1      33.239  14.222  20.798  0.00  0.00     0.176 HD
ENDBRANCH  13  15
ENDBRANCH   7  13
BRANCH   8  18
HETATM   18  N   UNK N   1      36.182  13.642  15.150  0.00  0.00    -0.290 N 
ATOM     19  HN  UNK N   1      35.790  13.028  14.436  1.00  0.00     0.188 HD
BRANCH  18  20
HETATM   20  N   UNK N   1      37.037  14.649  14.775  0.00  0.00    -0.344 N 
HETATM   21  H   UNK N   1      36.797  15.588  14.947  0.00  0.00     0.176 HD
HETATM   22  H   UNK N   1      37.891  14.432  14.334  0.00  0.00     0.176 HD
ENDBRANCH  18  20
ENDBRANCH   8  18
TORSDOF 4
ENDMDL
MODEL 3
REMARK VINA RESULT:      -5.5      2.243      4.925
REMARK  4 active torsions:
REMARK  status: ('A' for Active; 'I' for Inactive)
REMARK    1  A    between atoms: N_11  and  C_7 
REMARK    2  A    between atoms: N_13  and  C_8 
REMARK    3  A    between atoms: N_11  and  N_9 
REMARK    4  A    between atoms: N_13  and  N_10 
ROOT
HETATM    1  C   UNK N   1      33.705  10.617  14.449  0.00  0.00     0.001 A 
HETATM    2  C   UNK N   1      34.164  10.836  13.151  0.00  0.00     0.001 A 
HETATM    3  C   UNK N   1      34.171  11.409  15.500  0.00  0.00     0.016 A 
HETATM    4  C   UNK N   1      35.089  11.849  12.903  0.00  0.00     0.016 A 
HETATM    5  C   UNK N   1      35.105  12.438  15.275  0.00  0.00     0.025 A 
HETATM    6  C   UNK N   1      35.565  12.653  13.953  0.00  0.00     0.025 A 
HETATM    7  C   UNK N   1      35.609  13.273  16.316  0.00  0.00     0.145 A 
HETATM    8  C   UNK N   1      36.495  13.672  13.707  0.00  0.00     0.145 A 
HETATM    9  N   UNK N   1      36.509  14.238  15.991  0.00  0.00    -0.282 N 
HETATM   10  N   UNK N   1      36.936  14.432  14.744  0.00  0.00    -0.282 N 
HETATM   11  H   UNK N   1      36.860  14.817  16.706  0.00  0.00     0.188 HD
HETATM   12  H   UNK N   1      37.590  15.148  14.567  0.00  0.00     0.188 HD
ENDROOT
BRANCH   7  13
HETATM   13  N   UNK N   1      35.262  13.169  17.559  0.00  0.00    -0.290 N 
ATOM     14  HN  UNK N   1      34.932  12.262  17.889  1.00  0.00     0.188 HD
BRANCH  13  15
HETATM   15  N   UNK N   1      35.310  14.204  18.461  0.00  0.00    -0.344 N 
HETATM   16  H   UNK N   1      35.230  14.021  19.425  0.00  0.00     0.176 HD
HETATM   17  H   UNK N   1      35.424  15.128  18.144  0.00  0.00     0.176 HD
ENDBRANCH  13  15
ENDBRANCH   7  13
BRANCH   8  18
HETATM   18  N   UNK N   1      36.928  13.887  12.513  0.00  0.00    -0.290 N 
ATOM     19  HN  UNK N   1      37.501  13.178  12.055  1.00  0.00     0.188 HD
BRANCH  18  20
HETATM   20  N   UNK N   1      36.635  15.050  11.845  0.00  0.00    -0.344 N 
HETATM   21  H   UNK N   1      35.703  15.260  11.606  0.00  0.00     0.176 HD
HETATM   22  H   UNK N   1      37.357  15.676  11.604  0.00  0.00     0.176 HD
ENDBRANCH  18  20
ENDBRANCH   8  18
TORSDOF 4
ENDMDL
MODEL 4
REMARK VINA RESULT:      -5.5      2.240      3.261
REMARK  4 active torsions:
REMARK  status: ('A' for Active; 'I' for Inactive)
REMARK    1  A    between atoms: N_11  and  C_7 
REMARK    2  A    between atoms: N_13  and  C_8 
REMARK    3  A    between atoms: N_11  and  N_9 
REMARK    4  A    between atoms: N_13  and  N_10 
ROOT
HETATM    1  C   UNK N   1      34.106  10.829  13.246  0.00  0.00     0.001 A 
HETATM    2  C   UNK N   1      33.693  10.637  14.563  0.00  0.00     0.001 A 
HETATM    3  C   UNK N   1      35.021  11.838  12.939  0.00  0.00     0.016 A 
HETATM    4  C   UNK N   1      34.195  11.453  15.575  0.00  0.00     0.016 A 
HETATM    5  C   UNK N   1      35.543  12.675  13.944  0.00  0.00     0.025 A 
HETATM    6  C   UNK N   1      35.117  12.472  15.279  0.00  0.00     0.025 A 
HETATM    7  C   UNK N   1      36.479  13.718  13.679  0.00  0.00     0.145 A 
HETATM    8  C   UNK N   1      35.624  13.294  16.294  0.00  0.00     0.145 A 
HETATM    9  N   UNK N   1      36.921  14.470  14.721  0.00  0.00    -0.282 N 
HETATM   10  N   UNK N   1      36.514  14.270  15.974  0.00  0.00    -0.282 N 
HETATM   11  H   UNK N   1      37.567  15.191  14.543  0.00  0.00     0.188 HD
HETATM   12  H   UNK N   1      36.869  14.847  16.691  0.00  0.00     0.188 HD
ENDROOT
BRANCH   7  13
HETATM   13  N   UNK N   1      36.939  13.997  12.500  0.00  0.00    -0.290 N 
ATOM     14  HN  UNK N   1      37.565  13.322  12.060  1.00  0.00     0.188 HD
BRANCH  13  15
HETATM   15  N   UNK N   1      36.636  15.142  11.807  0.00  0.00    -0.344 N 
HETATM   16  H   UNK N   1      36.858  15.212  10.850  0.00  0.00     0.176 HD
HETATM   17  H   UNK N   1      36.197  15.894  12.265  0.00  0.00     0.176 HD
ENDBRANCH  13  15
ENDBRANCH   7  13
BRANCH   8  18
HETATM   18  N   UNK N   1      35.252  13.128  17.516  0.00  0.00    -0.290 N 
ATOM     19  HN  UNK N   1      34.895  12.219  17.810  1.00  0.00     0.188 HD
BRANCH  18  20
HETATM   20  N   UNK N   1      35.326  14.150  18.431  0.00  0.00    -0.344 N 
HETATM   21  H   UNK N   1      35.384  13.947  19.392  0.00  0.00     0.176 HD
HETATM   22  H   UNK N   1      35.321  15.086  18.125  0.00  0.00     0.176 HD
ENDBRANCH  18  20
ENDBRANCH   8  18
TORSDOF 4
ENDMDL
MODEL 5
REMARK VINA RESULT:      -5.5     12.115     13.809
REMARK  4 active torsions:
REMARK  status: ('A' for Active; 'I' for Inactive)
REMARK    1  A    between atoms: N_11  and  C_7 
REMARK    2  A    between atoms: N_13  and  C_8 
REMARK    3  A    between atoms: N_11  and  N_9 
REMARK    4  A    between atoms: N_13  and  N_10 
ROOT
HETATM    1  C   UNK N   1      30.838  16.710   5.612  0.00  0.00     0.001 A 
HETATM    2  C   UNK N   1      29.969  17.426   4.791  0.00  0.00     0.001 A 
HETATM    3  C   UNK N   1      30.682  16.747   6.999  0.00  0.00     0.016 A 
HETATM    4  C   UNK N   1      28.941  18.180   5.356  0.00  0.00     0.016 A 
HETATM    5  C   UNK N   1      29.652  17.501   7.593  0.00  0.00     0.025 A 
HETATM    6  C   UNK N   1      28.774  18.225   6.751  0.00  0.00     0.025 A 
HETATM    7  C   UNK N   1      29.453  17.569   9.004  0.00  0.00     0.145 A 
HETATM    8  C   UNK N   1      27.742  18.982   7.322  0.00  0.00     0.145 A 
HETATM    9  N   UNK N   1      28.428  18.327   9.476  0.00  0.00    -0.282 N 
HETATM   10  N   UNK N   1      27.607  19.005   8.674  0.00  0.00    -0.282 N 
HETATM   11  H   UNK N   1      28.286  18.377  10.449  0.00  0.00     0.188 HD
HETATM   12  H   UNK N   1      26.881  19.538   9.073  0.00  0.00     0.188 HD
ENDROOT
BRANCH   7  13
HETATM   13  N   UNK N   1      30.191  16.951   9.870  0.00  0.00    -0.290 N 
ATOM     14  HN  UNK N   1      31.191  16.877   9.680  1.00  0.00     0.188 HD
BRANCH  13  15
HETATM   15  N   UNK N   1      29.713  16.390  11.029  0.00  0.00    -0.344 N 
HETATM   16  H   UNK N   1      29.653  16.931  11.850  0.00  0.00     0.176 HD
HETATM   17  H   UNK N   1      29.430  15.448  11.039  0.00  0.00     0.176 HD
ENDBRANCH  13  15
ENDBRANCH   7  13
BRANCH   8  18
HETATM   18  N   UNK N   1      26.931  19.649   6.576  0.00  0.00    -0.290 N 
ATOM     19  HN  UNK N   1      26.802  19.368   5.604  1.00  0.00     0.188 HD
BRANCH  18  20
HETATM   20  N   UNK N   1      26.236  20.728   7.063  0.00  0.00    -0.344 N 
HETATM   21  H   UNK N   1      26.509  21.642   6.816  0.00  0.00     0.176 HD
HETATM   22  H   UNK N   1      25.465  20.589   7.660  0.00  0.00     0.176 HD
ENDBRANCH  18  20
ENDBRANCH   8  18
TORSDOF 4
ENDMDL
MODEL 6
REMARK VINA RESULT:      -5.5     12.010     13.502
REMARK  4 active torsions:
REMARK  status: ('A' for Active; 'I' for Inactive)
REMARK    1  A    between atoms: N_11  and  C_7 
REMARK    2  A    between atoms: N_13  and  C_8 
REMARK    3  A    between atoms: N_11  and  N_9 
REMARK    4  A    between atoms: N_13  and  N_10 
ROOT
HETATM    1  C   UNK N   1      30.203  17.227   4.926  0.00  0.00     0.001 A 
HETATM    2  C   UNK N   1      31.025  16.557   5.831  0.00  0.00     0.001 A 
HETATM    3  C   UNK N   1      29.141  18.006   5.388  0.00  0.00     0.016 A 
HETATM    4  C   UNK N   1      30.786  16.667   7.200  0.00  0.00     0.016 A 
HETATM    5  C   UNK N   1      28.880  18.133   6.766  0.00  0.00     0.025 A 
HETATM    6  C   UNK N   1      29.720  17.449   7.678  0.00  0.00     0.025 A 
HETATM    7  C   UNK N   1      27.807  18.918   7.285  0.00  0.00     0.145 A 
HETATM    8  C   UNK N   1      29.477  17.562   9.053  0.00  0.00     0.145 A 
HETATM    9  N   UNK N   1      27.641  18.974   8.633  0.00  0.00    -0.282 N 
HETATM   10  N   UNK N   1      28.438  18.326   9.482  0.00  0.00    -0.282 N 
HETATM   11  H   UNK N   1      26.902  19.514   8.996  0.00  0.00     0.188 HD
HETATM   12  H   UNK N   1      28.270  18.403  10.450  0.00  0.00     0.188 HD
ENDROOT
BRANCH   7  13
HETATM   13  N   UNK N   1      26.976  19.585   6.550  0.00  0.00    -0.290 N 
ATOM     14  HN  UNK N   1      26.858  19.295   5.578  1.00  0.00     0.188 HD
BRANCH  13  15
HETATM   15  N   UNK N   1      26.244  20.658   6.995  0.00  0.00    -0.344 N 
HETATM   16  H   UNK N   1      25.470  20.976   6.475  0.00  0.00     0.176 HD
HETATM   17  H   UNK N   1      26.492  21.109   7.833  0.00  0.00     0.176 HD
ENDBRANCH  13  15
ENDBRANCH   7  13
BRANCH   8  18
HETATM   18  N   UNK N   1      30.228  16.949   9.902  0.00  0.00    -0.290 N 
ATOM     19  HN  UNK N   1      31.231  16.888   9.727  1.00  0.00     0.188 HD
BRANCH  18  20
HETATM   20  N   UNK N   1      29.706  16.377  11.035  0.00  0.00    -0.344 N 
HETATM   21  H   UNK N   1      29.958  16.723  11.922  0.00  0.00     0.176 HD
HETATM   22  H   UNK N   1      29.079  15.621  10.962  0.00  0.00     0.176 HD
ENDBRANCH  18  20
ENDBRANCH   8  18
TORSDOF 4
ENDMDL
MODEL 7
REMARK VINA RESULT:      -5.4      1.831      3.646
REMARK  4 active torsions:
REMARK  status: ('A' for Active; 'I' for Inactive)
REMARK    1  A    between atoms: N_11  and  C_7 
REMARK    2  A    between atoms: N_13  and  C_8 
REMARK    3  A    between atoms: N_11  and  N_9 
REMARK    4  A    between atoms: N_13  and  N_10 
ROOT
HETATM    1  C   UNK N   1      34.727  10.817  15.636  0.00  0.00     0.001 A 
HETATM    2  C   UNK N   1      34.608  12.183  15.392  0.00  0.00     0.001 A 
HETATM    3  C   UNK N   1      35.022  10.357  16.921  0.00  0.00     0.016 A 
HETATM    4  C   UNK N   1      34.785  13.093  16.434  0.00  0.00     0.016 A 
HETATM    5  C   UNK N   1      35.205  11.256  17.989  0.00  0.00     0.025 A 
HETATM    6  C   UNK N   1      35.082  12.643  17.731  0.00  0.00     0.025 A 
HETATM    7  C   UNK N   1      35.507  10.834  19.317  0.00  0.00     0.145 A 
HETATM    8  C   UNK N   1      35.260  13.554  18.781  0.00  0.00     0.145 A 
HETATM    9  N   UNK N   1      35.664  11.784  20.277  0.00  0.00    -0.282 N 
HETATM   10  N   UNK N   1      35.546  13.087  20.024  0.00  0.00    -0.282 N 
HETATM   11  H   UNK N   1      35.873  11.497  21.196  0.00  0.00     0.188 HD
HETATM   12  H   UNK N   1      35.671  13.730  20.760  0.00  0.00     0.188 HD
ENDROOT
BRANCH   7  13
HETATM   13  N   UNK N   1      35.643   9.595  19.671  0.00  0.00    -0.290 N 
ATOM     14  HN  UNK N   1      35.871   8.914  18.946  1.00  0.00     0.188 HD
BRANCH  13  15
HETATM   15  N   UNK N   1      35.498   9.142  20.959  0.00  0.00    -0.344 N 
HETATM   16  H   UNK N   1      34.672   9.335  21.459  0.00  0.00     0.176 HD
HETATM   17  H   UNK N   1      36.219   8.624  21.382  0.00  0.00     0.176 HD
ENDBRANCH  13  15
ENDBRANCH   7  13
BRANCH   8  18
HETATM   18  N   UNK N   1      35.153  14.821  18.571  0.00  0.00    -0.290 N 
ATOM     19  HN  UNK N   1      34.231  15.255  18.594  1.00  0.00     0.188 HD
BRANCH  18  20
HETATM   20  N   UNK N   1      36.256  15.598  18.316  0.00  0.00    -0.344 N 
HETATM   21  H   UNK N   1      37.074  15.483  18.852  0.00  0.00     0.176 HD
HETATM   22  H   UNK N   1      36.229  16.271  17.597  0.00  0.00     0.176 HD
ENDBRANCH  18  20
ENDBRANCH   8  18
TORSDOF 4
ENDMDL
MODEL 8
REMARK VINA RESULT:      -5.4      3.161      5.331
REMARK  4 active torsions:
REMARK  status: ('A' for Active; 'I' for Inactive)
REMARK    1  A    between atoms: N_11  and  C_7 
REMARK    2  A    between atoms: N_13  and  C_8 
REMARK    3  A    between atoms: N_11  and  N_9 
REMARK    4  A    between atoms: N_13  and  N_10 
ROOT
HETATM    1  C   UNK N   1      34.714  10.983  16.048  0.00  0.00     0.001 A 
HETATM    2  C   UNK N   1      34.002  10.493  14.955  0.00  0.00     0.001 A 
HETATM    3  C   UNK N   1      35.558  12.085  15.898  0.00  0.00     0.016 A 
HETATM    4  C   UNK N   1      34.134  11.106  13.709  0.00  0.00     0.016 A 
HETATM    5  C   UNK N   1      35.707  12.720  14.651  0.00  0.00     0.025 A 
HETATM    6  C   UNK N   1      34.980  12.216  13.546  0.00  0.00     0.025 A 
HETATM    7  C   UNK N   1      36.557  13.848  14.450  0.00  0.00     0.145 A 
HETATM    8  C   UNK N   1      35.115  12.833  12.295  0.00  0.00     0.145 A 
HETATM    9  N   UNK N   1      36.630  14.388  13.204  0.00  0.00    -0.282 N 
HETATM   10  N   UNK N   1      35.941  13.905  12.170  0.00  0.00    -0.282 N 
HETATM   11  H   UNK N   1      37.216  15.167  13.060  0.00  0.00     0.188 HD
HETATM   12  H   UNK N   1      36.034  14.337  11.290  0.00  0.00     0.188 HD
ENDROOT
BRANCH   7  13
HETATM   13  N   UNK N   1      37.269  14.395  15.383  0.00  0.00    -0.290 N 
ATOM     14  HN  UNK N   1      37.634  13.792  16.121  1.00  0.00     0.188 HD
BRANCH  13  15
HETATM   15  N   UNK N   1      37.562  15.735  15.443  0.00  0.00    -0.344 N 
HETATM   16  H   UNK N   1      37.268  16.336  14.720  0.00  0.00     0.176 HD
HETATM   17  H   UNK N   1      38.067  16.095  16.207  0.00  0.00     0.176 HD
ENDBRANCH  13  15
ENDBRANCH   7  13
BRANCH   8  18
HETATM   18  N   UNK N   1      34.463  12.392  11.275  0.00  0.00    -0.290 N 
ATOM     19  HN  UNK N   1      34.312  11.389  11.176  1.00  0.00     0.188 HD
BRANCH  18  20
HETATM   20  N   UNK N   1      33.969  13.245  10.320  0.00  0.00    -0.344 N 
HETATM   21  H   UNK N   1      33.056  13.604  10.404  0.00  0.00     0.176 HD
HETATM   22  H   UNK N   1      34.528  13.499   9.549  0.00  0.00     0.176 HD
ENDBRANCH  18  20
ENDBRANCH   8  18
TORSDOF 4
ENDMDL
MODEL 9
REMARK VINA RESULT:      -5.3      3.155      4.575
REMARK  4 active torsions:
REMARK  status: ('A' for Active; 'I' for Inactive)
REMARK    1  A    between atoms: N_11  and  C_7 
REMARK    2  A    between atoms: N_13  and  C_8 
REMARK    3  A    between atoms: N_11  and  N_9 
REMARK    4  A    between atoms: N_13  and  N_10 
ROOT
HETATM    1  C   UNK N   1      34.049  10.463  14.951  0.00  0.00     0.001 A 
HETATM    2  C   UNK N   1      34.778  10.977  16.022  0.00  0.00     0.001 A 
HETATM    3  C   UNK N   1      34.137  11.062  13.693  0.00  0.00     0.016 A 
HETATM    4  C   UNK N   1      35.596  12.090  15.837  0.00  0.00     0.016 A 
HETATM    5  C   UNK N   1      34.956  12.187  13.480  0.00  0.00     0.025 A 
HETATM    6  C   UNK N   1      35.693  12.701  14.575  0.00  0.00     0.025 A 
HETATM    7  C   UNK N   1      35.078  12.832  12.214  0.00  0.00     0.145 A 
HETATM    8  C   UNK N   1      36.514  13.820  14.384  0.00  0.00     0.145 A 
HETATM    9  N   UNK N   1      35.897  13.912  12.115  0.00  0.00    -0.282 N 
HETATM   10  N   UNK N   1      36.586  14.388  13.152  0.00  0.00    -0.282 N 
HETATM   11  H   UNK N   1      35.985  14.361  11.243  0.00  0.00     0.188 HD
HETATM   12  H   UNK N   1      37.165  15.175  13.021  0.00  0.00     0.188 HD
ENDROOT
BRANCH   7  13
HETATM   13  N   UNK N   1      34.455  12.452  11.144  0.00  0.00    -0.290 N 
ATOM     14  HN  UNK N   1      34.332  11.450  10.993  1.00  0.00     0.188 HD
BRANCH  13  15
HETATM   15  N   UNK N   1      33.950  13.311  10.201  0.00  0.00    -0.344 N 
HETATM   16  H   UNK N   1      34.089  13.129   9.243  0.00  0.00     0.176 HD
HETATM   17  H   UNK N   1      33.448  14.110  10.481  0.00  0.00     0.176 HD
ENDBRANCH  13  15
ENDBRANCH   7  13
BRANCH   8  18
HETATM   18  N   UNK N   1      37.194  14.306  15.365  0.00  0.00    -0.290 N 
ATOM     19  HN  UNK N   1      37.468  13.695  16.133  1.00  0.00     0.188 HD
BRANCH  18  20
HETATM   20  N   UNK N   1      37.556  15.630  15.397  0.00  0.00    -0.344 N 
HETATM   21  H   UNK N   1      38.506  15.883  15.337  0.00  0.00     0.176 HD
HETATM   22  H   UNK N   1      36.865  16.328  15.479  0.00  0.00     0.176 HD
ENDBRANCH  18  20
ENDBRANCH   8  18
TORSDOF 4
ENDMDL
