MODEL 1
REMARK VINA RESULT:      -6.9      0.000      0.000
REMARK  10 active torsions:
REMARK  status: ('A' for Active; 'I' for Inactive)
REMARK    1  A    between atoms: C_5  and  C_8 
REMARK    2  A    between atoms: C_8  and  N_9 
REMARK    3  A    between atoms: C_13  and  C_16 
REMARK    4  A    between atoms: C_16  and  C_17 
REMARK    5  A    between atoms: C_17  and  C_18 
REMARK    6  A    between atoms: C_18  and  C_19 
REMARK    7  A    between atoms: C_22  and  O_25 
REMARK    8  A    between atoms: O_25  and  C_26 
REMARK    9  A    between atoms: C_26  and  C_29 
REMARK   10  A    between atoms: C_29  and  O_31 
ROOT
HETATM    1  C   UNK N   1      28.364  30.384  -5.508  0.00  0.00     0.078 C 
ENDROOT
BRANCH   1   2
HETATM    2  C   UNK N   1      27.323  29.424  -5.031  0.00  0.00     0.100 A 
HETATM    3  N   UNK N   1      26.999  29.259  -3.728  0.00  0.00    -0.296 N 
HETATM    4  C   UNK N   1      26.043  28.304  -3.778  0.00  0.00     0.342 A 
HETATM    5  H   UNK N   1      27.366  29.721  -2.940  0.00  0.00     0.172 HD
HETATM    6  N   UNK N   1      25.811  27.906  -5.055  0.00  0.00    -0.237 N 
HETATM    7  O   UNK N   1      25.472  27.865  -2.797  0.00  0.00    -0.245 OA
HETATM    8  N   UNK N   1      26.607  28.610  -5.839  0.00  0.00    -0.282 N 
ATOM      9  HN  UNK N   1      26.670  28.552  -6.856  1.00  0.00     0.188 HD
BRANCH   6  10
HETATM   10  C   UNK N   1      24.847  26.924  -5.551  0.00  0.00     0.192 C 
BRANCH  10  11
HETATM   11  C   UNK N   1      25.507  25.673  -6.036  0.00  0.00    -0.038 A 
HETATM   12  C   UNK N   1      25.758  24.607  -5.162  0.00  0.00     0.009 A 
HETATM   13  C   UNK N   1      26.345  23.433  -5.646  0.00  0.00     0.007 A 
HETATM   14  C   UNK N   1      26.681  23.324  -7.000  0.00  0.00    -0.062 A 
HETATM   15  C   UNK N   1      27.298  22.075  -7.517  0.00  0.00     0.048 C 
HETATM   16  C   UNK N   1      26.436  24.391  -7.869  0.00  0.00     0.007 A 
HETATM   17  C   UNK N   1      25.849  25.563  -7.388  0.00  0.00     0.009 A 
ENDBRANCH  10  11
ENDBRANCH   6  10
ENDBRANCH   1   2
BRANCH   1  18
HETATM   18  C   UNK N   1      29.332  29.792  -6.540  0.00  0.00     0.012 C 
BRANCH  18  19
HETATM   19  C   UNK N   1      30.508  29.013  -5.945  0.00  0.00     0.039 C 
BRANCH  19  20
HETATM   20  C   UNK N   1      30.167  27.679  -5.359  0.00  0.00    -0.058 A 
HETATM   21  C   UNK N   1      29.646  26.704  -6.212  0.00  0.00     0.010 A 
HETATM   22  C   UNK N   1      29.415  25.412  -5.746  0.00  0.00     0.037 A 
HETATM   23  C   UNK N   1      29.710  25.078  -4.421  0.00  0.00     0.070 A 
HETATM   24  C   UNK N   1      30.177  26.065  -3.544  0.00  0.00     0.037 A 
HETATM   25  C   UNK N   1      30.410  27.362  -4.012  0.00  0.00     0.010 A 
BRANCH  23  26
HETATM   26  O   UNK N   1      29.594  23.788  -4.028  0.00  0.00    -0.330 OA
BRANCH  26  27
HETATM   27  C   UNK N   1      30.671  22.907  -3.978  0.00  0.00     0.145 C 
HETATM   28  C   UNK N   1      31.898  23.504  -4.662  0.00  0.00     0.058 C 
HETATM   29  C   UNK N   1      30.289  21.667  -4.773  0.00  0.00     0.058 C 
BRANCH  27  30
HETATM   30  C   UNK N   1      31.033  22.536  -2.550  0.00  0.00     0.175 C 
HETATM   31  O   UNK N   1      31.946  21.757  -2.321  0.00  0.00    -0.648 OA
BRANCH  30  32
HETATM   32  O   UNK N   1      30.370  23.088  -1.515  0.00  0.00    -0.774 OA
HETATM   33  H   UNK N   1      30.780  23.417  -0.739  0.00  0.00     0.167 HD
ENDBRANCH  30  32
ENDBRANCH  27  30
ENDBRANCH  26  27
ENDBRANCH  23  26
ENDBRANCH  19  20
ENDBRANCH  18  19
ENDBRANCH   1  18
TORSDOF 10
ENDMDL
MODEL 2
REMARK VINA RESULT:      -6.6     12.977     16.163
REMARK  10 active torsions:
REMARK  status: ('A' for Active; 'I' for Inactive)
REMARK    1  A    between atoms: C_5  and  C_8 
REMARK    2  A    between atoms: C_8  and  N_9 
REMARK    3  A    between atoms: C_13  and  C_16 
REMARK    4  A    between atoms: C_16  and  C_17 
REMARK    5  A    between atoms: C_17  and  C_18 
REMARK    6  A    between atoms: C_18  and  C_19 
REMARK    7  A    between atoms: C_22  and  O_25 
REMARK    8  A    between atoms: O_25  and  C_26 
REMARK    9  A    between atoms: C_26  and  C_29 
REMARK   10  A    between atoms: C_29  and  O_31 
ROOT
HETATM    1  C   UNK N   1      28.218  18.309   9.005  0.00  0.00     0.078 C 
ENDROOT
BRANCH   1   2
HETATM    2  C   UNK N   1      28.194  18.342   7.511  0.00  0.00     0.100 A 
HETATM    3  N   UNK N   1      27.470  19.231   6.794  0.00  0.00    -0.296 N 
HETATM    4  C   UNK N   1      27.744  18.877   5.518  0.00  0.00     0.342 A 
HETATM    5  H   UNK N   1      26.889  19.956   7.121  0.00  0.00     0.172 HD
HETATM    6  N   UNK N   1      28.589  17.816   5.471  0.00  0.00    -0.237 N 
HETATM    7  O   UNK N   1      27.285  19.446   4.544  0.00  0.00    -0.245 OA
HETATM    8  N   UNK N   1      28.875  17.484   6.717  0.00  0.00    -0.282 N 
ATOM      9  HN  UNK N   1      29.489  16.728   7.022  1.00  0.00     0.188 HD
BRANCH   6  10
HETATM   10  C   UNK N   1      29.155  17.142   4.303  0.00  0.00     0.192 C 
BRANCH  10  11
HETATM   11  C   UNK N   1      30.556  16.677   4.538  0.00  0.00    -0.038 A 
HETATM   12  C   UNK N   1      30.834  15.327   4.790  0.00  0.00     0.009 A 
HETATM   13  C   UNK N   1      32.157  14.909   4.972  0.00  0.00     0.007 A 
HETATM   14  C   UNK N   1      33.201  15.840   4.903  0.00  0.00    -0.062 A 
HETATM   15  C   UNK N   1      34.607  15.397   5.089  0.00  0.00     0.048 C 
HETATM   16  C   UNK N   1      32.921  17.187   4.657  0.00  0.00     0.007 A 
HETATM   17  C   UNK N   1      31.601  17.604   4.475  0.00  0.00     0.009 A 
ENDBRANCH  10  11
ENDBRANCH   6  10
ENDBRANCH   1   2
BRANCH   1  18
HETATM   18  C   UNK N   1      29.629  18.268   9.605  0.00  0.00     0.012 C 
BRANCH  18  19
HETATM   19  C   UNK N   1      30.756  18.584   8.618  0.00  0.00     0.039 C 
BRANCH  19  20
HETATM   20  C   UNK N   1      31.937  17.665   8.674  0.00  0.00    -0.058 A 
HETATM   21  C   UNK N   1      31.697  16.303   8.864  0.00  0.00     0.010 A 
HETATM   22  C   UNK N   1      32.748  15.390   8.813  0.00  0.00     0.037 A 
HETATM   23  C   UNK N   1      34.051  15.830   8.564  0.00  0.00     0.070 A 
HETATM   24  C   UNK N   1      34.308  17.200   8.430  0.00  0.00     0.037 A 
HETATM   25  C   UNK N   1      33.253  18.117   8.480  0.00  0.00     0.010 A 
BRANCH  23  26
HETATM   26  O   UNK N   1      35.032  14.913   8.396  0.00  0.00    -0.330 OA
BRANCH  26  27
HETATM   27  C   UNK N   1      35.743  14.354   9.455  0.00  0.00     0.145 C 
HETATM   28  C   UNK N   1      37.162  13.987   9.028  0.00  0.00     0.058 C 
HETATM   29  C   UNK N   1      35.053  13.053   9.837  0.00  0.00     0.058 C 
BRANCH  27  30
HETATM   30  C   UNK N   1      35.812  15.292  10.648  0.00  0.00     0.175 C 
HETATM   31  O   UNK N   1      34.970  15.238  11.533  0.00  0.00    -0.648 OA
BRANCH  30  32
HETATM   32  O   UNK N   1      36.823  16.175  10.761  0.00  0.00    -0.774 OA
HETATM   33  H   UNK N   1      37.200  16.642  10.042  0.00  0.00     0.167 HD
ENDBRANCH  30  32
ENDBRANCH  27  30
ENDBRANCH  26  27
ENDBRANCH  23  26
ENDBRANCH  19  20
ENDBRANCH  18  19
ENDBRANCH   1  18
TORSDOF 10
ENDMDL
MODEL 3
REMARK VINA RESULT:      -6.6     11.585     14.505
REMARK  10 active torsions:
REMARK  status: ('A' for Active; 'I' for Inactive)
REMARK    1  A    between atoms: C_5  and  C_8 
REMARK    2  A    between atoms: C_8  and  N_9 
REMARK    3  A    between atoms: C_13  and  C_16 
REMARK    4  A    between atoms: C_16  and  C_17 
REMARK    5  A    between atoms: C_17  and  C_18 
REMARK    6  A    between atoms: C_18  and  C_19 
REMARK    7  A    between atoms: C_22  and  O_25 
REMARK    8  A    between atoms: O_25  and  C_26 
REMARK    9  A    between atoms: C_26  and  C_29 
REMARK   10  A    between atoms: C_29  and  O_31 
ROOT
HETATM    1  C   UNK N   1      27.149  20.408   5.693  0.00  0.00     0.078 C 
ENDROOT
BRANCH   1   2
HETATM    2  C   UNK N   1      27.729  19.446   6.678  0.00  0.00     0.100 A 
HETATM    3  N   UNK N   1      27.374  19.407   7.983  0.00  0.00    -0.296 N 
HETATM    4  C   UNK N   1      28.149  18.413   8.473  0.00  0.00     0.342 A 
HETATM    5  H   UNK N   1      26.714  19.963   8.457  0.00  0.00     0.172 HD
HETATM    6  N   UNK N   1      28.942  17.884   7.505  0.00  0.00    -0.237 N 
HETATM    7  O   UNK N   1      28.130  18.048   9.633  0.00  0.00    -0.245 OA
HETATM    8  N   UNK N   1      28.675  18.526   6.382  0.00  0.00    -0.282 N 
ATOM      9  HN  UNK N   1      29.100  18.361   5.469  1.00  0.00     0.188 HD
BRANCH   6  10
HETATM   10  C   UNK N   1      29.899  16.783   7.601  0.00  0.00     0.192 C 
BRANCH  10  11
HETATM   11  C   UNK N   1      30.769  16.678   6.389  0.00  0.00    -0.038 A 
HETATM   12  C   UNK N   1      32.020  17.309   6.345  0.00  0.00     0.009 A 
HETATM   13  C   UNK N   1      32.832  17.168   5.214  0.00  0.00     0.007 A 
HETATM   14  C   UNK N   1      32.395  16.398   4.129  0.00  0.00    -0.062 A 
HETATM   15  C   UNK N   1      33.258  16.242   2.931  0.00  0.00     0.048 C 
HETATM   16  C   UNK N   1      31.145  15.775   4.174  0.00  0.00     0.007 A 
HETATM   17  C   UNK N   1      30.334  15.915   5.301  0.00  0.00     0.009 A 
ENDBRANCH  10  11
ENDBRANCH   6  10
ENDBRANCH   1   2
BRANCH   1  18
HETATM   18  C   UNK N   1      27.337  19.990   4.229  0.00  0.00     0.012 C 
BRANCH  18  19
HETATM   19  C   UNK N   1      26.273  20.525   3.266  0.00  0.00     0.039 C 
BRANCH  19  20
HETATM   20  C   UNK N   1      24.921  19.893   3.384  0.00  0.00    -0.058 A 
HETATM   21  C   UNK N   1      24.830  18.661   4.034  0.00  0.00     0.010 A 
HETATM   22  C   UNK N   1      23.586  18.080   4.269  0.00  0.00     0.037 A 
HETATM   23  C   UNK N   1      22.417  18.731   3.864  0.00  0.00     0.070 A 
HETATM   24  C   UNK N   1      22.503  19.939   3.160  0.00  0.00     0.037 A 
HETATM   25  C   UNK N   1      23.752  20.522   2.924  0.00  0.00     0.010 A 
BRANCH  23  26
HETATM   26  O   UNK N   1      21.219  18.208   4.215  0.00  0.00    -0.330 OA
BRANCH  26  27
HETATM   27  C   UNK N   1      20.525  17.296   3.423  0.00  0.00     0.145 C 
HETATM   28  C   UNK N   1      19.540  16.485   4.262  0.00  0.00     0.058 C 
HETATM   29  C   UNK N   1      21.537  16.308   2.863  0.00  0.00     0.058 C 
BRANCH  27  30
HETATM   30  C   UNK N   1      19.769  17.982   2.299  0.00  0.00     0.175 C 
HETATM   31  O   UNK N   1      20.181  17.931   1.149  0.00  0.00    -0.648 OA
BRANCH  30  32
HETATM   32  O   UNK N   1      18.615  18.631   2.551  0.00  0.00    -0.774 OA
HETATM   33  H   UNK N   1      17.968  18.341   3.164  0.00  0.00     0.167 HD
ENDBRANCH  30  32
ENDBRANCH  27  30
ENDBRANCH  26  27
ENDBRANCH  23  26
ENDBRANCH  19  20
ENDBRANCH  18  19
ENDBRANCH   1  18
TORSDOF 10
ENDMDL
MODEL 4
REMARK VINA RESULT:      -6.5     14.820     17.630
REMARK  10 active torsions:
REMARK  status: ('A' for Active; 'I' for Inactive)
REMARK    1  A    between atoms: C_5  and  C_8 
REMARK    2  A    between atoms: C_8  and  N_9 
REMARK    3  A    between atoms: C_13  and  C_16 
REMARK    4  A    between atoms: C_16  and  C_17 
REMARK    5  A    between atoms: C_17  and  C_18 
REMARK    6  A    between atoms: C_18  and  C_19 
REMARK    7  A    between atoms: C_22  and  O_25 
REMARK    8  A    between atoms: O_25  and  C_26 
REMARK    9  A    between atoms: C_26  and  C_29 
REMARK   10  A    between atoms: C_29  and  O_31 
ROOT
HETATM    1  C   UNK N   1      27.128  15.685   6.428  0.00  0.00     0.078 C 
ENDROOT
BRANCH   1   2
HETATM    2  C   UNK N   1      25.728  15.195   6.611  0.00  0.00     0.100 A 
HETATM    3  N   UNK N   1      24.634  15.962   6.403  0.00  0.00    -0.296 N 
HETATM    4  C   UNK N   1      23.619  15.119   6.698  0.00  0.00     0.342 A 
HETATM    5  H   UNK N   1      24.589  16.901   6.109  0.00  0.00     0.172 HD
HETATM    6  N   UNK N   1      24.084  13.901   7.075  0.00  0.00    -0.237 N 
HETATM    7  O   UNK N   1      22.442  15.425   6.629  0.00  0.00    -0.245 OA
HETATM    8  N   UNK N   1      25.402  13.946   7.016  0.00  0.00    -0.282 N 
ATOM      9  HN  UNK N   1      26.049  13.187   7.234  1.00  0.00     0.188 HD
BRANCH   6  10
HETATM   10  C   UNK N   1      23.330  12.704   7.447  0.00  0.00     0.192 C 
BRANCH  10  11
HETATM   11  C   UNK N   1      23.266  12.509   8.928  0.00  0.00    -0.038 A 
HETATM   12  C   UNK N   1      22.034  12.457   9.594  0.00  0.00     0.009 A 
HETATM   13  C   UNK N   1      21.997  12.239  10.976  0.00  0.00     0.007 A 
HETATM   14  C   UNK N   1      23.189  12.072  11.690  0.00  0.00    -0.062 A 
HETATM   15  C   UNK N   1      23.152  11.833  13.156  0.00  0.00     0.048 C 
HETATM   16  C   UNK N   1      24.417  12.131  11.025  0.00  0.00     0.007 A 
HETATM   17  C   UNK N   1      24.455  12.348   9.646  0.00  0.00     0.009 A 
ENDBRANCH  10  11
ENDBRANCH   6  10
ENDBRANCH   1   2
BRANCH   1  18
HETATM   18  C   UNK N   1      27.231  16.996   5.639  0.00  0.00     0.012 C 
BRANCH  18  19
HETATM   19  C   UNK N   1      27.796  18.179   6.430  0.00  0.00     0.039 C 
BRANCH  19  20
HETATM   20  C   UNK N   1      29.126  17.946   7.076  0.00  0.00    -0.058 A 
HETATM   21  C   UNK N   1      30.157  17.435   6.285  0.00  0.00     0.010 A 
HETATM   22  C   UNK N   1      31.443  17.303   6.803  0.00  0.00     0.037 A 
HETATM   23  C   UNK N   1      31.714  17.688   8.119  0.00  0.00     0.070 A 
HETATM   24  C   UNK N   1      30.674  18.146   8.937  0.00  0.00     0.037 A 
HETATM   25  C   UNK N   1      29.383  18.280   8.417  0.00  0.00     0.010 A 
BRANCH  23  26
HETATM   26  O   UNK N   1      32.994  17.666   8.559  0.00  0.00    -0.330 OA
BRANCH  26  27
HETATM   27  C   UNK N   1      33.686  16.489   8.835  0.00  0.00     0.145 C 
HETATM   28  C   UNK N   1      34.485  16.027   7.620  0.00  0.00     0.058 C 
HETATM   29  C   UNK N   1      32.656  15.406   9.117  0.00  0.00     0.058 C 
BRANCH  27  30
HETATM   30  C   UNK N   1      34.628  16.650  10.016  0.00  0.00     0.175 C 
HETATM   31  O   UNK N   1      35.476  17.531  10.020  0.00  0.00    -0.648 OA
BRANCH  30  32
HETATM   32  O   UNK N   1      34.519  15.843  11.088  0.00  0.00    -0.774 OA
HETATM   33  H   UNK N   1      34.327  14.927  11.044  0.00  0.00     0.167 HD
ENDBRANCH  30  32
ENDBRANCH  27  30
ENDBRANCH  26  27
ENDBRANCH  23  26
ENDBRANCH  19  20
ENDBRANCH  18  19
ENDBRANCH   1  18
TORSDOF 10
ENDMDL
MODEL 5
REMARK VINA RESULT:      -6.4     11.438     13.832
REMARK  10 active torsions:
REMARK  status: ('A' for Active; 'I' for Inactive)
REMARK    1  A    between atoms: C_5  and  C_8 
REMARK    2  A    between atoms: C_8  and  N_9 
REMARK    3  A    between atoms: C_13  and  C_16 
REMARK    4  A    between atoms: C_16  and  C_17 
REMARK    5  A    between atoms: C_17  and  C_18 
REMARK    6  A    between atoms: C_18  and  C_19 
REMARK    7  A    between atoms: C_22  and  O_25 
REMARK    8  A    between atoms: O_25  and  C_26 
REMARK    9  A    between atoms: C_26  and  C_29 
REMARK   10  A    between atoms: C_29  and  O_31 
ROOT
HETATM    1  C   UNK N   1      27.389  19.086   4.036  0.00  0.00     0.078 C 
ENDROOT
BRANCH   1   2
HETATM    2  C   UNK N   1      25.924  19.346   3.898  0.00  0.00     0.100 A 
HETATM    3  N   UNK N   1      25.409  20.345   3.145  0.00  0.00    -0.296 N 
HETATM    4  C   UNK N   1      24.078  20.201   3.331  0.00  0.00     0.342 A 
HETATM    5  H   UNK N   1      25.886  21.011   2.598  0.00  0.00     0.172 HD
HETATM    6  N   UNK N   1      23.806  19.166   4.165  0.00  0.00    -0.237 N 
HETATM    7  O   UNK N   1      23.240  20.915   2.810  0.00  0.00    -0.245 OA
HETATM    8  N   UNK N   1      24.959  18.627   4.516  0.00  0.00    -0.282 N 
ATOM      9  HN  UNK N   1      25.097  17.826   5.133  1.00  0.00     0.188 HD
BRANCH   6  10
HETATM   10  C   UNK N   1      22.507  18.655   4.603  0.00  0.00     0.192 C 
BRANCH  10  11
HETATM   11  C   UNK N   1      21.869  17.771   3.580  0.00  0.00    -0.038 A 
HETATM   12  C   UNK N   1      22.259  16.432   3.441  0.00  0.00     0.009 A 
HETATM   13  C   UNK N   1      21.624  15.615   2.500  0.00  0.00     0.007 A 
HETATM   14  C   UNK N   1      20.599  16.134   1.700  0.00  0.00    -0.062 A 
HETATM   15  C   UNK N   1      19.918  15.265   0.706  0.00  0.00     0.048 C 
HETATM   16  C   UNK N   1      20.215  17.471   1.836  0.00  0.00     0.007 A 
HETATM   17  C   UNK N   1      20.848  18.287   2.775  0.00  0.00     0.009 A 
ENDBRANCH  10  11
ENDBRANCH   6  10
ENDBRANCH   1   2
BRANCH   1  18
HETATM   18  C   UNK N   1      27.874  19.007   5.489  0.00  0.00     0.012 C 
BRANCH  18  19
HETATM   19  C   UNK N   1      28.136  17.588   6.002  0.00  0.00     0.039 C 
BRANCH  19  20
HETATM   20  C   UNK N   1      29.452  17.383   6.686  0.00  0.00    -0.058 A 
HETATM   21  C   UNK N   1      29.729  18.157   7.815  0.00  0.00     0.010 A 
HETATM   22  C   UNK N   1      30.888  17.931   8.555  0.00  0.00     0.037 A 
HETATM   23  C   UNK N   1      31.779  16.922   8.177  0.00  0.00     0.070 A 
HETATM   24  C   UNK N   1      31.537  16.182   7.014  0.00  0.00     0.037 A 
HETATM   25  C   UNK N   1      30.374  16.407   6.271  0.00  0.00     0.010 A 
BRANCH  23  26
HETATM   26  O   UNK N   1      32.830  16.641   8.982  0.00  0.00    -0.330 OA
BRANCH  26  27
HETATM   27  C   UNK N   1      34.157  16.774   8.577  0.00  0.00     0.145 C 
HETATM   28  C   UNK N   1      34.591  15.579   7.732  0.00  0.00     0.058 C 
HETATM   29  C   UNK N   1      35.023  16.762   9.827  0.00  0.00     0.058 C 
BRANCH  27  30
HETATM   30  C   UNK N   1      34.381  18.049   7.783  0.00  0.00     0.175 C 
HETATM   31  O   UNK N   1      34.673  19.092   8.350  0.00  0.00    -0.648 OA
BRANCH  30  32
HETATM   32  O   UNK N   1      34.293  18.038   6.439  0.00  0.00    -0.774 OA
HETATM   33  H   UNK N   1      34.417  17.277   5.906  0.00  0.00     0.167 HD
ENDBRANCH  30  32
ENDBRANCH  27  30
ENDBRANCH  26  27
ENDBRANCH  23  26
ENDBRANCH  19  20
ENDBRANCH  18  19
ENDBRANCH   1  18
TORSDOF 10
ENDMDL
MODEL 6
REMARK VINA RESULT:      -6.4     17.986     22.167
REMARK  10 active torsions:
REMARK  status: ('A' for Active; 'I' for Inactive)
REMARK    1  A    between atoms: C_5  and  C_8 
REMARK    2  A    between atoms: C_8  and  N_9 
REMARK    3  A    between atoms: C_13  and  C_16 
REMARK    4  A    between atoms: C_16  and  C_17 
REMARK    5  A    between atoms: C_17  and  C_18 
REMARK    6  A    between atoms: C_18  and  C_19 
REMARK    7  A    between atoms: C_22  and  O_25 
REMARK    8  A    between atoms: O_25  and  C_26 
REMARK    9  A    between atoms: C_26  and  C_29 
REMARK   10  A    between atoms: C_29  and  O_31 
ROOT
HETATM    1  C   UNK N   1      36.623  14.629  10.742  0.00  0.00     0.078 C 
ENDROOT
BRANCH   1   2
HETATM    2  C   UNK N   1      36.499  13.561  11.781  0.00  0.00     0.100 A 
HETATM    3  N   UNK N   1      37.550  12.851  12.252  0.00  0.00    -0.296 N 
HETATM    4  C   UNK N   1      36.968  12.015  13.141  0.00  0.00     0.342 A 
HETATM    5  H   UNK N   1      38.501  12.926  12.009  0.00  0.00     0.172 HD
HETATM    6  N   UNK N   1      35.625  12.209  13.194  0.00  0.00    -0.237 N 
HETATM    7  O   UNK N   1      37.580  11.198  13.804  0.00  0.00    -0.245 OA
HETATM    8  N   UNK N   1      35.332  13.179  12.347  0.00  0.00    -0.282 N 
ATOM      9  HN  UNK N   1      34.407  13.565  12.158  1.00  0.00     0.188 HD
BRANCH   6  10
HETATM   10  C   UNK N   1      34.633  11.541  14.036  0.00  0.00     0.192 C 
BRANCH  10  11
HETATM   11  C   UNK N   1      34.844  11.813  15.491  0.00  0.00    -0.038 A 
HETATM   12  C   UNK N   1      34.793  13.121  15.993  0.00  0.00     0.009 A 
HETATM   13  C   UNK N   1      34.960  13.348  17.364  0.00  0.00     0.007 A 
HETATM   14  C   UNK N   1      35.177  12.270  18.231  0.00  0.00    -0.062 A 
HETATM   15  C   UNK N   1      35.347  12.509  19.687  0.00  0.00     0.048 C 
HETATM   16  C   UNK N   1      35.233  10.968  17.727  0.00  0.00     0.007 A 
HETATM   17  C   UNK N   1      35.067  10.740  16.360  0.00  0.00     0.009 A 
ENDBRANCH  10  11
ENDBRANCH   6  10
ENDBRANCH   1   2
BRANCH   1  18
HETATM   18  C   UNK N   1      35.330  15.418  10.501  0.00  0.00     0.012 C 
BRANCH  18  19
HETATM   19  C   UNK N   1      35.007  15.689   9.030  0.00  0.00     0.039 C 
BRANCH  19  20
HETATM   20  C   UNK N   1      33.628  16.204   8.757  0.00  0.00    -0.058 A 
HETATM   21  C   UNK N   1      33.460  17.584   8.628  0.00  0.00     0.010 A 
HETATM   22  C   UNK N   1      32.222  18.111   8.265  0.00  0.00     0.037 A 
HETATM   23  C   UNK N   1      31.140  17.260   8.018  0.00  0.00     0.070 A 
HETATM   24  C   UNK N   1      31.286  15.880   8.203  0.00  0.00     0.037 A 
HETATM   25  C   UNK N   1      32.528  15.351   8.566  0.00  0.00     0.010 A 
BRANCH  23  26
HETATM   26  O   UNK N   1      29.986  17.787   7.547  0.00  0.00    -0.330 OA
BRANCH  26  27
HETATM   27  C   UNK N   1      28.969  18.258   8.375  0.00  0.00     0.145 C 
HETATM   28  C   UNK N   1      28.244  19.438   7.731  0.00  0.00     0.058 C 
HETATM   29  C   UNK N   1      29.617  18.786   9.645  0.00  0.00     0.058 C 
BRANCH  27  30
HETATM   30  C   UNK N   1      27.957  17.174   8.701  0.00  0.00     0.175 C 
HETATM   31  O   UNK N   1      27.808  16.787   9.851  0.00  0.00    -0.648 OA
BRANCH  30  32
HETATM   32  O   UNK N   1      27.187  16.647   7.729  0.00  0.00    -0.774 OA
HETATM   33  H   UNK N   1      26.841  15.776   7.742  0.00  0.00     0.167 HD
ENDBRANCH  30  32
ENDBRANCH  27  30
ENDBRANCH  26  27
ENDBRANCH  23  26
ENDBRANCH  19  20
ENDBRANCH  18  19
ENDBRANCH   1  18
TORSDOF 10
ENDMDL
MODEL 7
REMARK VINA RESULT:      -6.4      3.807      7.778
REMARK  10 active torsions:
REMARK  status: ('A' for Active; 'I' for Inactive)
REMARK    1  A    between atoms: C_5  and  C_8 
REMARK    2  A    between atoms: C_8  and  N_9 
REMARK    3  A    between atoms: C_13  and  C_16 
REMARK    4  A    between atoms: C_16  and  C_17 
REMARK    5  A    between atoms: C_17  and  C_18 
REMARK    6  A    between atoms: C_18  and  C_19 
REMARK    7  A    between atoms: C_22  and  O_25 
REMARK    8  A    between atoms: O_25  and  C_26 
REMARK    9  A    between atoms: C_26  and  C_29 
REMARK   10  A    between atoms: C_29  and  O_31 
ROOT
HETATM    1  C   UNK N   1      29.116  19.294  -7.761  0.00  0.00     0.078 C 
ENDROOT
BRANCH   1   2
HETATM    2  C   UNK N   1      30.428  19.707  -7.176  0.00  0.00     0.100 A 
HETATM    3  N   UNK N   1      31.601  19.640  -7.848  0.00  0.00    -0.296 N 
HETATM    4  C   UNK N   1      32.491  20.095  -6.937  0.00  0.00     0.342 A 
HETATM    5  H   UNK N   1      31.764  19.336  -8.770  0.00  0.00     0.172 HD
HETATM    6  N   UNK N   1      31.880  20.413  -5.767  0.00  0.00    -0.237 N 
HETATM    7  O   UNK N   1      33.685  20.201  -7.151  0.00  0.00    -0.245 OA
HETATM    8  N   UNK N   1      30.590  20.176  -5.918  0.00  0.00    -0.282 N 
ATOM      9  HN  UNK N   1      29.857  20.318  -5.222  1.00  0.00     0.188 HD
BRANCH   6  10
HETATM   10  C   UNK N   1      32.465  20.961  -4.544  0.00  0.00     0.192 C 
BRANCH  10  11
HETATM   11  C   UNK N   1      31.998  22.354  -4.264  0.00  0.00    -0.038 A 
HETATM   12  C   UNK N   1      31.201  22.635  -3.147  0.00  0.00     0.009 A 
HETATM   13  C   UNK N   1      30.804  23.951  -2.886  0.00  0.00     0.007 A 
HETATM   14  C   UNK N   1      31.205  24.985  -3.741  0.00  0.00    -0.062 A 
HETATM   15  C   UNK N   1      30.791  26.384  -3.462  0.00  0.00     0.048 C 
HETATM   16  C   UNK N   1      31.995  24.702  -4.858  0.00  0.00     0.007 A 
HETATM   17  C   UNK N   1      32.391  23.389  -5.119  0.00  0.00     0.009 A 
ENDBRANCH  10  11
ENDBRANCH   6  10
ENDBRANCH   1   2
BRANCH   1  18
HETATM   18  C   UNK N   1      28.239  20.467  -8.215  0.00  0.00     0.012 C 
BRANCH  18  19
HETATM   19  C   UNK N   1      28.791  21.853  -7.872  0.00  0.00     0.039 C 
BRANCH  19  20
HETATM   20  C   UNK N   1      27.969  22.654  -6.911  0.00  0.00    -0.058 A 
HETATM   21  C   UNK N   1      28.614  23.206  -5.802  0.00  0.00     0.010 A 
HETATM   22  C   UNK N   1      27.924  24.051  -4.936  0.00  0.00     0.037 A 
HETATM   23  C   UNK N   1      26.582  24.360  -5.175  0.00  0.00     0.070 A 
HETATM   24  C   UNK N   1      25.913  23.765  -6.251  0.00  0.00     0.037 A 
HETATM   25  C   UNK N   1      26.605  22.917  -7.122  0.00  0.00     0.010 A 
BRANCH  23  26
HETATM   26  O   UNK N   1      25.971  25.279  -4.391  0.00  0.00    -0.330 OA
BRANCH  26  27
HETATM   27  C   UNK N   1      25.966  26.643  -4.678  0.00  0.00     0.145 C 
HETATM   28  C   UNK N   1      24.818  26.999  -5.619  0.00  0.00     0.058 C 
HETATM   29  C   UNK N   1      27.254  26.962  -5.421  0.00  0.00     0.058 C 
BRANCH  27  30
HETATM   30  C   UNK N   1      25.852  27.485  -3.419  0.00  0.00     0.175 C 
HETATM   31  O   UNK N   1      26.007  26.981  -2.316  0.00  0.00    -0.648 OA
BRANCH  30  32
HETATM   32  O   UNK N   1      25.612  28.808  -3.505  0.00  0.00    -0.774 OA
HETATM   33  H   UNK N   1      25.536  29.281  -4.310  0.00  0.00     0.167 HD
ENDBRANCH  30  32
ENDBRANCH  27  30
ENDBRANCH  26  27
ENDBRANCH  23  26
ENDBRANCH  19  20
ENDBRANCH  18  19
ENDBRANCH   1  18
TORSDOF 10
ENDMDL
MODEL 8
REMARK VINA RESULT:      -6.3     17.425     21.617
REMARK  10 active torsions:
REMARK  status: ('A' for Active; 'I' for Inactive)
REMARK    1  A    between atoms: C_5  and  C_8 
REMARK    2  A    between atoms: C_8  and  N_9 
REMARK    3  A    between atoms: C_13  and  C_16 
REMARK    4  A    between atoms: C_16  and  C_17 
REMARK    5  A    between atoms: C_17  and  C_18 
REMARK    6  A    between atoms: C_18  and  C_19 
REMARK    7  A    between atoms: C_22  and  O_25 
REMARK    8  A    between atoms: O_25  and  C_26 
REMARK    9  A    between atoms: C_26  and  C_29 
REMARK   10  A    between atoms: C_29  and  O_31 
ROOT
HETATM    1  C   UNK N   1      36.227  15.535  11.386  0.00  0.00     0.078 C 
ENDROOT
BRANCH   1   2
HETATM    2  C   UNK N   1      36.193  14.245  12.141  0.00  0.00     0.100 A 
HETATM    3  N   UNK N   1      37.265  13.431  12.279  0.00  0.00    -0.296 N 
HETATM    4  C   UNK N   1      36.768  12.407  13.009  0.00  0.00     0.342 A 
HETATM    5  H   UNK N   1      38.179  13.555  11.935  0.00  0.00     0.172 HD
HETATM    6  N   UNK N   1      35.453  12.594  13.289  0.00  0.00    -0.237 N 
HETATM    7  O   UNK N   1      37.425  11.446  13.364  0.00  0.00    -0.245 OA
HETATM    8  N   UNK N   1      35.094  13.746  12.751  0.00  0.00    -0.282 N 
ATOM      9  HN  UNK N   1      34.169  14.175  12.788  1.00  0.00     0.188 HD
BRANCH   6  10
HETATM   10  C   UNK N   1      34.549  11.749  14.069  0.00  0.00     0.192 C 
BRANCH  10  11
HETATM   11  C   UNK N   1      34.819  11.832  15.538  0.00  0.00    -0.038 A 
HETATM   12  C   UNK N   1      34.790  13.063  16.207  0.00  0.00     0.009 A 
HETATM   13  C   UNK N   1      35.012  13.112  17.587  0.00  0.00     0.007 A 
HETATM   14  C   UNK N   1      35.261  11.932  18.299  0.00  0.00    -0.062 A 
HETATM   15  C   UNK N   1      35.490  11.981  19.766  0.00  0.00     0.048 C 
HETATM   16  C   UNK N   1      35.296  10.706  17.628  0.00  0.00     0.007 A 
HETATM   17  C   UNK N   1      35.075  10.656  16.251  0.00  0.00     0.009 A 
ENDBRANCH  10  11
ENDBRANCH   6  10
ENDBRANCH   1   2
BRANCH   1  18
HETATM   18  C   UNK N   1      34.878  15.937  10.779  0.00  0.00     0.012 C 
BRANCH  18  19
HETATM   19  C   UNK N   1      34.945  17.080   9.763  0.00  0.00     0.039 C 
BRANCH  19  20
HETATM   20  C   UNK N   1      34.066  16.928   8.561  0.00  0.00    -0.058 A 
HETATM   21  C   UNK N   1      32.970  16.069   8.659  0.00  0.00     0.010 A 
HETATM   22  C   UNK N   1      32.056  15.972   7.611  0.00  0.00     0.037 A 
HETATM   23  C   UNK N   1      32.225  16.742   6.457  0.00  0.00     0.070 A 
HETATM   24  C   UNK N   1      33.353  17.562   6.328  0.00  0.00     0.037 A 
HETATM   25  C   UNK N   1      34.270  17.659   7.379  0.00  0.00     0.010 A 
BRANCH  23  26
HETATM   26  O   UNK N   1      31.259  16.724   5.509  0.00  0.00    -0.330 OA
BRANCH  26  27
HETATM   27  C   UNK N   1      31.253  15.826   4.444  0.00  0.00     0.145 C 
HETATM   28  C   UNK N   1      30.048  14.893   4.523  0.00  0.00     0.058 C 
HETATM   29  C   UNK N   1      32.491  14.951   4.572  0.00  0.00     0.058 C 
BRANCH  27  30
HETATM   30  C   UNK N   1      31.239  16.539   3.103  0.00  0.00     0.175 C 
HETATM   31  O   UNK N   1      32.285  16.850   2.552  0.00  0.00    -0.648 OA
BRANCH  30  32
HETATM   32  O   UNK N   1      30.071  16.809   2.488  0.00  0.00    -0.774 OA
HETATM   33  H   UNK N   1      29.958  16.842   1.558  0.00  0.00     0.167 HD
ENDBRANCH  30  32
ENDBRANCH  27  30
ENDBRANCH  26  27
ENDBRANCH  23  26
ENDBRANCH  19  20
ENDBRANCH  18  19
ENDBRANCH   1  18
TORSDOF 10
ENDMDL
MODEL 9
REMARK VINA RESULT:      -6.2      2.942      5.570
REMARK  10 active torsions:
REMARK  status: ('A' for Active; 'I' for Inactive)
REMARK    1  A    between atoms: C_5  and  C_8 
REMARK    2  A    between atoms: C_8  and  N_9 
REMARK    3  A    between atoms: C_13  and  C_16 
REMARK    4  A    between atoms: C_16  and  C_17 
REMARK    5  A    between atoms: C_17  and  C_18 
REMARK    6  A    between atoms: C_18  and  C_19 
REMARK    7  A    between atoms: C_22  and  O_25 
REMARK    8  A    between atoms: O_25  and  C_26 
REMARK    9  A    between atoms: C_26  and  C_29 
REMARK   10  A    between atoms: C_29  and  O_31 
ROOT
HETATM    1  C   UNK N   1      29.021  27.490  -4.700  0.00  0.00     0.078 C 
ENDROOT
BRANCH   1   2
HETATM    2  C   UNK N   1      28.613  26.201  -4.063  0.00  0.00     0.100 A 
HETATM    3  N   UNK N   1      27.325  25.816  -3.913  0.00  0.00    -0.296 N 
HETATM    4  C   UNK N   1      27.442  24.621  -3.290  0.00  0.00     0.342 A 
HETATM    5  H   UNK N   1      26.506  26.288  -4.190  0.00  0.00     0.172 HD
HETATM    6  N   UNK N   1      28.744  24.308  -3.068  0.00  0.00    -0.237 N 
HETATM    7  O   UNK N   1      26.495  23.925  -2.975  0.00  0.00    -0.245 OA
HETATM    8  N   UNK N   1      29.477  25.293  -3.555  0.00  0.00    -0.282 N 
ATOM      9  HN  UNK N   1      30.495  25.357  -3.550  1.00  0.00     0.188 HD
BRANCH   6  10
HETATM   10  C   UNK N   1      29.309  23.107  -2.454  0.00  0.00     0.192 C 
BRANCH  10  11
HETATM   11  C   UNK N   1      30.142  22.315  -3.410  0.00  0.00    -0.038 A 
HETATM   12  C   UNK N   1      31.336  21.711  -2.995  0.00  0.00     0.009 A 
HETATM   13  C   UNK N   1      32.082  20.947  -3.899  0.00  0.00     0.007 A 
HETATM   14  C   UNK N   1      31.635  20.786  -5.216  0.00  0.00    -0.062 A 
HETATM   15  C   UNK N   1      32.421  19.969  -6.176  0.00  0.00     0.048 C 
HETATM   16  C   UNK N   1      30.447  21.395  -5.630  0.00  0.00     0.007 A 
HETATM   17  C   UNK N   1      29.702  22.158  -4.729  0.00  0.00     0.009 A 
ENDBRANCH  10  11
ENDBRANCH   6  10
ENDBRANCH   1   2
BRANCH   1  18
HETATM   18  C   UNK N   1      27.847  28.321  -5.234  0.00  0.00     0.012 C 
BRANCH  18  19
HETATM   19  C   UNK N   1      27.766  28.412  -6.760  0.00  0.00     0.039 C 
BRANCH  19  20
HETATM   20  C   UNK N   1      27.205  27.208  -7.449  0.00  0.00    -0.058 A 
HETATM   21  C   UNK N   1      27.966  26.619  -8.460  0.00  0.00     0.010 A 
HETATM   22  C   UNK N   1      27.545  25.433  -9.059  0.00  0.00     0.037 A 
HETATM   23  C   UNK N   1      26.359  24.819  -8.645  0.00  0.00     0.070 A 
HETATM   24  C   UNK N   1      25.561  25.434  -7.673  0.00  0.00     0.037 A 
HETATM   25  C   UNK N   1      25.984  26.623  -7.071  0.00  0.00     0.010 A 
BRANCH  23  26
HETATM   26  O   UNK N   1      26.037  23.607  -9.153  0.00  0.00    -0.330 OA
BRANCH  26  27
HETATM   27  C   UNK N   1      26.128  22.425  -8.422  0.00  0.00     0.145 C 
HETATM   28  C   UNK N   1      27.343  22.446  -7.499  0.00  0.00     0.058 C 
HETATM   29  C   UNK N   1      26.349  21.289  -9.408  0.00  0.00     0.058 C 
BRANCH  27  30
HETATM   30  C   UNK N   1      24.880  22.176  -7.591  0.00  0.00     0.175 C 
HETATM   31  O   UNK N   1      24.947  22.106  -6.373  0.00  0.00    -0.648 OA
BRANCH  30  32
HETATM   32  O   UNK N   1      23.678  22.062  -8.188  0.00  0.00    -0.774 OA
HETATM   33  H   UNK N   1      23.436  21.361  -8.761  0.00  0.00     0.167 HD
ENDBRANCH  30  32
ENDBRANCH  27  30
ENDBRANCH  26  27
ENDBRANCH  23  26
ENDBRANCH  19  20
ENDBRANCH  18  19
ENDBRANCH   1  18
TORSDOF 10
ENDMDL
