MODEL 1
REMARK VINA RESULT:      -5.6      0.000      0.000
REMARK  19 active torsions:
REMARK  status: ('A' for Active; 'I' for Inactive)
REMARK    1  A    between atoms: C_1  and  C_2 
REMARK    2  A    between atoms: C_1  and  C_10 
REMARK    3  A    between atoms: C_2  and  C_3 
REMARK    4  A    between atoms: C_3  and  C_4 
REMARK    5  A    between atoms: C_4  and  N_5 
REMARK       I    between atoms: N_5  and  C_6 
REMARK       I    between atoms: C_6  and  N_9 
REMARK    6  A    between atoms: C_10  and  C_11 
REMARK    7  A    between atoms: C_11  and  C_12 
REMARK       I    between atoms: C_12  and  N_14 
REMARK    8  A    between atoms: N_14  and  C_15 
REMARK    9  A    between atoms: C_15  and  C_16 
REMARK   10  A    between atoms: C_15  and  O_28 
REMARK       I    between atoms: C_16  and  N_18 
REMARK   11  A    between atoms: N_18  and  C_19 
REMARK   12  A    between atoms: C_19  and  C_20 
REMARK   13  A    between atoms: C_20  and  C_21 
REMARK   14  A    between atoms: C_21  and  C_22 
REMARK   15  A    between atoms: C_22  and  N_23 
REMARK   16  A    between atoms: N_23  and  C_24 
REMARK   17  A    between atoms: C_24  and  C_25 
REMARK   18  A    between atoms: C_25  and  C_26 
REMARK   19  A    between atoms: C_26  and  N_27 
ROOT
HETATM    1  C   UNK N   1      34.224  17.706   8.215  0.00  0.00     0.219 C 
HETATM    2  O   UNK N   1      34.589  18.866   8.311  0.00  0.00    -0.274 OA
HETATM    3  N   UNK N   1      33.649  17.104   9.287  0.00  0.00    -0.327 N 
HETATM    4  H   UNK N   1      33.625  17.593  10.140  0.00  0.00     0.165 HD
ENDROOT
BRANCH   3   5
HETATM    5  C   UNK N   1      33.072  15.780   9.237  0.00  0.00     0.314 C 
BRANCH   5   6
HETATM    6  C   UNK N   1      33.841  14.771  10.033  0.00  0.00     0.266 C 
HETATM    7  O   UNK N   1      33.987  14.941  11.235  0.00  0.00    -0.269 OA
HETATM    8  N   UNK N   1      34.446  13.734   9.407  0.00  0.00    -0.357 N 
HETATM    9  H   UNK N   1      34.274  13.589   8.448  0.00  0.00     0.162 HD
BRANCH   8  10
HETATM   10  C   UNK N   1      35.334  12.837  10.103  0.00  0.00     0.123 C 
BRANCH  10  11
HETATM   11  C   UNK N   1      36.770  13.209   9.773  0.00  0.00     0.021 C 
BRANCH  11  12
HETATM   12  C   UNK N   1      37.646  13.188  11.021  0.00  0.00     0.021 C 
BRANCH  12  13
HETATM   13  C   UNK N   1      36.840  12.804  12.258  0.00  0.00     0.113 C 
BRANCH  13  14
HETATM   14  N   UNK N   1      36.897  13.865  13.250  0.00  0.00    -0.421 N 
HETATM   15  H   UNK N   1      37.587  14.615  13.285  0.00  0.00     0.153 HD
BRANCH  14  16
HETATM   16  C   UNK N   1      35.802  13.669  14.179  0.00  0.00     0.115 C 
BRANCH  16  17
HETATM   17  C   UNK N   1      35.051  12.419  13.772  0.00  0.00     0.038 C 
BRANCH  17  18
HETATM   18  C   UNK N   1      34.272  11.870  14.946  0.00  0.00     0.112 C 
BRANCH  18  19
HETATM   19  N   UNK N   1      33.509  10.716  14.510  0.00  0.00    -0.430 N 
HETATM   20  H   UNK N   1      32.563  10.561  14.860  0.00  0.00     0.149 HD
HETATM   21  H   UNK N   1      33.920  10.055  13.851  0.00  0.00     0.149 HD
ENDBRANCH  18  19
ENDBRANCH  17  18
ENDBRANCH  16  17
ENDBRANCH  14  16
ENDBRANCH  13  14
ENDBRANCH  12  13
ENDBRANCH  11  12
ENDBRANCH  10  11
ENDBRANCH   8  10
ENDBRANCH   5   6
BRANCH   5  22
HETATM   22  O   UNK N   1      31.760  15.830   9.710  0.00  0.00    -0.368 OA
HETATM   23  H   UNK N   1      31.468  16.572  10.262  0.00  0.00     0.212 HD
ENDBRANCH   5  22
ENDBRANCH   3   5
BRANCH   1  24
HETATM   24  C   UNK N   1      34.368  17.000   6.899  0.00  0.00     0.103 C 
BRANCH  24  25
HETATM   25  C   UNK N   1      33.341  17.536   5.908  0.00  0.00     0.009 C 
BRANCH  25  26
HETATM   26  C   UNK N   1      32.207  16.535   5.715  0.00  0.00     0.001 C 
BRANCH  26  27
HETATM   27  C   UNK N   1      30.935  17.217   5.221  0.00  0.00     0.002 C 
BRANCH  27  28
HETATM   28  C   UNK N   1      29.690  16.550   5.773  0.00  0.00     0.020 C 
BRANCH  28  29
HETATM   29  C   UNK N   1      28.999  17.515   6.719  0.00  0.00     0.138 C 
BRANCH  29  30
HETATM   30  N   UNK N   1      29.701  17.576   7.976  0.00  0.00    -0.227 N 
HETATM   31  C   UNK N   1      29.066  18.064   9.145  0.00  0.00     0.665 C 
HETATM   32  N   UNK N   1      29.722  18.120  10.248  0.00  0.00    -0.235 N 
HETATM   33  N   UNK N   1      27.719  18.487   9.112  0.00  0.00    -0.235 N 
HETATM   34  H   UNK N   1      30.687  17.929  10.256  0.00  0.00     0.174 HD
ATOM     35  HN  UNK N   1      29.243  18.362  11.114  1.00  0.00     0.174 HD
HETATM   36  H   UNK N   1      27.281  18.816   9.930  0.00  0.00     0.174 HD
HETATM   37  H   UNK N   1      27.215  18.452   8.268  0.00  0.00     0.174 HD
HETATM   38  H   UNK N   1      30.637  17.273   8.023  0.00  0.00     0.177 HD
ENDBRANCH  29  30
ENDBRANCH  28  29
ENDBRANCH  27  28
ENDBRANCH  26  27
ENDBRANCH  25  26
ENDBRANCH  24  25
ENDBRANCH   1  24
TORSDOF 19
ENDMDL
MODEL 2
REMARK VINA RESULT:      -5.4      5.529      7.672
REMARK  19 active torsions:
REMARK  status: ('A' for Active; 'I' for Inactive)
REMARK    1  A    between atoms: C_1  and  C_2 
REMARK    2  A    between atoms: C_1  and  C_10 
REMARK    3  A    between atoms: C_2  and  C_3 
REMARK    4  A    between atoms: C_3  and  C_4 
REMARK    5  A    between atoms: C_4  and  N_5 
REMARK       I    between atoms: N_5  and  C_6 
REMARK       I    between atoms: C_6  and  N_9 
REMARK    6  A    between atoms: C_10  and  C_11 
REMARK    7  A    between atoms: C_11  and  C_12 
REMARK       I    between atoms: C_12  and  N_14 
REMARK    8  A    between atoms: N_14  and  C_15 
REMARK    9  A    between atoms: C_15  and  C_16 
REMARK   10  A    between atoms: C_15  and  O_28 
REMARK       I    between atoms: C_16  and  N_18 
REMARK   11  A    between atoms: N_18  and  C_19 
REMARK   12  A    between atoms: C_19  and  C_20 
REMARK   13  A    between atoms: C_20  and  C_21 
REMARK   14  A    between atoms: C_21  and  C_22 
REMARK   15  A    between atoms: C_22  and  N_23 
REMARK   16  A    between atoms: N_23  and  C_24 
REMARK   17  A    between atoms: C_24  and  C_25 
REMARK   18  A    between atoms: C_25  and  C_26 
REMARK   19  A    between atoms: C_26  and  N_27 
ROOT
HETATM    1  C   UNK N   1      27.167  20.423   5.786  0.00  0.00     0.219 C 
HETATM    2  O   UNK N   1      26.626  21.491   6.027  0.00  0.00    -0.274 OA
HETATM    3  N   UNK N   1      27.355  19.535   6.795  0.00  0.00    -0.327 N 
HETATM    4  H   UNK N   1      27.131  19.815   7.712  0.00  0.00     0.165 HD
ENDROOT
BRANCH   3   5
HETATM    5  C   UNK N   1      27.870  18.201   6.591  0.00  0.00     0.314 C 
BRANCH   5   6
HETATM    6  C   UNK N   1      28.795  17.752   7.681  0.00  0.00     0.266 C 
HETATM    7  O   UNK N   1      28.520  18.011   8.843  0.00  0.00    -0.269 OA
HETATM    8  N   UNK N   1      29.967  17.151   7.368  0.00  0.00    -0.357 N 
HETATM    9  H   UNK N   1      30.144  16.908   6.430  0.00  0.00     0.162 HD
BRANCH   8  10
HETATM   10  C   UNK N   1      30.962  16.855   8.369  0.00  0.00     0.123 C 
BRANCH  10  11
HETATM   11  C   UNK N   1      31.977  17.986   8.403  0.00  0.00     0.021 C 
BRANCH  11  12
HETATM   12  C   UNK N   1      33.168  17.685   7.498  0.00  0.00     0.021 C 
BRANCH  12  13
HETATM   13  C   UNK N   1      34.455  17.546   8.305  0.00  0.00     0.113 C 
BRANCH  13  14
HETATM   14  N   UNK N   1      34.152  17.298   9.705  0.00  0.00    -0.421 N 
HETATM   15  H   UNK N   1      33.691  17.947  10.343  0.00  0.00     0.153 HD
BRANCH  14  16
HETATM   16  C   UNK N   1      34.618  15.966  10.035  0.00  0.00     0.115 C 
BRANCH  16  17
HETATM   17  C   UNK N   1      35.643  16.081  11.142  0.00  0.00     0.038 C 
BRANCH  17  18
HETATM   18  C   UNK N   1      35.687  14.805  11.953  0.00  0.00     0.112 C 
BRANCH  18  19
HETATM   19  N   UNK N   1      36.476  15.029  13.149  0.00  0.00    -0.430 N 
HETATM   20  H   UNK N   1      37.450  15.324  13.076  0.00  0.00     0.149 HD
HETATM   21  H   UNK N   1      36.055  14.891  14.068  0.00  0.00     0.149 HD
ENDBRANCH  18  19
ENDBRANCH  17  18
ENDBRANCH  16  17
ENDBRANCH  14  16
ENDBRANCH  13  14
ENDBRANCH  12  13
ENDBRANCH  11  12
ENDBRANCH  10  11
ENDBRANCH   8  10
ENDBRANCH   5   6
BRANCH   5  22
HETATM   22  O   UNK N   1      26.805  17.304   6.498  0.00  0.00    -0.368 OA
HETATM   23  H   UNK N   1      25.898  17.605   6.665  0.00  0.00     0.212 HD
ENDBRANCH   5  22
ENDBRANCH   3   5
BRANCH   1  24
HETATM   24  C   UNK N   1      27.555  20.103   4.373  0.00  0.00     0.103 C 
BRANCH  24  25
HETATM   25  C   UNK N   1      26.444  20.533   3.421  0.00  0.00     0.009 C 
BRANCH  25  26
HETATM   26  C   UNK N   1      25.437  19.405   3.225  0.00  0.00     0.001 C 
BRANCH  26  27
HETATM   27  C   UNK N   1      24.003  19.898   3.384  0.00  0.00     0.002 C 
BRANCH  27  28
HETATM   28  C   UNK N   1      23.142  18.892   4.123  0.00  0.00     0.020 C 
BRANCH  28  29
HETATM   29  C   UNK N   1      21.716  19.007   3.616  0.00  0.00     0.138 C 
BRANCH  29  30
HETATM   30  N   UNK N   1      21.626  20.023   2.597  0.00  0.00    -0.227 N 
HETATM   31  C   UNK N   1      20.747  19.876   1.494  0.00  0.00     0.665 C 
HETATM   32  N   UNK N   1      20.699  20.791   0.595  0.00  0.00    -0.235 N 
HETATM   33  N   UNK N   1      19.922  18.737   1.376  0.00  0.00    -0.235 N 
HETATM   34  H   UNK N   1      21.345  21.534   0.614  0.00  0.00     0.174 HD
ATOM     35  HN  UNK N   1      19.993  20.748  -0.139  1.00  0.00     0.174 HD
HETATM   36  H   UNK N   1      19.307  18.645   0.612  0.00  0.00     0.174 HD
HETATM   37  H   UNK N   1      19.961  18.030   2.059  0.00  0.00     0.174 HD
HETATM   38  H   UNK N   1      22.183  20.832   2.668  0.00  0.00     0.177 HD
ENDBRANCH  29  30
ENDBRANCH  28  29
ENDBRANCH  27  28
ENDBRANCH  26  27
ENDBRANCH  25  26
ENDBRANCH  24  25
ENDBRANCH   1  24
TORSDOF 19
ENDMDL
MODEL 3
REMARK VINA RESULT:      -5.3      2.290      3.000
REMARK  19 active torsions:
REMARK  status: ('A' for Active; 'I' for Inactive)
REMARK    1  A    between atoms: C_1  and  C_2 
REMARK    2  A    between atoms: C_1  and  C_10 
REMARK    3  A    between atoms: C_2  and  C_3 
REMARK    4  A    between atoms: C_3  and  C_4 
REMARK    5  A    between atoms: C_4  and  N_5 
REMARK       I    between atoms: N_5  and  C_6 
REMARK       I    between atoms: C_6  and  N_9 
REMARK    6  A    between atoms: C_10  and  C_11 
REMARK    7  A    between atoms: C_11  and  C_12 
REMARK       I    between atoms: C_12  and  N_14 
REMARK    8  A    between atoms: N_14  and  C_15 
REMARK    9  A    between atoms: C_15  and  C_16 
REMARK   10  A    between atoms: C_15  and  O_28 
REMARK       I    between atoms: C_16  and  N_18 
REMARK   11  A    between atoms: N_18  and  C_19 
REMARK   12  A    between atoms: C_19  and  C_20 
REMARK   13  A    between atoms: C_20  and  C_21 
REMARK   14  A    between atoms: C_21  and  C_22 
REMARK   15  A    between atoms: C_22  and  N_23 
REMARK   16  A    between atoms: N_23  and  C_24 
REMARK   17  A    between atoms: C_24  and  C_25 
REMARK   18  A    between atoms: C_25  and  C_26 
REMARK   19  A    between atoms: C_26  and  N_27 
ROOT
HETATM    1  C   UNK N   1      34.470  17.726   8.447  0.00  0.00     0.219 C 
HETATM    2  O   UNK N   1      34.417  18.937   8.311  0.00  0.00    -0.274 OA
HETATM    3  N   UNK N   1      34.581  17.205   9.695  0.00  0.00    -0.327 N 
HETATM    4  H   UNK N   1      34.706  17.824  10.450  0.00  0.00     0.165 HD
ENDROOT
BRANCH   3   5
HETATM    5  C   UNK N   1      34.525  15.788   9.971  0.00  0.00     0.314 C 
BRANCH   5   6
HETATM    6  C   UNK N   1      35.660  15.309  10.824  0.00  0.00     0.266 C 
HETATM    7  O   UNK N   1      36.799  15.666  10.562  0.00  0.00    -0.269 OA
HETATM    8  N   UNK N   1      35.430  14.415  11.815  0.00  0.00    -0.357 N 
HETATM    9  H   UNK N   1      34.501  14.179  12.041  0.00  0.00     0.162 HD
BRANCH   8  10
HETATM   10  C   UNK N   1      36.507  13.798  12.549  0.00  0.00     0.123 C 
BRANCH  10  11
HETATM   11  C   UNK N   1      36.426  14.235  14.002  0.00  0.00     0.021 C 
BRANCH  11  12
HETATM   12  C   UNK N   1      35.480  13.339  14.796  0.00  0.00     0.021 C 
BRANCH  12  13
HETATM   13  C   UNK N   1      35.867  13.293  16.270  0.00  0.00     0.113 C 
BRANCH  13  14
HETATM   14  N   UNK N   1      34.971  12.414  17.003  0.00  0.00    -0.421 N 
HETATM   15  H   UNK N   1      34.007  12.623  17.263  0.00  0.00     0.153 HD
BRANCH  14  16
HETATM   16  C   UNK N   1      35.687  11.189  17.297  0.00  0.00     0.115 C 
BRANCH  16  17
HETATM   17  C   UNK N   1      35.075  10.565  18.533  0.00  0.00     0.038 C 
BRANCH  17  18
HETATM   18  C   UNK N   1      35.825  11.006  19.770  0.00  0.00     0.112 C 
BRANCH  18  19
HETATM   19  N   UNK N   1      34.918  11.004  20.902  0.00  0.00    -0.430 N 
HETATM   20  H   UNK N   1      34.128  11.648  20.930  0.00  0.00     0.149 HD
HETATM   21  H   UNK N   1      35.071  10.354  21.674  0.00  0.00     0.149 HD
ENDBRANCH  18  19
ENDBRANCH  17  18
ENDBRANCH  16  17
ENDBRANCH  14  16
ENDBRANCH  13  14
ENDBRANCH  12  13
ENDBRANCH  11  12
ENDBRANCH  10  11
ENDBRANCH   8  10
ENDBRANCH   5   6
BRANCH   5  22
HETATM   22  O   UNK N   1      33.320  15.488  10.605  0.00  0.00    -0.368 OA
HETATM   23  H   UNK N   1      32.657  16.181  10.748  0.00  0.00     0.212 HD
ENDBRANCH   5  22
ENDBRANCH   3   5
BRANCH   1  24
HETATM   24  C   UNK N   1      34.352  16.848   7.236  0.00  0.00     0.103 C 
BRANCH  24  25
HETATM   25  C   UNK N   1      33.542  17.559   6.157  0.00  0.00     0.009 C 
BRANCH  25  26
HETATM   26  C   UNK N   1      32.392  16.680   5.681  0.00  0.00     0.001 C 
BRANCH  26  27
HETATM   27  C   UNK N   1      31.474  17.429   4.720  0.00  0.00     0.002 C 
BRANCH  27  28
HETATM   28  C   UNK N   1      30.053  17.505   5.245  0.00  0.00     0.020 C 
BRANCH  28  29
HETATM   29  C   UNK N   1      30.003  16.843   6.610  0.00  0.00     0.138 C 
BRANCH  29  30
HETATM   30  N   UNK N   1      29.704  17.817   7.630  0.00  0.00    -0.227 N 
HETATM   31  C   UNK N   1      30.235  17.692   8.938  0.00  0.00     0.665 C 
HETATM   32  N   UNK N   1      29.940  18.567   9.830  0.00  0.00    -0.235 N 
HETATM   33  N   UNK N   1      31.089  16.618   9.271  0.00  0.00    -0.235 N 
HETATM   34  H   UNK N   1      29.264  19.257   9.637  0.00  0.00     0.174 HD
ATOM     35  HN  UNK N   1      30.405  18.548  10.737  1.00  0.00     0.174 HD
HETATM   36  H   UNK N   1      31.462  16.541  10.179  0.00  0.00     0.174 HD
HETATM   37  H   UNK N   1      31.312  15.941   8.592  0.00  0.00     0.174 HD
HETATM   38  H   UNK N   1      29.122  18.582   7.414  0.00  0.00     0.177 HD
ENDBRANCH  29  30
ENDBRANCH  28  29
ENDBRANCH  27  28
ENDBRANCH  26  27
ENDBRANCH  25  26
ENDBRANCH  24  25
ENDBRANCH   1  24
TORSDOF 19
ENDMDL
MODEL 4
REMARK VINA RESULT:      -5.2      5.083     11.319
REMARK  19 active torsions:
REMARK  status: ('A' for Active; 'I' for Inactive)
REMARK    1  A    between atoms: C_1  and  C_2 
REMARK    2  A    between atoms: C_1  and  C_10 
REMARK    3  A    between atoms: C_2  and  C_3 
REMARK    4  A    between atoms: C_3  and  C_4 
REMARK    5  A    between atoms: C_4  and  N_5 
REMARK       I    between atoms: N_5  and  C_6 
REMARK       I    between atoms: C_6  and  N_9 
REMARK    6  A    between atoms: C_10  and  C_11 
REMARK    7  A    between atoms: C_11  and  C_12 
REMARK       I    between atoms: C_12  and  N_14 
REMARK    8  A    between atoms: N_14  and  C_15 
REMARK    9  A    between atoms: C_15  and  C_16 
REMARK   10  A    between atoms: C_15  and  O_28 
REMARK       I    between atoms: C_16  and  N_18 
REMARK   11  A    between atoms: N_18  and  C_19 
REMARK   12  A    between atoms: C_19  and  C_20 
REMARK   13  A    between atoms: C_20  and  C_21 
REMARK   14  A    between atoms: C_21  and  C_22 
REMARK   15  A    between atoms: C_22  and  N_23 
REMARK   16  A    between atoms: N_23  and  C_24 
REMARK   17  A    between atoms: C_24  and  C_25 
REMARK   18  A    between atoms: C_25  and  C_26 
REMARK   19  A    between atoms: C_26  and  N_27 
ROOT
HETATM    1  C   UNK N   1      28.732  16.610   6.501  0.00  0.00     0.219 C 
HETATM    2  O   UNK N   1      28.452  15.497   6.085  0.00  0.00    -0.274 OA
HETATM    3  N   UNK N   1      27.749  17.386   7.025  0.00  0.00    -0.327 N 
HETATM    4  H   UNK N   1      26.821  17.063   6.972  0.00  0.00     0.165 HD
ENDROOT
BRANCH   3   5
HETATM    5  C   UNK N   1      27.998  18.662   7.655  0.00  0.00     0.314 C 
BRANCH   5   6
HETATM    6  C   UNK N   1      27.421  19.817   6.896  0.00  0.00     0.266 C 
HETATM    7  O   UNK N   1      26.899  20.736   7.509  0.00  0.00    -0.269 OA
HETATM    8  N   UNK N   1      27.397  19.792   5.542  0.00  0.00    -0.357 N 
HETATM    9  H   UNK N   1      27.866  19.067   5.069  0.00  0.00     0.162 HD
BRANCH   8  10
HETATM   10  C   UNK N   1      26.704  20.796   4.774  0.00  0.00     0.123 C 
BRANCH  10  11
HETATM   11  C   UNK N   1      26.815  20.451   3.298  0.00  0.00     0.021 C 
BRANCH  11  12
HETATM   12  C   UNK N   1      25.446  20.459   2.625  0.00  0.00     0.021 C 
BRANCH  12  13
HETATM   13  C   UNK N   1      24.353  20.006   3.587  0.00  0.00     0.113 C 
BRANCH  13  14
HETATM   14  N   UNK N   1      23.040  20.299   3.038  0.00  0.00    -0.421 N 
HETATM   15  H   UNK N   1      22.817  21.053   2.389  0.00  0.00     0.153 HD
BRANCH  14  16
HETATM   16  C   UNK N   1      22.104  19.332   3.576  0.00  0.00     0.115 C 
BRANCH  16  17
HETATM   17  C   UNK N   1      20.707  19.903   3.454  0.00  0.00     0.038 C 
BRANCH  17  18
HETATM   18  C   UNK N   1      20.380  20.185   2.005  0.00  0.00     0.112 C 
BRANCH  18  19
HETATM   19  N   UNK N   1      20.276  18.928   1.288  0.00  0.00    -0.430 N 
HETATM   20  H   UNK N   1      20.124  18.057   1.796  0.00  0.00     0.149 HD
HETATM   21  H   UNK N   1      20.356  18.916   0.271  0.00  0.00     0.149 HD
ENDBRANCH  18  19
ENDBRANCH  17  18
ENDBRANCH  16  17
ENDBRANCH  14  16
ENDBRANCH  13  14
ENDBRANCH  12  13
ENDBRANCH  11  12
ENDBRANCH  10  11
ENDBRANCH   8  10
ENDBRANCH   5   6
BRANCH   5  22
HETATM   22  O   UNK N   1      27.465  18.652   8.944  0.00  0.00    -0.368 OA
HETATM   23  H   UNK N   1      26.569  18.314   9.100  0.00  0.00     0.212 HD
ENDBRANCH   5  22
ENDBRANCH   3   5
BRANCH   1  24
HETATM   24  C   UNK N   1      30.162  17.063   6.473  0.00  0.00     0.103 C 
BRANCH  24  25
HETATM   25  C   UNK N   1      30.671  17.084   5.037  0.00  0.00     0.009 C 
BRANCH  25  26
HETATM   26  C   UNK N   1      32.166  17.381   5.000  0.00  0.00     0.001 C 
BRANCH  26  27
HETATM   27  C   UNK N   1      32.890  16.766   6.194  0.00  0.00     0.002 C 
BRANCH  27  28
HETATM   28  C   UNK N   1      33.829  17.757   6.853  0.00  0.00     0.020 C 
BRANCH  28  29
HETATM   29  C   UNK N   1      33.374  17.981   8.284  0.00  0.00     0.138 C 
BRANCH  29  30
HETATM   30  N   UNK N   1      33.027  16.725   8.902  0.00  0.00    -0.227 N 
HETATM   31  C   UNK N   1      33.784  16.210   9.984  0.00  0.00     0.665 C 
HETATM   32  N   UNK N   1      33.459  15.082  10.505  0.00  0.00    -0.235 N 
HETATM   33  N   UNK N   1      34.888  16.924  10.498  0.00  0.00    -0.235 N 
HETATM   34  H   UNK N   1      32.760  14.530  10.086  0.00  0.00     0.174 HD
ATOM     35  HN  UNK N   1      33.926  14.758  11.352  1.00  0.00     0.174 HD
HETATM   36  H   UNK N   1      35.403  16.565  11.256  0.00  0.00     0.174 HD
HETATM   37  H   UNK N   1      35.144  17.786  10.097  0.00  0.00     0.174 HD
HETATM   38  H   UNK N   1      32.252  16.218   8.567  0.00  0.00     0.177 HD
ENDBRANCH  29  30
ENDBRANCH  28  29
ENDBRANCH  27  28
ENDBRANCH  26  27
ENDBRANCH  25  26
ENDBRANCH  24  25
ENDBRANCH   1  24
TORSDOF 19
ENDMDL
MODEL 5
REMARK VINA RESULT:      -5.2      1.758      2.564
REMARK  19 active torsions:
REMARK  status: ('A' for Active; 'I' for Inactive)
REMARK    1  A    between atoms: C_1  and  C_2 
REMARK    2  A    between atoms: C_1  and  C_10 
REMARK    3  A    between atoms: C_2  and  C_3 
REMARK    4  A    between atoms: C_3  and  C_4 
REMARK    5  A    between atoms: C_4  and  N_5 
REMARK       I    between atoms: N_5  and  C_6 
REMARK       I    between atoms: C_6  and  N_9 
REMARK    6  A    between atoms: C_10  and  C_11 
REMARK    7  A    between atoms: C_11  and  C_12 
REMARK       I    between atoms: C_12  and  N_14 
REMARK    8  A    between atoms: N_14  and  C_15 
REMARK    9  A    between atoms: C_15  and  C_16 
REMARK   10  A    between atoms: C_15  and  O_28 
REMARK       I    between atoms: C_16  and  N_18 
REMARK   11  A    between atoms: N_18  and  C_19 
REMARK   12  A    between atoms: C_19  and  C_20 
REMARK   13  A    between atoms: C_20  and  C_21 
REMARK   14  A    between atoms: C_21  and  C_22 
REMARK   15  A    between atoms: C_22  and  N_23 
REMARK   16  A    between atoms: N_23  and  C_24 
REMARK   17  A    between atoms: C_24  and  C_25 
REMARK   18  A    between atoms: C_25  and  C_26 
REMARK   19  A    between atoms: C_26  and  N_27 
ROOT
HETATM    1  C   UNK N   1      33.424  17.021   6.329  0.00  0.00     0.219 C 
HETATM    2  O   UNK N   1      33.629  16.506   5.241  0.00  0.00    -0.274 OA
HETATM    3  N   UNK N   1      34.477  17.285   7.143  0.00  0.00    -0.327 N 
HETATM    4  H   UNK N   1      35.369  16.971   6.871  0.00  0.00     0.165 HD
ENDROOT
BRANCH   3   5
HETATM    5  C   UNK N   1      34.354  18.004   8.391  0.00  0.00     0.314 C 
BRANCH   5   6
HETATM    6  C   UNK N   1      34.613  17.147   9.592  0.00  0.00     0.266 C 
HETATM    7  O   UNK N   1      35.570  17.395  10.310  0.00  0.00    -0.269 OA
HETATM    8  N   UNK N   1      33.845  16.056   9.822  0.00  0.00    -0.357 N 
HETATM    9  H   UNK N   1      33.050  15.903   9.262  0.00  0.00     0.162 HD
BRANCH   8  10
HETATM   10  C   UNK N   1      34.159  15.110  10.865  0.00  0.00     0.123 C 
BRANCH  10  11
HETATM   11  C   UNK N   1      34.982  13.979  10.272  0.00  0.00     0.021 C 
BRANCH  11  12
HETATM   12  C   UNK N   1      35.873  13.333  11.330  0.00  0.00     0.021 C 
BRANCH  12  13
HETATM   13  C   UNK N   1      36.029  14.236  12.548  0.00  0.00     0.113 C 
BRANCH  13  14
HETATM   14  N   UNK N   1      37.042  13.706  13.446  0.00  0.00    -0.421 N 
HETATM   15  H   UNK N   1      37.960  14.114  13.621  0.00  0.00     0.153 HD
BRANCH  14  16
HETATM   16  C   UNK N   1      36.517  12.496  14.048  0.00  0.00     0.115 C 
BRANCH  16  17
HETATM   17  C   UNK N   1      37.666  11.536  14.268  0.00  0.00     0.038 C 
BRANCH  17  18
HETATM   18  C   UNK N   1      37.704  10.501  13.167  0.00  0.00     0.112 C 
BRANCH  18  19
HETATM   19  N   UNK N   1      36.384   9.917  13.020  0.00  0.00    -0.430 N 
HETATM   20  H   UNK N   1      35.782   9.791  13.834  0.00  0.00     0.149 HD
HETATM   21  H   UNK N   1      36.056   9.630  12.097  0.00  0.00     0.149 HD
ENDBRANCH  18  19
ENDBRANCH  17  18
ENDBRANCH  16  17
ENDBRANCH  14  16
ENDBRANCH  13  14
ENDBRANCH  12  13
ENDBRANCH  11  12
ENDBRANCH  10  11
ENDBRANCH   8  10
ENDBRANCH   5   6
BRANCH   5  22
HETATM   22  O   UNK N   1      35.245  19.077   8.395  0.00  0.00    -0.368 OA
HETATM   23  H   UNK N   1      35.077  19.853   7.839  0.00  0.00     0.212 HD
ENDBRANCH   5  22
ENDBRANCH   3   5
BRANCH   1  24
HETATM   24  C   UNK N   1      32.023  17.400   6.707  0.00  0.00     0.103 C 
BRANCH  24  25
HETATM   25  C   UNK N   1      31.161  16.148   6.824  0.00  0.00     0.009 C 
BRANCH  25  26
HETATM   26  C   UNK N   1      30.037  16.170   5.794  0.00  0.00     0.001 C 
BRANCH  26  27
HETATM   27  C   UNK N   1      28.694  16.500   6.435  0.00  0.00     0.002 C 
BRANCH  27  28
HETATM   28  C   UNK N   1      28.354  17.972   6.302  0.00  0.00     0.020 C 
BRANCH  28  29
HETATM   29  C   UNK N   1      28.185  18.560   7.690  0.00  0.00     0.138 C 
BRANCH  29  30
HETATM   30  N   UNK N   1      28.350  17.537   8.692  0.00  0.00    -0.227 N 
HETATM   31  C   UNK N   1      29.299  17.682   9.735  0.00  0.00     0.665 C 
HETATM   32  N   UNK N   1      29.434  16.748  10.605  0.00  0.00    -0.235 N 
HETATM   33  N   UNK N   1      30.096  18.844   9.830  0.00  0.00    -0.235 N 
HETATM   34  H   UNK N   1      28.961  15.893  10.486  0.00  0.00     0.174 HD
ATOM     35  HN  UNK N   1      30.031  16.891  11.419  1.00  0.00     0.174 HD
HETATM   36  H   UNK N   1      30.747  18.943  10.562  0.00  0.00     0.174 HD
HETATM   37  H   UNK N   1      30.000  19.560   9.161  0.00  0.00     0.174 HD
HETATM   38  H   UNK N   1      27.794  16.725   8.652  0.00  0.00     0.177 HD
ENDBRANCH  29  30
ENDBRANCH  28  29
ENDBRANCH  27  28
ENDBRANCH  26  27
ENDBRANCH  25  26
ENDBRANCH  24  25
ENDBRANCH   1  24
TORSDOF 19
ENDMDL
MODEL 6
REMARK VINA RESULT:      -5.2      3.030      8.422
REMARK  19 active torsions:
REMARK  status: ('A' for Active; 'I' for Inactive)
REMARK    1  A    between atoms: C_1  and  C_2 
REMARK    2  A    between atoms: C_1  and  C_10 
REMARK    3  A    between atoms: C_2  and  C_3 
REMARK    4  A    between atoms: C_3  and  C_4 
REMARK    5  A    between atoms: C_4  and  N_5 
REMARK       I    between atoms: N_5  and  C_6 
REMARK       I    between atoms: C_6  and  N_9 
REMARK    6  A    between atoms: C_10  and  C_11 
REMARK    7  A    between atoms: C_11  and  C_12 
REMARK       I    between atoms: C_12  and  N_14 
REMARK    8  A    between atoms: N_14  and  C_15 
REMARK    9  A    between atoms: C_15  and  C_16 
REMARK   10  A    between atoms: C_15  and  O_28 
REMARK       I    between atoms: C_16  and  N_18 
REMARK   11  A    between atoms: N_18  and  C_19 
REMARK   12  A    between atoms: C_19  and  C_20 
REMARK   13  A    between atoms: C_20  and  C_21 
REMARK   14  A    between atoms: C_21  and  C_22 
REMARK   15  A    between atoms: C_22  and  N_23 
REMARK   16  A    between atoms: N_23  and  C_24 
REMARK   17  A    between atoms: C_24  and  C_25 
REMARK   18  A    between atoms: C_25  and  C_26 
REMARK   19  A    between atoms: C_26  and  N_27 
ROOT
HETATM    1  C   UNK N   1      32.771  17.166   8.732  0.00  0.00     0.219 C 
HETATM    2  O   UNK N   1      33.577  16.369   9.184  0.00  0.00    -0.274 OA
HETATM    3  N   UNK N   1      31.509  17.185   9.231  0.00  0.00    -0.327 N 
HETATM    4  H   UNK N   1      31.254  16.493   9.883  0.00  0.00     0.165 HD
ENDROOT
BRANCH   3   5
HETATM    5  C   UNK N   1      30.521  18.169   8.853  0.00  0.00     0.314 C 
BRANCH   5   6
HETATM    6  C   UNK N   1      29.446  17.615   7.969  0.00  0.00     0.266 C 
HETATM    7  O   UNK N   1      28.283  17.662   8.339  0.00  0.00    -0.269 OA
HETATM    8  N   UNK N   1      29.776  16.986   6.816  0.00  0.00    -0.357 N 
HETATM    9  H   UNK N   1      30.713  17.004   6.513  0.00  0.00     0.162 HD
BRANCH   8  10
HETATM   10  C   UNK N   1      28.794  16.292   6.020  0.00  0.00     0.123 C 
BRANCH  10  11
HETATM   11  C   UNK N   1      29.380  16.019   4.644  0.00  0.00     0.021 C 
BRANCH  11  12
HETATM   12  C   UNK N   1      28.731  16.903   3.583  0.00  0.00     0.021 C 
BRANCH  12  13
HETATM   13  C   UNK N   1      27.743  17.883   4.208  0.00  0.00     0.113 C 
BRANCH  13  14
HETATM   14  N   UNK N   1      28.252  19.242   4.120  0.00  0.00    -0.421 N 
HETATM   15  H   UNK N   1      29.226  19.525   4.231  0.00  0.00     0.153 HD
BRANCH  14  16
HETATM   16  C   UNK N   1      27.133  20.122   3.848  0.00  0.00     0.115 C 
BRANCH  16  17
HETATM   17  C   UNK N   1      26.125  19.971   4.967  0.00  0.00     0.038 C 
BRANCH  17  18
HETATM   18  C   UNK N   1      26.449  20.922   6.098  0.00  0.00     0.112 C 
BRANCH  18  19
HETATM   19  N   UNK N   1      26.912  20.159   7.241  0.00  0.00    -0.430 N 
HETATM   20  H   UNK N   1      27.572  20.569   7.901  0.00  0.00     0.149 HD
HETATM   21  H   UNK N   1      26.576  19.207   7.386  0.00  0.00     0.149 HD
ENDBRANCH  18  19
ENDBRANCH  17  18
ENDBRANCH  16  17
ENDBRANCH  14  16
ENDBRANCH  13  14
ENDBRANCH  12  13
ENDBRANCH  11  12
ENDBRANCH  10  11
ENDBRANCH   8  10
ENDBRANCH   5   6
BRANCH   5  22
HETATM   22  O   UNK N   1      29.938  18.703  10.002  0.00  0.00    -0.368 OA
HETATM   23  H   UNK N   1      28.976  18.672  10.120  0.00  0.00     0.212 HD
ENDBRANCH   5  22
ENDBRANCH   3   5
BRANCH   1  24
HETATM   24  C   UNK N   1      33.216  18.138   7.679  0.00  0.00     0.103 C 
BRANCH  24  25
HETATM   25  C   UNK N   1      33.979  17.403   6.584  0.00  0.00     0.009 C 
BRANCH  25  26
HETATM   26  C   UNK N   1      33.027  16.923   5.494  0.00  0.00     0.001 C 
BRANCH  26  27
HETATM   27  C   UNK N   1      33.208  15.437   5.205  0.00  0.00     0.002 C 
BRANCH  27  28
HETATM   28  C   UNK N   1      32.444  14.575   6.192  0.00  0.00     0.020 C 
BRANCH  28  29
HETATM   29  C   UNK N   1      33.349  13.448   6.655  0.00  0.00     0.138 C 
BRANCH  29  30
HETATM   30  N   UNK N   1      33.926  13.762   7.938  0.00  0.00    -0.227 N 
HETATM   31  C   UNK N   1      33.516  13.080   9.111  0.00  0.00     0.665 C 
HETATM   32  N   UNK N   1      34.037  13.392  10.242  0.00  0.00    -0.235 N 
HETATM   33  N   UNK N   1      32.543  12.058   9.049  0.00  0.00    -0.235 N 
HETATM   34  H   UNK N   1      34.635  14.172  10.310  0.00  0.00     0.174 HD
ATOM     35  HN  UNK N   1      33.832  12.833  11.070  1.00  0.00     0.174 HD
HETATM   36  H   UNK N   1      32.270  11.582   9.866  0.00  0.00     0.174 HD
HETATM   37  H   UNK N   1      32.136  11.821   8.185  0.00  0.00     0.174 HD
HETATM   38  H   UNK N   1      34.616  14.463   8.001  0.00  0.00     0.177 HD
ENDBRANCH  29  30
ENDBRANCH  28  29
ENDBRANCH  27  28
ENDBRANCH  26  27
ENDBRANCH  25  26
ENDBRANCH  24  25
ENDBRANCH   1  24
TORSDOF 19
ENDMDL
MODEL 7
REMARK VINA RESULT:      -5.1      3.108     10.055
REMARK  19 active torsions:
REMARK  status: ('A' for Active; 'I' for Inactive)
REMARK    1  A    between atoms: C_1  and  C_2 
REMARK    2  A    between atoms: C_1  and  C_10 
REMARK    3  A    between atoms: C_2  and  C_3 
REMARK    4  A    between atoms: C_3  and  C_4 
REMARK    5  A    between atoms: C_4  and  N_5 
REMARK       I    between atoms: N_5  and  C_6 
REMARK       I    between atoms: C_6  and  N_9 
REMARK    6  A    between atoms: C_10  and  C_11 
REMARK    7  A    between atoms: C_11  and  C_12 
REMARK       I    between atoms: C_12  and  N_14 
REMARK    8  A    between atoms: N_14  and  C_15 
REMARK    9  A    between atoms: C_15  and  C_16 
REMARK   10  A    between atoms: C_15  and  O_28 
REMARK       I    between atoms: C_16  and  N_18 
REMARK   11  A    between atoms: N_18  and  C_19 
REMARK   12  A    between atoms: C_19  and  C_20 
REMARK   13  A    between atoms: C_20  and  C_21 
REMARK   14  A    between atoms: C_21  and  C_22 
REMARK   15  A    between atoms: C_22  and  N_23 
REMARK   16  A    between atoms: N_23  and  C_24 
REMARK   17  A    between atoms: C_24  and  C_25 
REMARK   18  A    between atoms: C_25  and  C_26 
REMARK   19  A    between atoms: C_26  and  N_27 
ROOT
HETATM    1  C   UNK N   1      36.529  13.802  12.268  0.00  0.00     0.219 C 
HETATM    2  O   UNK N   1      37.259  12.838  12.098  0.00  0.00    -0.274 OA
HETATM    3  N   UNK N   1      35.911  14.360  11.197  0.00  0.00    -0.327 N 
HETATM    4  H   UNK N   1      36.139  14.027  10.299  0.00  0.00     0.165 HD
ENDROOT
BRANCH   3   5
HETATM    5  C   UNK N   1      34.934  15.419  11.308  0.00  0.00     0.314 C 
BRANCH   5   6
HETATM    6  C   UNK N   1      35.080  16.468  10.249  0.00  0.00     0.266 C 
HETATM    7  O   UNK N   1      35.792  17.438  10.460  0.00  0.00    -0.269 OA
HETATM    8  N   UNK N   1      34.354  16.383   9.109  0.00  0.00    -0.357 N 
HETATM    9  H   UNK N   1      33.826  15.570   8.937  0.00  0.00     0.162 HD
BRANCH   8  10
HETATM   10  C   UNK N   1      34.332  17.449   8.139  0.00  0.00     0.123 C 
BRANCH  10  11
HETATM   11  C   UNK N   1      32.889  17.846   7.874  0.00  0.00     0.021 C 
BRANCH  11  12
HETATM   12  C   UNK N   1      32.410  17.316   6.525  0.00  0.00     0.021 C 
BRANCH  12  13
HETATM   13  C   UNK N   1      30.905  17.070   6.530  0.00  0.00     0.113 C 
BRANCH  13  14
HETATM   14  N   UNK N   1      30.336  17.428   7.819  0.00  0.00    -0.421 N 
HETATM   15  H   UNK N   1      30.763  17.259   8.730  0.00  0.00     0.153 HD
BRANCH  14  16
HETATM   16  C   UNK N   1      29.057  18.068   7.582  0.00  0.00     0.115 C 
BRANCH  16  17
HETATM   17  C   UNK N   1      28.733  17.953   6.108  0.00  0.00     0.038 C 
BRANCH  17  18
HETATM   18  C   UNK N   1      27.262  17.660   5.915  0.00  0.00     0.112 C 
BRANCH  18  19
HETATM   19  N   UNK N   1      26.850  16.651   6.872  0.00  0.00    -0.430 N 
HETATM   20  H   UNK N   1      27.532  16.002   7.264  0.00  0.00     0.149 HD
HETATM   21  H   UNK N   1      25.871  16.589   7.154  0.00  0.00     0.149 HD
ENDBRANCH  18  19
ENDBRANCH  17  18
ENDBRANCH  16  17
ENDBRANCH  14  16
ENDBRANCH  13  14
ENDBRANCH  12  13
ENDBRANCH  11  12
ENDBRANCH  10  11
ENDBRANCH   8  10
ENDBRANCH   5   6
BRANCH   5  22
HETATM   22  O   UNK N   1      33.652  14.874  11.238  0.00  0.00    -0.368 OA
HETATM   23  H   UNK N   1      32.877  15.455  11.191  0.00  0.00     0.212 HD
ENDBRANCH   5  22
ENDBRANCH   3   5
BRANCH   1  24
HETATM   24  C   UNK N   1      36.293  14.302  13.663  0.00  0.00     0.103 C 
BRANCH  24  25
HETATM   25  C   UNK N   1      35.455  13.294  14.441  0.00  0.00     0.009 C 
BRANCH  25  26
HETATM   26  C   UNK N   1      36.132  12.936  15.759  0.00  0.00     0.001 C 
BRANCH  26  27
HETATM   27  C   UNK N   1      35.117  12.772  16.885  0.00  0.00     0.002 C 
BRANCH  27  28
HETATM   28  C   UNK N   1      35.392  13.726  18.032  0.00  0.00     0.020 C 
BRANCH  28  29
HETATM   29  C   UNK N   1      34.769  13.161  19.295  0.00  0.00     0.138 C 
BRANCH  29  30
HETATM   30  N   UNK N   1      35.790  12.634  20.166  0.00  0.00    -0.227 N 
HETATM   31  C   UNK N   1      35.970  11.236  20.318  0.00  0.00     0.665 C 
HETATM   32  N   UNK N   1      36.878  10.796  21.112  0.00  0.00    -0.235 N 
HETATM   33  N   UNK N   1      35.165  10.322  19.604  0.00  0.00    -0.235 N 
HETATM   34  H   UNK N   1      37.370  11.422  21.692  0.00  0.00     0.174 HD
ATOM     35  HN  UNK N   1      37.090   9.800  21.143  1.00  0.00     0.174 HD
HETATM   36  H   UNK N   1      35.302   9.352  19.708  0.00  0.00     0.174 HD
HETATM   37  H   UNK N   1      34.463  10.655  19.000  0.00  0.00     0.174 HD
HETATM   38  H   UNK N   1      36.371  13.255  20.663  0.00  0.00     0.177 HD
ENDBRANCH  29  30
ENDBRANCH  28  29
ENDBRANCH  27  28
ENDBRANCH  26  27
ENDBRANCH  25  26
ENDBRANCH  24  25
ENDBRANCH   1  24
TORSDOF 19
ENDMDL
MODEL 8
REMARK VINA RESULT:      -5.1      2.293      8.535
REMARK  19 active torsions:
REMARK  status: ('A' for Active; 'I' for Inactive)
REMARK    1  A    between atoms: C_1  and  C_2 
REMARK    2  A    between atoms: C_1  and  C_10 
REMARK    3  A    between atoms: C_2  and  C_3 
REMARK    4  A    between atoms: C_3  and  C_4 
REMARK    5  A    between atoms: C_4  and  N_5 
REMARK       I    between atoms: N_5  and  C_6 
REMARK       I    between atoms: C_6  and  N_9 
REMARK    6  A    between atoms: C_10  and  C_11 
REMARK    7  A    between atoms: C_11  and  C_12 
REMARK       I    between atoms: C_12  and  N_14 
REMARK    8  A    between atoms: N_14  and  C_15 
REMARK    9  A    between atoms: C_15  and  C_16 
REMARK   10  A    between atoms: C_15  and  O_28 
REMARK       I    between atoms: C_16  and  N_18 
REMARK   11  A    between atoms: N_18  and  C_19 
REMARK   12  A    between atoms: C_19  and  C_20 
REMARK   13  A    between atoms: C_20  and  C_21 
REMARK   14  A    between atoms: C_21  and  C_22 
REMARK   15  A    between atoms: C_22  and  N_23 
REMARK   16  A    between atoms: N_23  and  C_24 
REMARK   17  A    between atoms: C_24  and  C_25 
REMARK   18  A    between atoms: C_25  and  C_26 
REMARK   19  A    between atoms: C_26  and  N_27 
ROOT
HETATM    1  C   UNK N   1      36.889  14.417  14.781  0.00  0.00     0.219 C 
HETATM    2  O   UNK N   1      37.238  15.270  15.581  0.00  0.00    -0.274 OA
HETATM    3  N   UNK N   1      36.682  14.770  13.487  0.00  0.00    -0.327 N 
HETATM    4  H   UNK N   1      36.732  15.724  13.249  0.00  0.00     0.165 HD
ENDROOT
BRANCH   3   5
HETATM    5  C   UNK N   1      36.390  13.816  12.442  0.00  0.00     0.314 C 
BRANCH   5   6
HETATM    6  C   UNK N   1      35.291  14.261  11.528  0.00  0.00     0.266 C 
HETATM    7  O   UNK N   1      34.161  14.398  11.972  0.00  0.00    -0.269 OA
HETATM    8  N   UNK N   1      35.534  14.417  10.205  0.00  0.00    -0.357 N 
HETATM    9  H   UNK N   1      36.460  14.351   9.877  0.00  0.00     0.162 HD
BRANCH   8  10
HETATM   10  C   UNK N   1      34.475  14.679   9.262  0.00  0.00     0.123 C 
BRANCH  10  11
HETATM   11  C   UNK N   1      34.798  15.952   8.498  0.00  0.00     0.021 C 
BRANCH  11  12
HETATM   12  C   UNK N   1      34.091  17.157   9.110  0.00  0.00     0.021 C 
BRANCH  12  13
HETATM   13  C   UNK N   1      33.503  18.061   8.032  0.00  0.00     0.113 C 
BRANCH  13  14
HETATM   14  N   UNK N   1      32.242  17.523   7.551  0.00  0.00    -0.421 N 
HETATM   15  H   UNK N   1      32.031  17.259   6.588  0.00  0.00     0.153 HD
BRANCH  14  16
HETATM   16  C   UNK N   1      31.337  17.426   8.679  0.00  0.00     0.115 C 
BRANCH  16  17
HETATM   17  C   UNK N   1      29.967  17.890   8.232  0.00  0.00     0.038 C 
BRANCH  17  18
HETATM   18  C   UNK N   1      29.163  18.372   9.418  0.00  0.00     0.112 C 
BRANCH  18  19
HETATM   19  N   UNK N   1      27.784  18.565   9.009  0.00  0.00    -0.430 N 
HETATM   20  H   UNK N   1      27.546  19.278   8.320  0.00  0.00     0.149 HD
HETATM   21  H   UNK N   1      27.049  17.985   9.413  0.00  0.00     0.149 HD
ENDBRANCH  18  19
ENDBRANCH  17  18
ENDBRANCH  16  17
ENDBRANCH  14  16
ENDBRANCH  13  14
ENDBRANCH  12  13
ENDBRANCH  11  12
ENDBRANCH  10  11
ENDBRANCH   8  10
ENDBRANCH   5   6
BRANCH   5  22
HETATM   22  O   UNK N   1      37.543  13.586  11.692  0.00  0.00    -0.368 OA
HETATM   23  H   UNK N   1      38.192  12.926  11.982  0.00  0.00     0.212 HD
ENDBRANCH   5  22
ENDBRANCH   3   5
BRANCH   1  24
HETATM   24  C   UNK N   1      36.757  12.995  15.241  0.00  0.00     0.103 C 
BRANCH  24  25
HETATM   25  C   UNK N   1      35.600  12.874  16.226  0.00  0.00     0.009 C 
BRANCH  25  26
HETATM   26  C   UNK N   1      35.178  11.418  16.385  0.00  0.00     0.001 C 
BRANCH  26  27
HETATM   27  C   UNK N   1      35.136  10.696  15.042  0.00  0.00     0.002 C 
BRANCH  27  28
HETATM   28  C   UNK N   1      33.785  10.840  14.369  0.00  0.00     0.020 C 
BRANCH  28  29
HETATM   29  C   UNK N   1      33.875  10.263  12.968  0.00  0.00     0.138 C 
BRANCH  29  30
HETATM   30  N   UNK N   1      35.203  10.440  12.437  0.00  0.00    -0.227 N 
HETATM   31  C   UNK N   1      35.416  10.626  11.048  0.00  0.00     0.665 C 
HETATM   32  N   UNK N   1      36.612  10.766  10.602  0.00  0.00    -0.235 N 
HETATM   33  N   UNK N   1      34.327  10.661  10.149  0.00  0.00    -0.235 N 
HETATM   34  H   UNK N   1      37.379  10.636  11.204  0.00  0.00     0.174 HD
ATOM     35  HN  UNK N   1      36.766  11.011   9.624  1.00  0.00     0.174 HD
HETATM   36  H   UNK N   1      34.481  10.800   9.186  0.00  0.00     0.174 HD
HETATM   37  H   UNK N   1      33.410  10.547  10.485  0.00  0.00     0.174 HD
HETATM   38  H   UNK N   1      35.975  10.432  13.048  0.00  0.00     0.177 HD
ENDBRANCH  29  30
ENDBRANCH  28  29
ENDBRANCH  27  28
ENDBRANCH  26  27
ENDBRANCH  25  26
ENDBRANCH  24  25
ENDBRANCH   1  24
TORSDOF 19
ENDMDL
MODEL 9
REMARK VINA RESULT:      -5.1      5.649     12.162
REMARK  19 active torsions:
REMARK  status: ('A' for Active; 'I' for Inactive)
REMARK    1  A    between atoms: C_1  and  C_2 
REMARK    2  A    between atoms: C_1  and  C_10 
REMARK    3  A    between atoms: C_2  and  C_3 
REMARK    4  A    between atoms: C_3  and  C_4 
REMARK    5  A    between atoms: C_4  and  N_5 
REMARK       I    between atoms: N_5  and  C_6 
REMARK       I    between atoms: C_6  and  N_9 
REMARK    6  A    between atoms: C_10  and  C_11 
REMARK    7  A    between atoms: C_11  and  C_12 
REMARK       I    between atoms: C_12  and  N_14 
REMARK    8  A    between atoms: N_14  and  C_15 
REMARK    9  A    between atoms: C_15  and  C_16 
REMARK   10  A    between atoms: C_15  and  O_28 
REMARK       I    between atoms: C_16  and  N_18 
REMARK   11  A    between atoms: N_18  and  C_19 
REMARK   12  A    between atoms: C_19  and  C_20 
REMARK   13  A    between atoms: C_20  and  C_21 
REMARK   14  A    between atoms: C_21  and  C_22 
REMARK   15  A    between atoms: C_22  and  N_23 
REMARK   16  A    between atoms: N_23  and  C_24 
REMARK   17  A    between atoms: C_24  and  C_25 
REMARK   18  A    between atoms: C_25  and  C_26 
REMARK   19  A    between atoms: C_26  and  N_27 
ROOT
HETATM    1  C   UNK N   1      28.103  18.035   8.371  0.00  0.00     0.219 C 
HETATM    2  O   UNK N   1      27.789  17.729   9.510  0.00  0.00    -0.274 OA
HETATM    3  N   UNK N   1      27.450  19.053   7.756  0.00  0.00    -0.327 N 
HETATM    4  H   UNK N   1      26.679  19.459   8.215  0.00  0.00     0.165 HD
ENDROOT
BRANCH   3   5
HETATM    5  C   UNK N   1      27.829  19.572   6.462  0.00  0.00     0.314 C 
BRANCH   5   6
HETATM    6  C   UNK N   1      26.965  19.066   5.348  0.00  0.00     0.266 C 
HETATM    7  O   UNK N   1      27.488  18.567   4.363  0.00  0.00    -0.269 OA
HETATM    8  N   UNK N   1      25.624  19.247   5.397  0.00  0.00    -0.357 N 
HETATM    9  H   UNK N   1      25.219  19.605   6.220  0.00  0.00     0.162 HD
BRANCH   8  10
HETATM   10  C   UNK N   1      24.772  18.931   4.278  0.00  0.00     0.123 C 
BRANCH  10  11
HETATM   11  C   UNK N   1      23.449  18.396   4.801  0.00  0.00     0.021 C 
BRANCH  11  12
HETATM   12  C   UNK N   1      22.977  17.197   3.985  0.00  0.00     0.021 C 
BRANCH  12  13
HETATM   13  C   UNK N   1      21.460  17.192   3.833  0.00  0.00     0.113 C 
BRANCH  13  14
HETATM   14  N   UNK N   1      20.901  18.456   4.285  0.00  0.00    -0.421 N 
HETATM   15  H   UNK N   1      21.068  18.895   5.191  0.00  0.00     0.153 HD
BRANCH  14  16
HETATM   16  C   UNK N   1      20.066  18.982   3.223  0.00  0.00     0.115 C 
BRANCH  16  17
HETATM   17  C   UNK N   1      20.674  20.281   2.739  0.00  0.00     0.038 C 
BRANCH  17  18
HETATM   18  C   UNK N   1      21.064  20.167   1.282  0.00  0.00     0.112 C 
BRANCH  18  19
HETATM   19  N   UNK N   1      20.339  21.164   0.518  0.00  0.00    -0.430 N 
HETATM   20  H   UNK N   1      19.439  21.512   0.848  0.00  0.00     0.149 HD
HETATM   21  H   UNK N   1      20.731  21.519  -0.354  0.00  0.00     0.149 HD
ENDBRANCH  18  19
ENDBRANCH  17  18
ENDBRANCH  16  17
ENDBRANCH  14  16
ENDBRANCH  13  14
ENDBRANCH  12  13
ENDBRANCH  11  12
ENDBRANCH  10  11
ENDBRANCH   8  10
ENDBRANCH   5   6
BRANCH   5  22
HETATM   22  O   UNK N   1      27.771  20.965   6.488  0.00  0.00    -0.368 OA
HETATM   23  H   UNK N   1      28.012  21.478   5.701  0.00  0.00     0.212 HD
ENDBRANCH   5  22
ENDBRANCH   3   5
BRANCH   1  24
HETATM   24  C   UNK N   1      29.239  17.314   7.707  0.00  0.00     0.103 C 
BRANCH  24  25
HETATM   25  C   UNK N   1      30.526  17.542   8.491  0.00  0.00     0.009 C 
BRANCH  25  26
HETATM   26  C   UNK N   1      31.736  17.492   7.565  0.00  0.00     0.001 C 
BRANCH  26  27
HETATM   27  C   UNK N   1      33.029  17.797   8.314  0.00  0.00     0.002 C 
BRANCH  27  28
HETATM   28  C   UNK N   1      33.737  16.530   8.753  0.00  0.00     0.020 C 
BRANCH  28  29
HETATM   29  C   UNK N   1      34.852  16.903   9.714  0.00  0.00     0.138 C 
BRANCH  29  30
HETATM   30  N   UNK N   1      34.723  16.163  10.944  0.00  0.00    -0.227 N 
HETATM   31  C   UNK N   1      35.808  15.413  11.462  0.00  0.00     0.665 C 
HETATM   32  N   UNK N   1      35.659  14.751  12.553  0.00  0.00    -0.235 N 
HETATM   33  N   UNK N   1      37.052  15.388  10.796  0.00  0.00    -0.235 N 
HETATM   34  H   UNK N   1      34.768  14.677  12.965  0.00  0.00     0.174 HD
ATOM     35  HN  UNK N   1      36.463  14.302  12.991  1.00  0.00     0.174 HD
HETATM   36  H   UNK N   1      37.805  14.872  11.166  0.00  0.00     0.174 HD
HETATM   37  H   UNK N   1      37.169  15.888   9.956  0.00  0.00     0.174 HD
HETATM   38  H   UNK N   1      33.867  16.178  11.432  0.00  0.00     0.177 HD
ENDBRANCH  29  30
ENDBRANCH  28  29
ENDBRANCH  27  28
ENDBRANCH  26  27
ENDBRANCH  25  26
ENDBRANCH  24  25
ENDBRANCH   1  24
TORSDOF 19
ENDMDL
