MODEL 1
REMARK VINA RESULT:      -6.4      0.000      0.000
REMARK  14 active torsions:
REMARK  status: ('A' for Active; 'I' for Inactive)
REMARK    1  A    between atoms: C_2  and  C_3 
REMARK    2  A    between atoms: C_3  and  C_4 
REMARK    3  A    between atoms: C_4  and  C_5 
REMARK    4  A    between atoms: C_5  and  C_6 
REMARK    5  A    between atoms: C_6  and  C_7 
REMARK    6  A    between atoms: C_6  and  O_33 
REMARK    7  A    between atoms: C_10  and  N_13 
REMARK    8  A    between atoms: C_14  and  C_19 
REMARK    9  A    between atoms: C_19  and  O_20 
REMARK   10  A    between atoms: O_20  and  C_21 
REMARK   11  A    between atoms: C_21  and  C_22 
REMARK   12  A    between atoms: C_25  and  C_27 
REMARK   13  A    between atoms: C_27  and  O_29 
REMARK   14  A    between atoms: O_29  and  C_30 
ROOT
HETATM    1  N   UNK N   1      25.794  19.666   3.959  0.00  0.00    -0.311 N 
HETATM    2  C   UNK N   1      24.765  18.987   4.732  0.00  0.00     0.117 A 
HETATM    3  C   UNK N   1      23.458  19.279   3.991  0.00  0.00     0.037 A 
HETATM    4  C   UNK N   1      23.808  20.174   2.788  0.00  0.00     0.105 A 
HETATM    5  C   UNK N   1      25.259  20.366   2.954  0.00  0.00     0.224 A 
HETATM    6  O   UNK N   1      25.909  21.171   2.291  0.00  0.00    -0.273 OA
ENDROOT
BRANCH   1   7
HETATM    7  C   UNK N   1      27.028  19.948   4.574  0.00  0.00     0.037 C 
HETATM    8  C   UNK N   1      27.947  18.894   4.622  0.00  0.00     0.030 C 
HETATM    9  C   UNK N   1      28.560  18.541   5.821  0.00  0.00     0.012 C 
HETATM   10  C   UNK N   1      28.271  19.262   6.982  0.00  0.00    -0.029 C 
HETATM   11  C   UNK N   1      27.522  20.434   6.895  0.00  0.00     0.012 C 
HETATM   12  C   UNK N   1      26.914  20.776   5.698  0.00  0.00     0.030 C 
BRANCH  10  13
HETATM   13  C   UNK N   1      28.522  18.662   8.337  0.00  0.00     0.151 C 
BRANCH  13  14
HETATM   14  C   UNK N   1      29.466  17.484   8.347  0.00  0.00     0.036 C 
BRANCH  14  15
HETATM   15  C   UNK N   1      30.894  17.934   8.592  0.00  0.00     0.003 C 
BRANCH  15  16
HETATM   16  C   UNK N   1      31.845  16.889   8.049  0.00  0.00    -0.000 C 
BRANCH  16  17
HETATM   17  C   UNK N   1      33.227  17.121   8.627  0.00  0.00    -0.005 C 
HETATM   18  C   UNK N   1      33.876  18.294   7.932  0.00  0.00     0.005 C 
ENDBRANCH  16  17
ENDBRANCH  15  16
ENDBRANCH  14  15
ENDBRANCH  13  14
BRANCH  13  19
HETATM   19  O   UNK N   1      27.330  18.338   8.990  0.00  0.00    -0.391 OA
HETATM   20  H   UNK N   1      27.267  18.407   9.956  0.00  0.00     0.210 HD
ENDBRANCH  13  19
ENDBRANCH  10  13
ENDBRANCH   1   7
BRANCH   2  21
HETATM   21  C   UNK N   1      24.876  17.464   4.927  0.00  0.00     0.193 C 
BRANCH  21  22
HETATM   22  O   UNK N   1      25.121  16.660   3.801  0.00  0.00    -0.384 OA
BRANCH  22  23
HETATM   23  C   UNK N   1      25.433  15.334   4.203  0.00  0.00     0.213 C 
BRANCH  23  24
HETATM   24  C   UNK N   1      26.893  15.020   4.375  0.00  0.00     0.007 A 
HETATM   25  C   UNK N   1      27.627  15.068   5.560  0.00  0.00     0.018 A 
HETATM   26  C   UNK N   1      29.014  14.814   5.350  0.00  0.00     0.026 A 
HETATM   27  C   UNK N   1      29.328  14.561   4.009  0.00  0.00     0.080 A 
HETATM   28  S   UNK N   1      27.943  14.669   3.144  0.00  0.00    -0.086 SA
BRANCH  27  29
HETATM   29  C   UNK N   1      30.663  14.367   3.454  0.00  0.00     0.300 C 
HETATM   30  O   UNK N   1      30.843  13.601   2.518  0.00  0.00    -0.259 OA
BRANCH  29  31
HETATM   31  O   UNK N   1      31.653  15.174   3.875  0.00  0.00    -0.312 OA
BRANCH  31  32
HETATM   32  C   UNK N   1      31.893  16.396   3.316  0.00  0.00     0.124 C 
HETATM   33  C   UNK N   1      33.313  16.391   2.786  0.00  0.00     0.040 C 
HETATM   34  C   UNK N   1      31.774  17.457   4.387  0.00  0.00     0.040 C 
ENDBRANCH  31  32
ENDBRANCH  29  31
ENDBRANCH  27  29
ENDBRANCH  23  24
ENDBRANCH  22  23
ENDBRANCH  21  22
ENDBRANCH   2  21
TORSDOF 14
ENDMDL
MODEL 2
REMARK VINA RESULT:      -6.4      3.988      6.272
REMARK  14 active torsions:
REMARK  status: ('A' for Active; 'I' for Inactive)
REMARK    1  A    between atoms: C_2  and  C_3 
REMARK    2  A    between atoms: C_3  and  C_4 
REMARK    3  A    between atoms: C_4  and  C_5 
REMARK    4  A    between atoms: C_5  and  C_6 
REMARK    5  A    between atoms: C_6  and  C_7 
REMARK    6  A    between atoms: C_6  and  O_33 
REMARK    7  A    between atoms: C_10  and  N_13 
REMARK    8  A    between atoms: C_14  and  C_19 
REMARK    9  A    between atoms: C_19  and  O_20 
REMARK   10  A    between atoms: O_20  and  C_21 
REMARK   11  A    between atoms: C_21  and  C_22 
REMARK   12  A    between atoms: C_25  and  C_27 
REMARK   13  A    between atoms: C_27  and  O_29 
REMARK   14  A    between atoms: O_29  and  C_30 
ROOT
HETATM    1  N   UNK N   1      24.965  19.685   3.605  0.00  0.00    -0.311 N 
HETATM    2  C   UNK N   1      24.340  18.524   4.221  0.00  0.00     0.117 A 
HETATM    3  C   UNK N   1      22.861  18.623   3.840  0.00  0.00     0.037 A 
HETATM    4  C   UNK N   1      22.691  19.908   3.008  0.00  0.00     0.105 A 
HETATM    5  C   UNK N   1      24.055  20.466   3.016  0.00  0.00     0.224 A 
HETATM    6  O   UNK N   1      24.320  21.593   2.604  0.00  0.00    -0.273 OA
ENDROOT
BRANCH   1   7
HETATM    7  C   UNK N   1      26.212  20.120   4.090  0.00  0.00     0.037 C 
HETATM    8  C   UNK N   1      27.283  19.237   3.915  0.00  0.00     0.030 C 
HETATM    9  C   UNK N   1      28.103  18.894   4.986  0.00  0.00     0.012 C 
HETATM   10  C   UNK N   1      27.868  19.458   6.243  0.00  0.00    -0.029 C 
HETATM   11  C   UNK N   1      26.939  20.489   6.371  0.00  0.00     0.012 C 
HETATM   12  C   UNK N   1      26.125  20.821   5.300  0.00  0.00     0.030 C 
BRANCH  10  13
HETATM   13  C   UNK N   1      28.394  18.799   7.487  0.00  0.00     0.151 C 
BRANCH  13  14
HETATM   14  C   UNK N   1      28.801  17.355   7.320  0.00  0.00     0.036 C 
BRANCH  14  15
HETATM   15  C   UNK N   1      30.311  17.211   7.324  0.00  0.00     0.003 C 
BRANCH  15  16
HETATM   16  C   UNK N   1      30.739  16.422   6.104  0.00  0.00    -0.000 C 
BRANCH  16  17
HETATM   17  C   UNK N   1      31.532  17.323   5.179  0.00  0.00    -0.005 C 
HETATM   18  C   UNK N   1      32.960  17.414   5.663  0.00  0.00     0.005 C 
ENDBRANCH  16  17
ENDBRANCH  15  16
ENDBRANCH  14  15
ENDBRANCH  13  14
BRANCH  13  19
HETATM   19  O   UNK N   1      27.512  18.936   8.561  0.00  0.00    -0.391 OA
HETATM   20  H   UNK N   1      27.853  19.053   9.462  0.00  0.00     0.210 HD
ENDBRANCH  13  19
ENDBRANCH  10  13
ENDBRANCH   1   7
BRANCH   2  21
HETATM   21  C   UNK N   1      24.843  17.123   3.828  0.00  0.00     0.193 C 
BRANCH  21  22
HETATM   22  O   UNK N   1      24.068  16.007   4.187  0.00  0.00    -0.384 OA
BRANCH  22  23
HETATM   23  C   UNK N   1      24.361  15.614   5.520  0.00  0.00     0.213 C 
BRANCH  23  24
HETATM   24  C   UNK N   1      23.182  15.457   6.438  0.00  0.00     0.007 A 
HETATM   25  C   UNK N   1      22.128  16.355   6.610  0.00  0.00     0.018 A 
HETATM   26  C   UNK N   1      21.230  15.948   7.640  0.00  0.00     0.026 A 
HETATM   27  C   UNK N   1      21.597  14.737   8.239  0.00  0.00     0.080 A 
HETATM   28  S   UNK N   1      22.977  14.225   7.525  0.00  0.00    -0.086 SA
BRANCH  27  29
HETATM   29  C   UNK N   1      20.949  14.107   9.384  0.00  0.00     0.300 C 
HETATM   30  O   UNK N   1      19.731  13.994   9.427  0.00  0.00    -0.259 OA
BRANCH  29  31
HETATM   31  O   UNK N   1      21.722  13.498  10.301  0.00  0.00    -0.312 OA
BRANCH  31  32
HETATM   32  C   UNK N   1      21.663  12.155  10.537  0.00  0.00     0.124 C 
HETATM   33  C   UNK N   1      21.572  11.952  12.036  0.00  0.00     0.040 C 
HETATM   34  C   UNK N   1      22.936  11.512  10.032  0.00  0.00     0.040 C 
ENDBRANCH  31  32
ENDBRANCH  29  31
ENDBRANCH  27  29
ENDBRANCH  23  24
ENDBRANCH  22  23
ENDBRANCH  21  22
ENDBRANCH   2  21
TORSDOF 14
ENDMDL
MODEL 3
REMARK VINA RESULT:      -6.3     10.710     13.260
REMARK  14 active torsions:
REMARK  status: ('A' for Active; 'I' for Inactive)
REMARK    1  A    between atoms: C_2  and  C_3 
REMARK    2  A    between atoms: C_3  and  C_4 
REMARK    3  A    between atoms: C_4  and  C_5 
REMARK    4  A    between atoms: C_5  and  C_6 
REMARK    5  A    between atoms: C_6  and  C_7 
REMARK    6  A    between atoms: C_6  and  O_33 
REMARK    7  A    between atoms: C_10  and  N_13 
REMARK    8  A    between atoms: C_14  and  C_19 
REMARK    9  A    between atoms: C_19  and  O_20 
REMARK   10  A    between atoms: O_20  and  C_21 
REMARK   11  A    between atoms: C_21  and  C_22 
REMARK   12  A    between atoms: C_25  and  C_27 
REMARK   13  A    between atoms: C_27  and  O_29 
REMARK   14  A    between atoms: O_29  and  C_30 
ROOT
HETATM    1  N   UNK N   1      27.024  28.189  -4.650  0.00  0.00    -0.311 N 
HETATM    2  C   UNK N   1      27.714  28.283  -5.928  0.00  0.00     0.117 A 
HETATM    3  C   UNK N   1      28.196  29.733  -6.011  0.00  0.00     0.037 A 
HETATM    4  C   UNK N   1      27.716  30.445  -4.733  0.00  0.00     0.105 A 
HETATM    5  C   UNK N   1      26.966  29.379  -4.046  0.00  0.00     0.224 A 
HETATM    6  O   UNK N   1      26.266  29.583  -3.056  0.00  0.00    -0.273 OA
ENDROOT
BRANCH   1   7
HETATM    7  C   UNK N   1      26.118  27.132  -4.446  0.00  0.00     0.037 C 
HETATM    8  C   UNK N   1      26.585  26.061  -3.676  0.00  0.00     0.030 C 
HETATM    9  C   UNK N   1      26.469  24.753  -4.136  0.00  0.00     0.012 C 
HETATM   10  C   UNK N   1      25.858  24.506  -5.368  0.00  0.00    -0.029 C 
HETATM   11  C   UNK N   1      25.211  25.545  -6.035  0.00  0.00     0.012 C 
HETATM   12  C   UNK N   1      25.335  26.845  -5.571  0.00  0.00     0.030 C 
BRANCH  10  13
HETATM   13  C   UNK N   1      26.116  23.222  -6.106  0.00  0.00     0.151 C 
BRANCH  13  14
HETATM   14  C   UNK N   1      27.006  23.350  -7.318  0.00  0.00     0.036 C 
BRANCH  14  15
HETATM   15  C   UNK N   1      28.009  22.213  -7.378  0.00  0.00     0.003 C 
BRANCH  15  16
HETATM   16  C   UNK N   1      28.961  22.328  -6.206  0.00  0.00    -0.000 C 
BRANCH  16  17
HETATM   17  C   UNK N   1      29.739  21.035  -6.065  0.00  0.00    -0.005 C 
HETATM   18  C   UNK N   1      29.532  20.183  -7.294  0.00  0.00     0.005 C 
ENDBRANCH  16  17
ENDBRANCH  15  16
ENDBRANCH  14  15
ENDBRANCH  13  14
BRANCH  13  19
HETATM   19  O   UNK N   1      24.928  22.567  -6.440  0.00  0.00    -0.391 OA
HETATM   20  H   UNK N   1      24.218  22.476  -5.784  0.00  0.00     0.210 HD
ENDBRANCH  13  19
ENDBRANCH  10  13
ENDBRANCH   1   7
BRANCH   2  21
HETATM   21  C   UNK N   1      28.921  27.361  -6.182  0.00  0.00     0.193 C 
BRANCH  21  22
HETATM   22  O   UNK N   1      29.780  27.069  -5.109  0.00  0.00    -0.384 OA
BRANCH  22  23
HETATM   23  C   UNK N   1      30.811  26.189  -5.531  0.00  0.00     0.213 C 
BRANCH  23  24
HETATM   24  C   UNK N   1      30.994  24.942  -4.711  0.00  0.00     0.007 A 
HETATM   25  C   UNK N   1      30.217  24.529  -3.629  0.00  0.00     0.018 A 
HETATM   26  C   UNK N   1      30.731  23.352  -3.009  0.00  0.00     0.026 A 
HETATM   27  C   UNK N   1      31.890  22.868  -3.629  0.00  0.00     0.080 A 
HETATM   28  S   UNK N   1      32.249  23.873  -4.869  0.00  0.00    -0.086 SA
BRANCH  27  29
HETATM   29  C   UNK N   1      32.709  21.749  -3.178  0.00  0.00     0.300 C 
HETATM   30  O   UNK N   1      32.609  21.323  -2.036  0.00  0.00    -0.259 OA
BRANCH  29  31
HETATM   31  O   UNK N   1      33.444  21.087  -4.090  0.00  0.00    -0.312 OA
BRANCH  31  32
HETATM   32  C   UNK N   1      33.045  19.901  -4.635  0.00  0.00     0.124 C 
HETATM   33  C   UNK N   1      33.971  18.819  -4.116  0.00  0.00     0.040 C 
HETATM   34  C   UNK N   1      33.182  19.982  -6.139  0.00  0.00     0.040 C 
ENDBRANCH  31  32
ENDBRANCH  29  31
ENDBRANCH  27  29
ENDBRANCH  23  24
ENDBRANCH  22  23
ENDBRANCH  21  22
ENDBRANCH   2  21
TORSDOF 14
ENDMDL
MODEL 4
REMARK VINA RESULT:      -6.3     10.303     13.671
REMARK  14 active torsions:
REMARK  status: ('A' for Active; 'I' for Inactive)
REMARK    1  A    between atoms: C_2  and  C_3 
REMARK    2  A    between atoms: C_3  and  C_4 
REMARK    3  A    between atoms: C_4  and  C_5 
REMARK    4  A    between atoms: C_5  and  C_6 
REMARK    5  A    between atoms: C_6  and  C_7 
REMARK    6  A    between atoms: C_6  and  O_33 
REMARK    7  A    between atoms: C_10  and  N_13 
REMARK    8  A    between atoms: C_14  and  C_19 
REMARK    9  A    between atoms: C_19  and  O_20 
REMARK   10  A    between atoms: O_20  and  C_21 
REMARK   11  A    between atoms: C_21  and  C_22 
REMARK   12  A    between atoms: C_25  and  C_27 
REMARK   13  A    between atoms: C_27  and  O_29 
REMARK   14  A    between atoms: O_29  and  C_30 
ROOT
HETATM    1  N   UNK N   1      27.983  24.320  -4.506  0.00  0.00    -0.311 N 
HETATM    2  C   UNK N   1      28.222  23.625  -5.762  0.00  0.00     0.117 A 
HETATM    3  C   UNK N   1      26.827  23.322  -6.316  0.00  0.00     0.037 A 
HETATM    4  C   UNK N   1      25.807  23.858  -5.295  0.00  0.00     0.105 A 
HETATM    5  C   UNK N   1      26.678  24.375  -4.226  0.00  0.00     0.224 A 
HETATM    6  O   UNK N   1      26.253  24.737  -3.131  0.00  0.00    -0.273 OA
ENDROOT
BRANCH   1   7
HETATM    7  C   UNK N   1      29.018  24.373  -3.554  0.00  0.00     0.037 C 
HETATM    8  C   UNK N   1      30.244  24.874  -4.004  0.00  0.00     0.030 C 
HETATM    9  C   UNK N   1      31.424  24.168  -3.784  0.00  0.00     0.012 C 
HETATM   10  C   UNK N   1      31.384  22.959  -3.084  0.00  0.00    -0.029 C 
HETATM   11  C   UNK N   1      30.202  22.566  -2.458  0.00  0.00     0.012 C 
HETATM   12  C   UNK N   1      29.033  23.273  -2.686  0.00  0.00     0.030 C 
BRANCH  10  13
HETATM   13  C   UNK N   1      32.499  21.961  -3.219  0.00  0.00     0.151 C 
BRANCH  13  14
HETATM   14  C   UNK N   1      32.521  21.203  -4.524  0.00  0.00     0.036 C 
BRANCH  14  15
HETATM   15  C   UNK N   1      31.406  20.175  -4.575  0.00  0.00     0.003 C 
BRANCH  15  16
HETATM   16  C   UNK N   1      30.377  20.609  -5.598  0.00  0.00    -0.000 C 
BRANCH  16  17
HETATM   17  C   UNK N   1      30.737  20.024  -6.949  0.00  0.00    -0.005 C 
HETATM   18  C   UNK N   1      29.506  19.426  -7.586  0.00  0.00     0.005 C 
ENDBRANCH  16  17
ENDBRANCH  15  16
ENDBRANCH  14  15
ENDBRANCH  13  14
BRANCH  13  19
HETATM   19  O   UNK N   1      32.538  21.075  -2.139  0.00  0.00    -0.391 OA
HETATM   20  H   UNK N   1      32.255  21.365  -1.257  0.00  0.00     0.210 HD
ENDBRANCH  13  19
ENDBRANCH  10  13
ENDBRANCH   1   7
BRANCH   2  21
HETATM   21  C   UNK N   1      29.028  24.343  -6.859  0.00  0.00     0.193 C 
BRANCH  21  22
HETATM   22  O   UNK N   1      28.329  25.059  -7.845  0.00  0.00    -0.384 OA
BRANCH  22  23
HETATM   23  C   UNK N   1      28.542  26.454  -7.683  0.00  0.00     0.213 C 
BRANCH  23  24
HETATM   24  C   UNK N   1      27.783  27.115  -6.567  0.00  0.00     0.007 A 
HETATM   25  C   UNK N   1      26.398  27.236  -6.452  0.00  0.00     0.018 A 
HETATM   26  C   UNK N   1      26.012  28.014  -5.321  0.00  0.00     0.026 A 
HETATM   27  C   UNK N   1      27.104  28.473  -4.574  0.00  0.00     0.080 A 
HETATM   28  S   UNK N   1      28.468  27.941  -5.306  0.00  0.00    -0.086 SA
BRANCH  27  29
HETATM   29  C   UNK N   1      27.051  29.371  -3.427  0.00  0.00     0.300 C 
HETATM   30  O   UNK N   1      26.261  30.305  -3.401  0.00  0.00    -0.259 OA
BRANCH  29  31
HETATM   31  O   UNK N   1      27.761  29.050  -2.331  0.00  0.00    -0.312 OA
BRANCH  31  32
HETATM   32  C   UNK N   1      28.664  29.903  -1.764  0.00  0.00     0.124 C 
HETATM   33  C   UNK N   1      30.052  29.373  -2.064  0.00  0.00     0.040 C 
HETATM   34  C   UNK N   1      28.457  29.910  -0.265  0.00  0.00     0.040 C 
ENDBRANCH  31  32
ENDBRANCH  29  31
ENDBRANCH  27  29
ENDBRANCH  23  24
ENDBRANCH  22  23
ENDBRANCH  21  22
ENDBRANCH   2  21
TORSDOF 14
ENDMDL
MODEL 5
REMARK VINA RESULT:      -6.2     10.332     13.009
REMARK  14 active torsions:
REMARK  status: ('A' for Active; 'I' for Inactive)
REMARK    1  A    between atoms: C_2  and  C_3 
REMARK    2  A    between atoms: C_3  and  C_4 
REMARK    3  A    between atoms: C_4  and  C_5 
REMARK    4  A    between atoms: C_5  and  C_6 
REMARK    5  A    between atoms: C_6  and  C_7 
REMARK    6  A    between atoms: C_6  and  O_33 
REMARK    7  A    between atoms: C_10  and  N_13 
REMARK    8  A    between atoms: C_14  and  C_19 
REMARK    9  A    between atoms: C_19  and  O_20 
REMARK   10  A    between atoms: O_20  and  C_21 
REMARK   11  A    between atoms: C_21  and  C_22 
REMARK   12  A    between atoms: C_25  and  C_27 
REMARK   13  A    between atoms: C_27  and  O_29 
REMARK   14  A    between atoms: O_29  and  C_30 
ROOT
HETATM    1  N   UNK N   1      26.017  25.210  -7.177  0.00  0.00    -0.311 N 
HETATM    2  C   UNK N   1      25.986  24.306  -6.038  0.00  0.00     0.117 A 
HETATM    3  C   UNK N   1      25.756  22.918  -6.642  0.00  0.00     0.037 A 
HETATM    4  C   UNK N   1      25.634  23.101  -8.166  0.00  0.00     0.105 A 
HETATM    5  C   UNK N   1      25.751  24.562  -8.315  0.00  0.00     0.224 A 
HETATM    6  O   UNK N   1      25.530  25.148  -9.372  0.00  0.00    -0.273 OA
ENDROOT
BRANCH   1   7
HETATM    7  C   UNK N   1      25.797  26.584  -6.959  0.00  0.00     0.037 C 
HETATM    8  C   UNK N   1      26.939  27.391  -6.925  0.00  0.00     0.030 C 
HETATM    9  C   UNK N   1      27.154  28.273  -5.869  0.00  0.00     0.012 C 
HETATM   10  C   UNK N   1      26.207  28.367  -4.846  0.00  0.00    -0.029 C 
HETATM   11  C   UNK N   1      24.980  27.721  -4.983  0.00  0.00     0.012 C 
HETATM   12  C   UNK N   1      24.776  26.844  -6.036  0.00  0.00     0.030 C 
BRANCH  10  13
HETATM   13  C   UNK N   1      26.587  28.923  -3.502  0.00  0.00     0.151 C 
BRANCH  13  14
HETATM   14  C   UNK N   1      27.901  29.666  -3.468  0.00  0.00     0.036 C 
BRANCH  14  15
HETATM   15  C   UNK N   1      28.101  30.354  -2.131  0.00  0.00     0.003 C 
BRANCH  15  16
HETATM   16  C   UNK N   1      29.404  29.884  -1.520  0.00  0.00    -0.000 C 
BRANCH  16  17
HETATM   17  C   UNK N   1      30.099  28.945  -2.486  0.00  0.00    -0.005 C 
HETATM   18  C   UNK N   1      31.560  28.834  -2.122  0.00  0.00     0.005 C 
ENDBRANCH  16  17
ENDBRANCH  15  16
ENDBRANCH  14  15
ENDBRANCH  13  14
BRANCH  13  19
HETATM   19  O   UNK N   1      26.554  27.943  -2.507  0.00  0.00    -0.391 OA
HETATM   20  H   UNK N   1      27.155  27.182  -2.548  0.00  0.00     0.210 HD
ENDBRANCH  13  19
ENDBRANCH  10  13
ENDBRANCH   1   7
BRANCH   2  21
HETATM   21  C   UNK N   1      27.222  24.232  -5.124  0.00  0.00     0.193 C 
BRANCH  21  22
HETATM   22  O   UNK N   1      27.432  25.267  -4.196  0.00  0.00    -0.384 OA
BRANCH  22  23
HETATM   23  C   UNK N   1      28.823  25.449  -3.970  0.00  0.00     0.213 C 
BRANCH  23  24
HETATM   24  C   UNK N   1      29.583  24.239  -3.507  0.00  0.00     0.007 A 
HETATM   25  C   UNK N   1      29.272  23.418  -2.422  0.00  0.00     0.018 A 
HETATM   26  C   UNK N   1      30.264  22.419  -2.196  0.00  0.00     0.026 A 
HETATM   27  C   UNK N   1      31.318  22.475  -3.115  0.00  0.00     0.080 A 
HETATM   28  S   UNK N   1      31.024  23.719  -4.137  0.00  0.00    -0.086 SA
BRANCH  27  29
HETATM   29  C   UNK N   1      32.530  21.663  -3.093  0.00  0.00     0.300 C 
HETATM   30  O   UNK N   1      32.993  21.261  -2.035  0.00  0.00    -0.259 OA
BRANCH  29  31
HETATM   31  O   UNK N   1      33.023  21.221  -4.264  0.00  0.00    -0.312 OA
BRANCH  31  32
HETATM   32  C   UNK N   1      32.749  19.976  -4.753  0.00  0.00     0.124 C 
HETATM   33  C   UNK N   1      33.914  19.556  -5.627  0.00  0.00     0.040 C 
HETATM   34  C   UNK N   1      31.500  20.049  -5.605  0.00  0.00     0.040 C 
ENDBRANCH  31  32
ENDBRANCH  29  31
ENDBRANCH  27  29
ENDBRANCH  23  24
ENDBRANCH  22  23
ENDBRANCH  21  22
ENDBRANCH   2  21
TORSDOF 14
ENDMDL
MODEL 6
REMARK VINA RESULT:      -6.0      5.658      9.213
REMARK  14 active torsions:
REMARK  status: ('A' for Active; 'I' for Inactive)
REMARK    1  A    between atoms: C_2  and  C_3 
REMARK    2  A    between atoms: C_3  and  C_4 
REMARK    3  A    between atoms: C_4  and  C_5 
REMARK    4  A    between atoms: C_5  and  C_6 
REMARK    5  A    between atoms: C_6  and  C_7 
REMARK    6  A    between atoms: C_6  and  O_33 
REMARK    7  A    between atoms: C_10  and  N_13 
REMARK    8  A    between atoms: C_14  and  C_19 
REMARK    9  A    between atoms: C_19  and  O_20 
REMARK   10  A    between atoms: O_20  and  C_21 
REMARK   11  A    between atoms: C_21  and  C_22 
REMARK   12  A    between atoms: C_25  and  C_27 
REMARK   13  A    between atoms: C_27  and  O_29 
REMARK   14  A    between atoms: O_29  and  C_30 
ROOT
HETATM    1  N   UNK N   1      20.944  14.681   2.095  0.00  0.00    -0.311 N 
HETATM    2  C   UNK N   1      21.822  14.585   3.252  0.00  0.00     0.117 A 
HETATM    3  C   UNK N   1      22.301  13.131   3.263  0.00  0.00     0.037 A 
HETATM    4  C   UNK N   1      21.626  12.421   2.075  0.00  0.00     0.105 A 
HETATM    5  C   UNK N   1      20.785  13.491   1.510  0.00  0.00     0.224 A 
HETATM    6  O   UNK N   1      19.941  13.290   0.640  0.00  0.00    -0.273 OA
ENDROOT
BRANCH   1   7
HETATM    7  C   UNK N   1      20.023  15.744   2.030  0.00  0.00     0.037 C 
HETATM    8  C   UNK N   1      20.223  16.668   0.999  0.00  0.00     0.030 C 
HETATM    9  C   UNK N   1      20.265  18.033   1.268  0.00  0.00     0.012 C 
HETATM   10  C   UNK N   1      20.083  18.484   2.578  0.00  0.00    -0.029 C 
HETATM   11  C   UNK N   1      19.681  17.586   3.564  0.00  0.00     0.012 C 
HETATM   12  C   UNK N   1      19.644  16.229   3.288  0.00  0.00     0.030 C 
BRANCH  10  13
HETATM   13  C   UNK N   1      20.568  19.845   2.991  0.00  0.00     0.151 C 
BRANCH  13  14
HETATM   14  C   UNK N   1      21.914  20.240   2.432  0.00  0.00     0.036 C 
BRANCH  14  15
HETATM   15  C   UNK N   1      23.034  19.832   3.371  0.00  0.00     0.003 C 
BRANCH  15  16
HETATM   16  C   UNK N   1      24.314  20.519   2.946  0.00  0.00    -0.000 C 
BRANCH  16  17
HETATM   17  C   UNK N   1      25.499  19.667   3.357  0.00  0.00    -0.005 C 
HETATM   18  C   UNK N   1      26.754  20.505   3.341  0.00  0.00     0.005 C 
ENDBRANCH  16  17
ENDBRANCH  15  16
ENDBRANCH  14  15
ENDBRANCH  13  14
BRANCH  13  19
HETATM   19  O   UNK N   1      20.551  20.004   4.379  0.00  0.00    -0.391 OA
HETATM   20  H   UNK N   1      21.365  19.888   4.896  0.00  0.00     0.210 HD
ENDBRANCH  13  19
ENDBRANCH  10  13
ENDBRANCH   1   7
BRANCH   2  21
HETATM   21  C   UNK N   1      23.059  15.498   3.315  0.00  0.00     0.193 C 
BRANCH  21  22
HETATM   22  O   UNK N   1      22.929  16.763   3.915  0.00  0.00    -0.384 OA
BRANCH  22  23
HETATM   23  C   UNK N   1      23.381  16.716   5.260  0.00  0.00     0.213 C 
BRANCH  23  24
HETATM   24  C   UNK N   1      22.342  16.391   6.297  0.00  0.00     0.007 A 
HETATM   25  C   UNK N   1      21.293  17.209   6.718  0.00  0.00     0.018 A 
HETATM   26  C   UNK N   1      20.555  16.636   7.795  0.00  0.00     0.026 A 
HETATM   27  C   UNK N   1      21.038  15.380   8.182  0.00  0.00     0.080 A 
HETATM   28  S   UNK N   1      22.324  15.026   7.234  0.00  0.00    -0.086 SA
BRANCH  27  29
HETATM   29  C   UNK N   1      20.571  14.583   9.310  0.00  0.00     0.300 C 
HETATM   30  O   UNK N   1      19.374  14.451   9.527  0.00  0.00    -0.259 OA
BRANCH  29  31
HETATM   31  O   UNK N   1      21.471  13.856   9.996  0.00  0.00    -0.312 OA
BRANCH  31  32
HETATM   32  C   UNK N   1      21.383  12.499  10.115  0.00  0.00     0.124 C 
HETATM   33  C   UNK N   1      20.881  12.190  11.512  0.00  0.00     0.040 C 
HETATM   34  C   UNK N   1      22.763  11.903   9.948  0.00  0.00     0.040 C 
ENDBRANCH  31  32
ENDBRANCH  29  31
ENDBRANCH  27  29
ENDBRANCH  23  24
ENDBRANCH  22  23
ENDBRANCH  21  22
ENDBRANCH   2  21
TORSDOF 14
ENDMDL
MODEL 7
REMARK VINA RESULT:      -5.9     11.792     15.564
REMARK  14 active torsions:
REMARK  status: ('A' for Active; 'I' for Inactive)
REMARK    1  A    between atoms: C_2  and  C_3 
REMARK    2  A    between atoms: C_3  and  C_4 
REMARK    3  A    between atoms: C_4  and  C_5 
REMARK    4  A    between atoms: C_5  and  C_6 
REMARK    5  A    between atoms: C_6  and  C_7 
REMARK    6  A    between atoms: C_6  and  O_33 
REMARK    7  A    between atoms: C_10  and  N_13 
REMARK    8  A    between atoms: C_14  and  C_19 
REMARK    9  A    between atoms: C_19  and  O_20 
REMARK   10  A    between atoms: O_20  and  C_21 
REMARK   11  A    between atoms: C_21  and  C_22 
REMARK   12  A    between atoms: C_25  and  C_27 
REMARK   13  A    between atoms: C_27  and  O_29 
REMARK   14  A    between atoms: O_29  and  C_30 
ROOT
HETATM    1  N   UNK N   1      29.954  23.164  -3.723  0.00  0.00    -0.311 N 
HETATM    2  C   UNK N   1      30.283  22.966  -5.127  0.00  0.00     0.117 A 
HETATM    3  C   UNK N   1      31.509  22.050  -5.120  0.00  0.00     0.037 A 
HETATM    4  C   UNK N   1      31.860  21.772  -3.647  0.00  0.00     0.105 A 
HETATM    5  C   UNK N   1      30.855  22.576  -2.930  0.00  0.00     0.224 A 
HETATM    6  O   UNK N   1      30.893  22.772  -1.718  0.00  0.00    -0.273 OA
ENDROOT
BRANCH   1   7
HETATM    7  C   UNK N   1      29.154  24.264  -3.363  0.00  0.00     0.037 C 
HETATM    8  C   UNK N   1      27.810  23.985  -3.091  0.00  0.00     0.030 C 
HETATM    9  C   UNK N   1      26.796  24.715  -3.704  0.00  0.00     0.012 C 
HETATM   10  C   UNK N   1      27.125  25.752  -4.581  0.00  0.00    -0.029 C 
HETATM   11  C   UNK N   1      28.452  26.164  -4.691  0.00  0.00     0.012 C 
HETATM   12  C   UNK N   1      29.455  25.429  -4.080  0.00  0.00     0.030 C 
BRANCH  10  13
HETATM   13  C   UNK N   1      26.128  26.242  -5.592  0.00  0.00     0.151 C 
BRANCH  13  14
HETATM   14  C   UNK N   1      25.835  27.722  -5.534  0.00  0.00     0.036 C 
BRANCH  14  15
HETATM   15  C   UNK N   1      25.483  28.152  -4.122  0.00  0.00     0.003 C 
BRANCH  15  16
HETATM   16  C   UNK N   1      26.244  29.416  -3.783  0.00  0.00    -0.000 C 
BRANCH  16  17
HETATM   17  C   UNK N   1      27.370  29.605  -4.779  0.00  0.00    -0.005 C 
HETATM   18  C   UNK N   1      27.773  31.059  -4.819  0.00  0.00     0.005 C 
ENDBRANCH  16  17
ENDBRANCH  15  16
ENDBRANCH  14  15
ENDBRANCH  13  14
BRANCH  13  19
HETATM   19  O   UNK N   1      24.940  25.508  -5.550  0.00  0.00    -0.391 OA
HETATM   20  H   UNK N   1      24.964  24.545  -5.435  0.00  0.00     0.210 HD
ENDBRANCH  13  19
ENDBRANCH  10  13
ENDBRANCH   1   7
BRANCH   2  21
HETATM   21  C   UNK N   1      29.222  22.341  -6.050  0.00  0.00     0.193 C 
BRANCH  21  22
HETATM   22  O   UNK N   1      29.247  22.666  -7.418  0.00  0.00    -0.384 OA
BRANCH  22  23
HETATM   23  C   UNK N   1      28.043  22.250  -8.044  0.00  0.00     0.213 C 
BRANCH  23  24
HETATM   24  C   UNK N   1      27.283  23.311  -8.789  0.00  0.00     0.007 A 
HETATM   25  C   UNK N   1      27.063  24.627  -8.383  0.00  0.00     0.018 A 
HETATM   26  C   UNK N   1      26.210  25.337  -9.278  0.00  0.00     0.026 A 
HETATM   27  C   UNK N   1      25.794  24.563 -10.367  0.00  0.00     0.080 A 
HETATM   28  S   UNK N   1      26.449  23.073 -10.200  0.00  0.00    -0.086 SA
BRANCH  27  29
HETATM   29  C   UNK N   1      24.843  24.961 -11.400  0.00  0.00     0.300 C 
HETATM   30  O   UNK N   1      24.614  24.229 -12.352  0.00  0.00    -0.259 OA
BRANCH  29  31
HETATM   31  O   UNK N   1      24.099  26.062 -11.192  0.00  0.00    -0.312 OA
BRANCH  31  32
HETATM   32  C   UNK N   1      23.777  26.931 -12.194  0.00  0.00     0.124 C 
HETATM   33  C   UNK N   1      25.029  27.707 -12.552  0.00  0.00     0.040 C 
HETATM   34  C   UNK N   1      22.731  27.899 -11.685  0.00  0.00     0.040 C 
ENDBRANCH  31  32
ENDBRANCH  29  31
ENDBRANCH  27  29
ENDBRANCH  23  24
ENDBRANCH  22  23
ENDBRANCH  21  22
ENDBRANCH   2  21
TORSDOF 14
ENDMDL
MODEL 8
REMARK VINA RESULT:      -5.9      4.815      8.437
REMARK  14 active torsions:
REMARK  status: ('A' for Active; 'I' for Inactive)
REMARK    1  A    between atoms: C_2  and  C_3 
REMARK    2  A    between atoms: C_3  and  C_4 
REMARK    3  A    between atoms: C_4  and  C_5 
REMARK    4  A    between atoms: C_5  and  C_6 
REMARK    5  A    between atoms: C_6  and  C_7 
REMARK    6  A    between atoms: C_6  and  O_33 
REMARK    7  A    between atoms: C_10  and  N_13 
REMARK    8  A    between atoms: C_14  and  C_19 
REMARK    9  A    between atoms: C_19  and  O_20 
REMARK   10  A    between atoms: O_20  and  C_21 
REMARK   11  A    between atoms: C_21  and  C_22 
REMARK   12  A    between atoms: C_25  and  C_27 
REMARK   13  A    between atoms: C_27  and  O_29 
REMARK   14  A    between atoms: O_29  and  C_30 
ROOT
HETATM    1  N   UNK N   1      23.504  12.759   9.968  0.00  0.00    -0.311 N 
HETATM    2  C   UNK N   1      22.112  12.932   9.582  0.00  0.00     0.117 A 
HETATM    3  C   UNK N   1      21.305  12.509  10.812  0.00  0.00     0.037 A 
HETATM    4  C   UNK N   1      22.316  12.068  11.888  0.00  0.00     0.105 A 
HETATM    5  C   UNK N   1      23.603  12.222  11.188  0.00  0.00     0.224 A 
HETATM    6  O   UNK N   1      24.666  11.807  11.642  0.00  0.00    -0.273 OA
ENDROOT
BRANCH   1   7
HETATM    7  C   UNK N   1      24.480  12.660   8.959  0.00  0.00     0.037 C 
HETATM    8  C   UNK N   1      25.157  13.842   8.639  0.00  0.00     0.030 C 
HETATM    9  C   UNK N   1      25.261  14.264   7.317  0.00  0.00     0.012 C 
HETATM   10  C   UNK N   1      24.704  13.486   6.298  0.00  0.00    -0.029 C 
HETATM   11  C   UNK N   1      24.216  12.215   6.593  0.00  0.00     0.012 C 
HETATM   12  C   UNK N   1      24.114  11.805   7.913  0.00  0.00     0.030 C 
BRANCH  10  13
HETATM   13  C   UNK N   1      24.381  14.094   4.962  0.00  0.00     0.151 C 
BRANCH  13  14
HETATM   14  C   UNK N   1      24.540  15.593   4.888  0.00  0.00     0.036 C 
BRANCH  14  15
HETATM   15  C   UNK N   1      24.974  16.026   3.500  0.00  0.00     0.003 C 
BRANCH  15  16
HETATM   16  C   UNK N   1      26.487  16.027   3.430  0.00  0.00    -0.000 C 
BRANCH  16  17
HETATM   17  C   UNK N   1      27.050  16.368   4.795  0.00  0.00    -0.005 C 
HETATM   18  C   UNK N   1      28.141  15.387   5.152  0.00  0.00     0.005 C 
ENDBRANCH  16  17
ENDBRANCH  15  16
ENDBRANCH  14  15
ENDBRANCH  13  14
BRANCH  13  19
HETATM   19  O   UNK N   1      23.114  13.715   4.511  0.00  0.00    -0.391 OA
HETATM   20  H   UNK N   1      22.433  13.434   5.142  0.00  0.00     0.210 HD
ENDBRANCH  13  19
ENDBRANCH  10  13
ENDBRANCH   1   7
BRANCH   2  21
HETATM   21  C   UNK N   1      21.636  14.332   9.154  0.00  0.00     0.193 C 
BRANCH  21  22
HETATM   22  O   UNK N   1      21.608  14.641   7.783  0.00  0.00    -0.384 OA
BRANCH  22  23
HETATM   23  C   UNK N   1      20.766  15.760   7.549  0.00  0.00     0.213 C 
BRANCH  23  24
HETATM   24  C   UNK N   1      20.978  16.489   6.251  0.00  0.00     0.007 A 
HETATM   25  C   UNK N   1      20.724  16.006   4.968  0.00  0.00     0.018 A 
HETATM   26  C   UNK N   1      21.138  16.917   3.952  0.00  0.00     0.026 A 
HETATM   27  C   UNK N   1      21.694  18.094   4.467  0.00  0.00     0.080 A 
HETATM   28  S   UNK N   1      21.678  17.982   6.099  0.00  0.00    -0.086 SA
BRANCH  27  29
HETATM   29  C   UNK N   1      22.302  19.173   3.696  0.00  0.00     0.300 C 
HETATM   30  O   UNK N   1      21.668  20.186   3.434  0.00  0.00    -0.259 OA
BRANCH  29  31
HETATM   31  O   UNK N   1      23.619  19.108   3.434  0.00  0.00    -0.312 OA
BRANCH  31  32
HETATM   32  C   UNK N   1      24.493  20.088   3.809  0.00  0.00     0.124 C 
HETATM   33  C   UNK N   1      25.356  20.422   2.608  0.00  0.00     0.040 C 
HETATM   34  C   UNK N   1      25.378  19.558   4.915  0.00  0.00     0.040 C 
ENDBRANCH  31  32
ENDBRANCH  29  31
ENDBRANCH  27  29
ENDBRANCH  23  24
ENDBRANCH  22  23
ENDBRANCH  21  22
ENDBRANCH   2  21
TORSDOF 14
ENDMDL
MODEL 9
REMARK VINA RESULT:      -5.8      6.185      9.829
REMARK  14 active torsions:
REMARK  status: ('A' for Active; 'I' for Inactive)
REMARK    1  A    between atoms: C_2  and  C_3 
REMARK    2  A    between atoms: C_3  and  C_4 
REMARK    3  A    between atoms: C_4  and  C_5 
REMARK    4  A    between atoms: C_5  and  C_6 
REMARK    5  A    between atoms: C_6  and  C_7 
REMARK    6  A    between atoms: C_6  and  O_33 
REMARK    7  A    between atoms: C_10  and  N_13 
REMARK    8  A    between atoms: C_14  and  C_19 
REMARK    9  A    between atoms: C_19  and  O_20 
REMARK   10  A    between atoms: O_20  and  C_21 
REMARK   11  A    between atoms: C_21  and  C_22 
REMARK   12  A    between atoms: C_25  and  C_27 
REMARK   13  A    between atoms: C_27  and  O_29 
REMARK   14  A    between atoms: O_29  and  C_30 
ROOT
HETATM    1  N   UNK N   1      23.451  12.642  10.043  0.00  0.00    -0.311 N 
HETATM    2  C   UNK N   1      22.013  12.700   9.831  0.00  0.00     0.117 A 
HETATM    3  C   UNK N   1      21.400  12.289  11.172  0.00  0.00     0.037 A 
HETATM    4  C   UNK N   1      22.566  11.975  12.128  0.00  0.00     0.105 A 
HETATM    5  C   UNK N   1      23.741  12.178  11.263  0.00  0.00     0.224 A 
HETATM    6  O   UNK N   1      24.880  11.860  11.594  0.00  0.00    -0.273 OA
ENDROOT
BRANCH   1   7
HETATM    7  C   UNK N   1      24.299  12.556   8.923  0.00  0.00     0.037 C 
HETATM    8  C   UNK N   1      25.037  13.705   8.620  0.00  0.00     0.030 C 
HETATM    9  C   UNK N   1      25.032  14.232   7.331  0.00  0.00     0.012 C 
HETATM   10  C   UNK N   1      24.301  13.593   6.327  0.00  0.00    -0.029 C 
HETATM   11  C   UNK N   1      23.739  12.342   6.576  0.00  0.00     0.012 C 
HETATM   12  C   UNK N   1      23.746  11.827   7.862  0.00  0.00     0.030 C 
BRANCH  10  13
HETATM   13  C   UNK N   1      23.888  14.339   5.089  0.00  0.00     0.151 C 
BRANCH  13  14
HETATM   14  C   UNK N   1      23.731  13.486   3.853  0.00  0.00     0.036 C 
BRANCH  14  15
HETATM   15  C   UNK N   1      22.419  13.782   3.152  0.00  0.00     0.003 C 
BRANCH  15  16
HETATM   16  C   UNK N   1      22.656  14.811   2.067  0.00  0.00    -0.000 C 
BRANCH  16  17
HETATM   17  C   UNK N   1      21.375  15.015   1.283  0.00  0.00    -0.005 C 
HETATM   18  C   UNK N   1      20.351  13.991   1.709  0.00  0.00     0.005 C 
ENDBRANCH  16  17
ENDBRANCH  15  16
ENDBRANCH  14  15
ENDBRANCH  13  14
BRANCH  13  19
HETATM   19  O   UNK N   1      24.731  15.423   4.831  0.00  0.00    -0.391 OA
HETATM   20  H   UNK N   1      24.704  16.210   5.397  0.00  0.00     0.210 HD
ENDBRANCH  13  19
ENDBRANCH  10  13
ENDBRANCH   1   7
BRANCH   2  21
HETATM   21  C   UNK N   1      21.385  14.039   9.407  0.00  0.00     0.193 C 
BRANCH  21  22
HETATM   22  O   UNK N   1      20.061  14.040   8.935  0.00  0.00    -0.384 OA
BRANCH  22  23
HETATM   23  C   UNK N   1      19.644  15.366   8.643  0.00  0.00     0.213 C 
BRANCH  23  24
HETATM   24  C   UNK N   1      20.038  15.902   7.295  0.00  0.00     0.007 A 
HETATM   25  C   UNK N   1      19.771  15.326   6.053  0.00  0.00     0.018 A 
HETATM   26  C   UNK N   1      20.380  16.041   4.980  0.00  0.00     0.026 A 
HETATM   27  C   UNK N   1      21.098  17.164   5.409  0.00  0.00     0.080 A 
HETATM   28  S   UNK N   1      20.982  17.238   7.039  0.00  0.00    -0.086 SA
BRANCH  27  29
HETATM   29  C   UNK N   1      21.913  18.040   4.575  0.00  0.00     0.300 C 
HETATM   30  O   UNK N   1      23.030  17.696   4.214  0.00  0.00    -0.259 OA
BRANCH  29  31
HETATM   31  O   UNK N   1      21.345  19.150   4.069  0.00  0.00    -0.312 OA
BRANCH  31  32
HETATM   32  C   UNK N   1      21.292  19.402   2.728  0.00  0.00     0.124 C 
HETATM   33  C   UNK N   1      20.947  20.867   2.547  0.00  0.00     0.040 C 
HETATM   34  C   UNK N   1      20.195  18.561   2.115  0.00  0.00     0.040 C 
ENDBRANCH  31  32
ENDBRANCH  29  31
ENDBRANCH  27  29
ENDBRANCH  23  24
ENDBRANCH  22  23
ENDBRANCH  21  22
ENDBRANCH   2  21
TORSDOF 14
ENDMDL
