MODEL 1
REMARK VINA RESULT:      -7.8      0.000      0.000
REMARK  14 active torsions:
REMARK  status: ('A' for Active; 'I' for Inactive)
REMARK    1  A    between atoms: C_2  and  C_3 
REMARK    2  A    between atoms: C_2  and  C_13 
REMARK    3  A    between atoms: C_3  and  C_4 
REMARK    4  A    between atoms: C_3  and  O_12 
REMARK    5  A    between atoms: C_7  and  O_11 
REMARK    6  A    between atoms: C_13  and  C_14 
REMARK    7  A    between atoms: C_13  and  N_36 
REMARK       I    between atoms: C_14  and  N_16 
REMARK    8  A    between atoms: C_17  and  N_16 
REMARK    9  A    between atoms: C_18  and  C_17 
REMARK   10  A    between atoms: C_17  and  C_33 
REMARK   11  A    between atoms: C_19  and  O_32 
REMARK   12  A    between atoms: C_20  and  O_31 
REMARK   13  A    between atoms: C_21  and  N_23 
REMARK   14  A    between atoms: C_33  and  O_35 
ROOT
HETATM    1  C   UNK N   1      35.382  11.584  12.843  0.00  0.00     0.214 C 
ENDROOT
BRANCH   1   2
HETATM    2  N   UNK N   1      35.240  12.883  12.228  0.00  0.00    -0.343 N 
HETATM    3  C   UNK N   1      36.163  13.396  11.391  0.00  0.00     0.241 C 
HETATM    4  O   UNK N   1      37.109  12.720  11.012  0.00  0.00    -0.271 OA
HETATM    5  H   UNK N   1      34.435  13.413  12.428  0.00  0.00     0.163 HD
BRANCH   3   6
HETATM    6  C   UNK N   1      36.009  14.809  10.909  0.00  0.00     0.173 C 
BRANCH   6   7
HETATM    7  C   UNK N   1      34.966  14.916   9.805  0.00  0.00     0.048 C 
HETATM    8  C   UNK N   1      35.379  13.973   8.678  0.00  0.00     0.015 C 
BRANCH   7   9
HETATM    9  C   UNK N   1      34.754  16.393   9.400  0.00  0.00     0.174 C 
BRANCH   9  10
HETATM   10  C   UNK N   1      33.521  16.660   8.589  0.00  0.00     0.038 A 
HETATM   11  C   UNK N   1      33.652  17.083   7.259  0.00  0.00     0.030 A 
HETATM   12  C   UNK N   1      32.512  17.287   6.489  0.00  0.00     0.040 A 
HETATM   13  C   UNK N   1      31.256  17.075   7.052  0.00  0.00     0.081 A 
HETATM   14  C   UNK N   1      31.158  16.680   8.389  0.00  0.00     0.124 A 
HETATM   15  N   UNK N   1      32.284  16.484   9.128  0.00  0.00    -0.364 N 
ATOM     16  HN  UNK N   1      32.199  16.200  10.104  1.00  0.00     0.165 HD
BRANCH  13  17
HETATM   17  O   UNK N   1      30.149  17.247   6.315  0.00  0.00    -0.359 OA
HETATM   18  H   UNK N   1      29.582  17.979   6.461  0.00  0.00     0.217 HD
ENDBRANCH  13  17
ENDBRANCH   9  10
BRANCH   9  19
HETATM   19  O   UNK N   1      34.829  17.208  10.531  0.00  0.00    -0.389 OA
HETATM   20  H   UNK N   1      34.028  17.411  11.037  0.00  0.00     0.210 HD
ENDBRANCH   9  19
ENDBRANCH   7   9
ENDBRANCH   6   7
BRANCH   6  21
HETATM   21  N   UNK N   1      37.291  15.359  10.499  0.00  0.00    -0.418 N 
HETATM   22  H   UNK N   1      37.422  15.686   9.542  0.00  0.00     0.150 HD
HETATM   23  H   UNK N   1      38.059  15.418  11.169  0.00  0.00     0.150 HD
ENDBRANCH   6  21
ENDBRANCH   3   6
ENDBRANCH   1   2
BRANCH   1  24
HETATM   24  C   UNK N   1      35.623  11.790  14.337  0.00  0.00     0.188 C 
HETATM   25  C   UNK N   1      36.995  12.326  14.756  0.00  0.00     0.182 C 
HETATM   26  C   UNK N   1      36.663  13.738  15.075  0.00  0.00     0.198 C 
HETATM   27  C   UNK N   1      35.289  13.553  15.720  0.00  0.00     0.263 C 
HETATM   28  O   UNK N   1      34.638  12.701  14.813  0.00  0.00    -0.353 OA
BRANCH  25  29
HETATM   29  O   UNK N   1      37.991  12.210  13.786  0.00  0.00    -0.390 OA
HETATM   30  H   UNK N   1      38.230  11.534  13.133  0.00  0.00     0.210 HD
ENDBRANCH  25  29
BRANCH  26  31
HETATM   31  O   UNK N   1      37.616  14.358  15.885  0.00  0.00    -0.388 OA
HETATM   32  H   UNK N   1      38.314  13.838  16.314  0.00  0.00     0.210 HD
ENDBRANCH  26  31
BRANCH  27  33
HETATM   33  N   UNK N   1      35.283  12.907  17.059  0.00  0.00    -0.280 N 
HETATM   34  C   UNK N   1      35.180  11.548  17.145  0.00  0.00     0.104 A 
HETATM   35  C   UNK N   1      35.146  10.907  18.378  0.00  0.00     0.092 A 
HETATM   36  C   UNK N   1      35.238  11.669  19.535  0.00  0.00     0.250 A 
HETATM   37  O   UNK N   1      35.199  11.132  20.626  0.00  0.00    -0.268 OA
HETATM   38  N   UNK N   1      35.377  13.022  19.447  0.00  0.00    -0.275 N 
HETATM   39  C   UNK N   1      35.408  13.647  18.235  0.00  0.00     0.331 A 
HETATM   40  H   UNK N   1      35.456  13.556  20.270  0.00  0.00     0.173 HD
HETATM   41  O   UNK N   1      35.558  14.859  18.206  0.00  0.00    -0.246 OA
ENDBRANCH  27  33
ENDBRANCH   1  24
BRANCH   1  42
HETATM   42  C   UNK N   1      34.104  10.805  12.686  0.00  0.00     0.166 C 
HETATM   43  O   UNK N   1      33.782  10.354  11.596  0.00  0.00    -0.648 OA
BRANCH  42  44
HETATM   44  O   UNK N   1      33.290  10.633  13.743  0.00  0.00    -0.775 OA
HETATM   45  H   UNK N   1      33.329  10.357  14.637  0.00  0.00     0.167 HD
ENDBRANCH  42  44
ENDBRANCH   1  42
TORSDOF 14
ENDMDL
MODEL 2
REMARK VINA RESULT:      -7.6      1.969      2.674
REMARK  14 active torsions:
REMARK  status: ('A' for Active; 'I' for Inactive)
REMARK    1  A    between atoms: C_2  and  C_3 
REMARK    2  A    between atoms: C_2  and  C_13 
REMARK    3  A    between atoms: C_3  and  C_4 
REMARK    4  A    between atoms: C_3  and  O_12 
REMARK    5  A    between atoms: C_7  and  O_11 
REMARK    6  A    between atoms: C_13  and  C_14 
REMARK    7  A    between atoms: C_13  and  N_36 
REMARK       I    between atoms: C_14  and  N_16 
REMARK    8  A    between atoms: C_17  and  N_16 
REMARK    9  A    between atoms: C_18  and  C_17 
REMARK   10  A    between atoms: C_17  and  C_33 
REMARK   11  A    between atoms: C_19  and  O_32 
REMARK   12  A    between atoms: C_20  and  O_31 
REMARK   13  A    between atoms: C_21  and  N_23 
REMARK   14  A    between atoms: C_33  and  O_35 
ROOT
HETATM    1  C   UNK N   1      35.318  12.558  10.861  0.00  0.00     0.214 C 
ENDROOT
BRANCH   1   2
HETATM    2  N   UNK N   1      34.558  13.782  10.755  0.00  0.00    -0.343 N 
HETATM    3  C   UNK N   1      34.876  14.763   9.887  0.00  0.00     0.241 C 
HETATM    4  O   UNK N   1      35.754  14.598   9.052  0.00  0.00    -0.271 OA
HETATM    5  H   UNK N   1      33.776  13.904  11.341  0.00  0.00     0.163 HD
BRANCH   3   6
HETATM    6  C   UNK N   1      34.124  16.060   9.940  0.00  0.00     0.173 C 
BRANCH   6   7
HETATM    7  C   UNK N   1      33.465  16.383   8.606  0.00  0.00     0.048 C 
HETATM    8  C   UNK N   1      33.467  17.900   8.437  0.00  0.00     0.015 C 
BRANCH   7   9
HETATM    9  C   UNK N   1      32.082  15.698   8.504  0.00  0.00     0.174 C 
BRANCH   9  10
HETATM   10  C   UNK N   1      30.906  16.628   8.552  0.00  0.00     0.038 A 
HETATM   11  C   UNK N   1      30.290  17.018   7.355  0.00  0.00     0.030 A 
HETATM   12  C   UNK N   1      29.171  17.844   7.397  0.00  0.00     0.040 A 
HETATM   13  C   UNK N   1      28.682  18.275   8.628  0.00  0.00     0.081 A 
HETATM   14  C   UNK N   1      29.335  17.891   9.802  0.00  0.00     0.124 A 
HETATM   15  N   UNK N   1      30.428  17.083   9.742  0.00  0.00    -0.364 N 
ATOM     16  HN  UNK N   1      30.899  16.813  10.606  1.00  0.00     0.165 HD
BRANCH  13  17
HETATM   17  O   UNK N   1      27.591  19.053   8.684  0.00  0.00    -0.359 OA
HETATM   18  H   UNK N   1      27.280  19.388   9.502  0.00  0.00     0.217 HD
ENDBRANCH  13  17
ENDBRANCH   9  10
BRANCH   9  19
HETATM   19  O   UNK N   1      32.050  14.863   7.386  0.00  0.00    -0.389 OA
HETATM   20  H   UNK N   1      31.210  14.688   6.935  0.00  0.00     0.210 HD
ENDBRANCH   9  19
ENDBRANCH   7   9
ENDBRANCH   6   7
BRANCH   6  21
HETATM   21  N   UNK N   1      34.985  17.139  10.395  0.00  0.00    -0.418 N 
HETATM   22  H   UNK N   1      34.575  18.016  10.717  0.00  0.00     0.150 HD
HETATM   23  H   UNK N   1      35.998  17.019  10.392  0.00  0.00     0.150 HD
ENDBRANCH   6  21
ENDBRANCH   3   6
ENDBRANCH   1   2
BRANCH   1  24
HETATM   24  C   UNK N   1      35.505  12.242  12.344  0.00  0.00     0.188 C 
HETATM   25  C   UNK N   1      36.822  12.681  12.990  0.00  0.00     0.182 C 
HETATM   26  C   UNK N   1      36.378  13.869  13.763  0.00  0.00     0.198 C 
HETATM   27  C   UNK N   1      35.006  13.386  14.234  0.00  0.00     0.263 C 
HETATM   28  O   UNK N   1      34.443  12.867  13.056  0.00  0.00    -0.353 OA
BRANCH  25  29
HETATM   29  O   UNK N   1      37.849  12.972  12.091  0.00  0.00    -0.390 OA
HETATM   30  H   UNK N   1      38.389  13.756  11.906  0.00  0.00     0.210 HD
ENDBRANCH  25  29
BRANCH  26  31
HETATM   31  O   UNK N   1      37.262  14.223  14.783  0.00  0.00    -0.388 OA
HETATM   32  H   UNK N   1      36.934  14.623  15.605  0.00  0.00     0.210 HD
ENDBRANCH  26  31
BRANCH  27  33
HETATM   33  N   UNK N   1      35.015  12.313  15.263  0.00  0.00    -0.280 N 
HETATM   34  C   UNK N   1      34.759  11.026  14.889  0.00  0.00     0.104 A 
HETATM   35  C   UNK N   1      34.733   9.997  15.824  0.00  0.00     0.092 A 
HETATM   36  C   UNK N   1      34.992  10.292  17.155  0.00  0.00     0.250 A 
HETATM   37  O   UNK N   1      34.964   9.411  17.994  0.00  0.00    -0.268 OA
HETATM   38  N   UNK N   1      35.283  11.572  17.523  0.00  0.00    -0.275 N 
HETATM   39  C   UNK N   1      35.305  12.578  16.602  0.00  0.00     0.331 A 
HETATM   40  H   UNK N   1      35.480  11.773  18.466  0.00  0.00     0.173 HD
HETATM   41  O   UNK N   1      35.594  13.705  16.975  0.00  0.00    -0.246 OA
ENDBRANCH  27  33
ENDBRANCH   1  24
BRANCH   1  42
HETATM   42  C   UNK N   1      34.543  11.425  10.243  0.00  0.00     0.166 C 
HETATM   43  O   UNK N   1      34.763  11.078   9.092  0.00  0.00    -0.648 OA
BRANCH  42  44
HETATM   44  O   UNK N   1      33.576  10.811  10.949  0.00  0.00    -0.775 OA
HETATM   45  H   UNK N   1      33.333  10.654  11.839  0.00  0.00     0.167 HD
ENDBRANCH  42  44
ENDBRANCH   1  42
TORSDOF 14
ENDMDL
MODEL 3
REMARK VINA RESULT:      -7.5      5.634      8.048
REMARK  14 active torsions:
REMARK  status: ('A' for Active; 'I' for Inactive)
REMARK    1  A    between atoms: C_2  and  C_3 
REMARK    2  A    between atoms: C_2  and  C_13 
REMARK    3  A    between atoms: C_3  and  C_4 
REMARK    4  A    between atoms: C_3  and  O_12 
REMARK    5  A    between atoms: C_7  and  O_11 
REMARK    6  A    between atoms: C_13  and  C_14 
REMARK    7  A    between atoms: C_13  and  N_36 
REMARK       I    between atoms: C_14  and  N_16 
REMARK    8  A    between atoms: C_17  and  N_16 
REMARK    9  A    between atoms: C_18  and  C_17 
REMARK   10  A    between atoms: C_17  and  C_33 
REMARK   11  A    between atoms: C_19  and  O_32 
REMARK   12  A    between atoms: C_20  and  O_31 
REMARK   13  A    between atoms: C_21  and  N_23 
REMARK   14  A    between atoms: C_33  and  O_35 
ROOT
HETATM    1  C   UNK N   1      33.342  17.274   8.749  0.00  0.00     0.214 C 
ENDROOT
BRANCH   1   2
HETATM    2  N   UNK N   1      32.101  16.961   8.078  0.00  0.00    -0.343 N 
HETATM    3  C   UNK N   1      30.955  17.627   8.322  0.00  0.00     0.241 C 
HETATM    4  O   UNK N   1      30.949  18.621   9.035  0.00  0.00    -0.271 OA
HETATM    5  H   UNK N   1      32.094  16.233   7.416  0.00  0.00     0.163 HD
BRANCH   3   6
HETATM    6  C   UNK N   1      29.681  17.147   7.691  0.00  0.00     0.173 C 
BRANCH   6   7
HETATM    7  C   UNK N   1      29.391  17.875   6.386  0.00  0.00     0.048 C 
HETATM    8  C   UNK N   1      28.247  18.853   6.638  0.00  0.00     0.015 C 
BRANCH   7   9
HETATM    9  C   UNK N   1      29.168  16.862   5.238  0.00  0.00     0.174 C 
BRANCH   9  10
HETATM   10  C   UNK N   1      30.388  16.537   4.430  0.00  0.00     0.038 A 
HETATM   11  C   UNK N   1      31.384  17.511   4.268  0.00  0.00     0.030 A 
HETATM   12  C   UNK N   1      32.540  17.199   3.558  0.00  0.00     0.040 A 
HETATM   13  C   UNK N   1      32.687  15.926   3.012  0.00  0.00     0.081 A 
HETATM   14  C   UNK N   1      31.665  14.986   3.168  0.00  0.00     0.124 A 
HETATM   15  N   UNK N   1      30.542  15.308   3.866  0.00  0.00    -0.364 N 
ATOM     16  HN  UNK N   1      29.801  14.615   3.968  1.00  0.00     0.165 HD
BRANCH  13  17
HETATM   17  O   UNK N   1      33.805  15.605   2.344  0.00  0.00    -0.359 OA
HETATM   18  H   UNK N   1      34.301  16.259   1.892  0.00  0.00     0.217 HD
ENDBRANCH  13  17
ENDBRANCH   9  10
BRANCH   9  19
HETATM   19  O   UNK N   1      28.542  15.717   5.734  0.00  0.00    -0.389 OA
HETATM   20  H   UNK N   1      28.495  14.916   5.190  0.00  0.00     0.210 HD
ENDBRANCH   9  19
ENDBRANCH   7   9
ENDBRANCH   6   7
BRANCH   6  21
HETATM   21  N   UNK N   1      28.571  17.245   8.625  0.00  0.00    -0.418 N 
HETATM   22  H   UNK N   1      27.623  17.035   8.313  0.00  0.00     0.150 HD
HETATM   23  H   UNK N   1      28.741  17.523   9.592  0.00  0.00     0.150 HD
ENDBRANCH   6  21
ENDBRANCH   3   6
ENDBRANCH   1   2
BRANCH   1  24
HETATM   24  C   UNK N   1      34.095  15.967   8.988  0.00  0.00     0.188 C 
HETATM   25  C   UNK N   1      33.351  14.858   9.737  0.00  0.00     0.182 C 
HETATM   26  C   UNK N   1      33.016  13.936   8.622  0.00  0.00     0.198 C 
HETATM   27  C   UNK N   1      34.286  14.060   7.780  0.00  0.00     0.263 C 
HETATM   28  O   UNK N   1      34.478  15.450   7.717  0.00  0.00    -0.353 OA
BRANCH  25  29
HETATM   29  O   UNK N   1      32.226  15.283  10.445  0.00  0.00    -0.390 OA
HETATM   30  H   UNK N   1      32.009  16.067  10.973  0.00  0.00     0.210 HD
ENDBRANCH  25  29
BRANCH  26  31
HETATM   31  O   UNK N   1      32.716  12.642   9.050  0.00  0.00    -0.388 OA
HETATM   32  H   UNK N   1      32.202  12.496   9.860  0.00  0.00     0.210 HD
ENDBRANCH  26  31
BRANCH  27  33
HETATM   33  N   UNK N   1      35.509  13.442   8.357  0.00  0.00    -0.280 N 
HETATM   34  C   UNK N   1      36.422  14.234   8.992  0.00  0.00     0.104 A 
HETATM   35  C   UNK N   1      37.590  13.700   9.523  0.00  0.00     0.092 A 
HETATM   36  C   UNK N   1      37.814  12.334   9.417  0.00  0.00     0.250 A 
HETATM   37  O   UNK N   1      38.834  11.845   9.865  0.00  0.00    -0.268 OA
HETATM   38  N   UNK N   1      36.885  11.539   8.815  0.00  0.00    -0.275 N 
HETATM   39  C   UNK N   1      35.741  12.068   8.293  0.00  0.00     0.331 A 
HETATM   40  H   UNK N   1      37.043  10.569   8.755  0.00  0.00     0.173 HD
HETATM   41  O   UNK N   1      34.928  11.312   7.784  0.00  0.00    -0.246 OA
ENDBRANCH  27  33
ENDBRANCH   1  24
BRANCH   1  42
HETATM   42  C   UNK N   1      34.194  18.141   7.862  0.00  0.00     0.166 C 
HETATM   43  O   UNK N   1      34.855  19.053   8.335  0.00  0.00    -0.648 OA
BRANCH  42  44
HETATM   44  O   UNK N   1      34.202  17.935   6.532  0.00  0.00    -0.775 OA
HETATM   45  H   UNK N   1      34.196  18.424   5.734  0.00  0.00     0.167 HD
ENDBRANCH  42  44
ENDBRANCH   1  42
TORSDOF 14
ENDMDL
MODEL 4
REMARK VINA RESULT:      -7.4      4.743      7.921
REMARK  14 active torsions:
REMARK  status: ('A' for Active; 'I' for Inactive)
REMARK    1  A    between atoms: C_2  and  C_3 
REMARK    2  A    between atoms: C_2  and  C_13 
REMARK    3  A    between atoms: C_3  and  C_4 
REMARK    4  A    between atoms: C_3  and  O_12 
REMARK    5  A    between atoms: C_7  and  O_11 
REMARK    6  A    between atoms: C_13  and  C_14 
REMARK    7  A    between atoms: C_13  and  N_36 
REMARK       I    between atoms: C_14  and  N_16 
REMARK    8  A    between atoms: C_17  and  N_16 
REMARK    9  A    between atoms: C_18  and  C_17 
REMARK   10  A    between atoms: C_17  and  C_33 
REMARK   11  A    between atoms: C_19  and  O_32 
REMARK   12  A    between atoms: C_20  and  O_31 
REMARK   13  A    between atoms: C_21  and  N_23 
REMARK   14  A    between atoms: C_33  and  O_35 
ROOT
HETATM    1  C   UNK N   1      33.027  16.955   8.080  0.00  0.00     0.214 C 
ENDROOT
BRANCH   1   2
HETATM    2  N   UNK N   1      32.340  16.430   6.923  0.00  0.00    -0.343 N 
HETATM    3  C   UNK N   1      30.996  16.395   6.829  0.00  0.00     0.241 C 
HETATM    4  O   UNK N   1      30.296  16.933   7.675  0.00  0.00    -0.271 OA
HETATM    5  H   UNK N   1      32.876  16.084   6.173  0.00  0.00     0.163 HD
BRANCH   3   6
HETATM    6  C   UNK N   1      30.362  15.702   5.659  0.00  0.00     0.173 C 
BRANCH   6   7
HETATM    7  C   UNK N   1      28.878  16.030   5.549  0.00  0.00     0.048 C 
HETATM    8  C   UNK N   1      28.127  14.724   5.308  0.00  0.00     0.015 C 
BRANCH   7   9
HETATM    9  C   UNK N   1      28.645  17.142   4.500  0.00  0.00     0.174 C 
BRANCH   9  10
HETATM   10  C   UNK N   1      28.113  18.432   5.048  0.00  0.00     0.038 A 
HETATM   11  C   UNK N   1      27.546  19.369   4.173  0.00  0.00     0.030 A 
HETATM   12  C   UNK N   1      27.009  20.547   4.682  0.00  0.00     0.040 A 
HETATM   13  C   UNK N   1      27.047  20.782   6.055  0.00  0.00     0.081 A 
HETATM   14  C   UNK N   1      27.644  19.840   6.898  0.00  0.00     0.124 A 
HETATM   15  N   UNK N   1      28.164  18.694   6.383  0.00  0.00    -0.364 N 
ATOM     16  HN  UNK N   1      28.600  18.017   7.009  1.00  0.00     0.165 HD
BRANCH  13  17
HETATM   17  O   UNK N   1      26.514  21.903   6.562  0.00  0.00    -0.359 OA
HETATM   18  H   UNK N   1      25.667  22.198   6.291  0.00  0.00     0.217 HD
ENDBRANCH  13  17
ENDBRANCH   9  10
BRANCH   9  19
HETATM   19  O   UNK N   1      29.804  17.328   3.744  0.00  0.00    -0.389 OA
HETATM   20  H   UNK N   1      30.464  16.620   3.686  0.00  0.00     0.210 HD
ENDBRANCH   9  19
ENDBRANCH   7   9
ENDBRANCH   6   7
BRANCH   6  21
HETATM   21  N   UNK N   1      30.597  14.269   5.716  0.00  0.00    -0.418 N 
HETATM   22  H   UNK N   1      30.707  13.806   6.618  0.00  0.00     0.150 HD
HETATM   23  H   UNK N   1      30.652  13.726   4.853  0.00  0.00     0.150 HD
ENDBRANCH   6  21
ENDBRANCH   3   6
ENDBRANCH   1   2
BRANCH   1  24
HETATM   24  C   UNK N   1      33.745  15.798   8.772  0.00  0.00     0.188 C 
HETATM   25  C   UNK N   1      32.893  14.861   9.632  0.00  0.00     0.182 C 
HETATM   26  C   UNK N   1      32.793  13.674   8.744  0.00  0.00     0.198 C 
HETATM   27  C   UNK N   1      34.197  13.671   8.140  0.00  0.00     0.263 C 
HETATM   28  O   UNK N   1      34.371  15.013   7.763  0.00  0.00    -0.353 OA
BRANCH  25  29
HETATM   29  O   UNK N   1      31.646  15.371   9.996  0.00  0.00    -0.390 OA
HETATM   30  H   UNK N   1      31.347  16.153  10.486  0.00  0.00     0.210 HD
ENDBRANCH  25  29
BRANCH  26  31
HETATM   31  O   UNK N   1      32.440  12.508   9.424  0.00  0.00    -0.388 OA
HETATM   32  H   UNK N   1      32.169  12.540  10.356  0.00  0.00     0.210 HD
ENDBRANCH  26  31
BRANCH  27  33
HETATM   33  N   UNK N   1      35.299  13.295   9.064  0.00  0.00    -0.280 N 
HETATM   34  C   UNK N   1      36.081  14.274   9.606  0.00  0.00     0.104 A 
HETATM   35  C   UNK N   1      37.137  13.963  10.455  0.00  0.00     0.092 A 
HETATM   36  C   UNK N   1      37.382  12.632  10.764  0.00  0.00     0.250 A 
HETATM   37  O   UNK N   1      38.306  12.334  11.495  0.00  0.00    -0.268 OA
HETATM   38  N   UNK N   1      36.578  11.657  10.251  0.00  0.00    -0.275 N 
HETATM   39  C   UNK N   1      35.545  11.967   9.417  0.00  0.00     0.331 A 
HETATM   40  H   UNK N   1      36.748  10.716  10.485  0.00  0.00     0.173 HD
HETATM   41  O   UNK N   1      34.839  11.062   9.001  0.00  0.00    -0.246 OA
ENDBRANCH  27  33
ENDBRANCH   1  24
BRANCH   1  42
HETATM   42  C   UNK N   1      34.069  17.949   7.642  0.00  0.00     0.166 C 
HETATM   43  O   UNK N   1      34.372  18.053   6.463  0.00  0.00    -0.648 OA
BRANCH  42  44
HETATM   44  O   UNK N   1      34.700  18.706   8.559  0.00  0.00    -0.775 OA
HETATM   45  H   UNK N   1      34.570  19.032   9.427  0.00  0.00     0.167 HD
ENDBRANCH  42  44
ENDBRANCH   1  42
TORSDOF 14
ENDMDL
MODEL 5
REMARK VINA RESULT:      -7.4      5.357      8.617
REMARK  14 active torsions:
REMARK  status: ('A' for Active; 'I' for Inactive)
REMARK    1  A    between atoms: C_2  and  C_3 
REMARK    2  A    between atoms: C_2  and  C_13 
REMARK    3  A    between atoms: C_3  and  C_4 
REMARK    4  A    between atoms: C_3  and  O_12 
REMARK    5  A    between atoms: C_7  and  O_11 
REMARK    6  A    between atoms: C_13  and  C_14 
REMARK    7  A    between atoms: C_13  and  N_36 
REMARK       I    between atoms: C_14  and  N_16 
REMARK    8  A    between atoms: C_17  and  N_16 
REMARK    9  A    between atoms: C_18  and  C_17 
REMARK   10  A    between atoms: C_17  and  C_33 
REMARK   11  A    between atoms: C_19  and  O_32 
REMARK   12  A    between atoms: C_20  and  O_31 
REMARK   13  A    between atoms: C_21  and  N_23 
REMARK   14  A    between atoms: C_33  and  O_35 
ROOT
HETATM    1  C   UNK N   1      32.375  15.373   5.702  0.00  0.00     0.214 C 
ENDROOT
BRANCH   1   2
HETATM    2  N   UNK N   1      31.152  15.652   6.418  0.00  0.00    -0.343 N 
HETATM    3  C   UNK N   1      30.477  16.811   6.282  0.00  0.00     0.241 C 
HETATM    4  O   UNK N   1      30.808  17.631   5.438  0.00  0.00    -0.271 OA
HETATM    5  H   UNK N   1      30.797  14.966   7.030  0.00  0.00     0.163 HD
BRANCH   3   6
HETATM    6  C   UNK N   1      29.296  17.079   7.168  0.00  0.00     0.173 C 
BRANCH   6   7
HETATM    7  C   UNK N   1      28.428  18.205   6.623  0.00  0.00     0.048 C 
HETATM    8  C   UNK N   1      28.226  19.224   7.740  0.00  0.00     0.015 C 
BRANCH   7   9
HETATM    9  C   UNK N   1      27.136  17.636   5.991  0.00  0.00     0.174 C 
BRANCH   9  10
HETATM   10  C   UNK N   1      26.431  18.559   5.043  0.00  0.00     0.038 A 
HETATM   11  C   UNK N   1      27.186  19.427   4.241  0.00  0.00     0.030 A 
HETATM   12  C   UNK N   1      26.539  20.253   3.327  0.00  0.00     0.040 A 
HETATM   13  C   UNK N   1      25.150  20.210   3.225  0.00  0.00     0.081 A 
HETATM   14  C   UNK N   1      24.425  19.354   4.058  0.00  0.00     0.124 A 
HETATM   15  N   UNK N   1      25.074  18.553   4.946  0.00  0.00    -0.364 N 
ATOM     16  HN  UNK N   1      24.532  17.935   5.551  1.00  0.00     0.165 HD
BRANCH  13  17
HETATM   17  O   UNK N   1      24.516  20.985   2.334  0.00  0.00    -0.359 OA
HETATM   18  H   UNK N   1      24.768  20.986   1.431  0.00  0.00     0.217 HD
ENDBRANCH  13  17
ENDBRANCH   9  10
BRANCH   9  19
HETATM   19  O   UNK N   1      27.400  16.391   5.417  0.00  0.00    -0.389 OA
HETATM   20  H   UNK N   1      28.059  15.802   5.817  0.00  0.00     0.210 HD
ENDBRANCH   9  19
ENDBRANCH   7   9
ENDBRANCH   6   7
BRANCH   6  21
HETATM   21  N   UNK N   1      29.722  17.336   8.534  0.00  0.00    -0.418 N 
HETATM   22  H   UNK N   1      29.702  18.287   8.903  0.00  0.00     0.150 HD
HETATM   23  H   UNK N   1      30.039  16.566   9.124  0.00  0.00     0.150 HD
ENDBRANCH   6  21
ENDBRANCH   3   6
ENDBRANCH   1   2
BRANCH   1  24
HETATM   24  C   UNK N   1      33.536  15.474   6.689  0.00  0.00     0.188 C 
HETATM   25  C   UNK N   1      34.255  16.822   6.787  0.00  0.00     0.182 C 
HETATM   26  C   UNK N   1      33.713  17.342   8.068  0.00  0.00     0.198 C 
HETATM   27  C   UNK N   1      33.649  16.046   8.878  0.00  0.00     0.263 C 
HETATM   28  O   UNK N   1      33.033  15.156   7.982  0.00  0.00    -0.353 OA
BRANCH  25  29
HETATM   29  O   UNK N   1      34.030  17.686   5.714  0.00  0.00    -0.390 OA
HETATM   30  H   UNK N   1      33.451  17.668   4.936  0.00  0.00     0.210 HD
ENDBRANCH  25  29
BRANCH  26  31
HETATM   31  O   UNK N   1      34.498  18.350   8.629  0.00  0.00    -0.388 OA
HETATM   32  H   UNK N   1      34.882  19.046   8.072  0.00  0.00     0.210 HD
ENDBRANCH  26  31
BRANCH  27  33
HETATM   33  N   UNK N   1      34.957  15.472   9.287  0.00  0.00    -0.280 N 
HETATM   34  C   UNK N   1      35.479  14.428   8.580  0.00  0.00     0.104 A 
HETATM   35  C   UNK N   1      36.689  13.846   8.945  0.00  0.00     0.092 A 
HETATM   36  C   UNK N   1      37.377  14.355  10.037  0.00  0.00     0.250 A 
HETATM   37  O   UNK N   1      38.431  13.857  10.383  0.00  0.00    -0.268 OA
HETATM   38  N   UNK N   1      36.873  15.422  10.721  0.00  0.00    -0.275 N 
HETATM   39  C   UNK N   1      35.685  15.987  10.360  0.00  0.00     0.331 A 
HETATM   40  H   UNK N   1      37.373  15.787  11.486  0.00  0.00     0.173 HD
HETATM   41  O   UNK N   1      35.285  16.955  10.989  0.00  0.00    -0.246 OA
ENDBRANCH  27  33
ENDBRANCH   1  24
BRANCH   1  42
HETATM   42  C   UNK N   1      32.342  13.965   5.171  0.00  0.00     0.166 C 
HETATM   43  O   UNK N   1      33.174  13.589   4.358  0.00  0.00    -0.648 OA
BRANCH  42  44
HETATM   44  O   UNK N   1      31.370  13.123   5.566  0.00  0.00    -0.775 OA
HETATM   45  H   UNK N   1      30.784  12.489   5.204  0.00  0.00     0.167 HD
ENDBRANCH  42  44
ENDBRANCH   1  42
TORSDOF 14
ENDMDL
MODEL 6
REMARK VINA RESULT:      -7.3      2.758      9.761
REMARK  14 active torsions:
REMARK  status: ('A' for Active; 'I' for Inactive)
REMARK    1  A    between atoms: C_2  and  C_3 
REMARK    2  A    between atoms: C_2  and  C_13 
REMARK    3  A    between atoms: C_3  and  C_4 
REMARK    4  A    between atoms: C_3  and  O_12 
REMARK    5  A    between atoms: C_7  and  O_11 
REMARK    6  A    between atoms: C_13  and  C_14 
REMARK    7  A    between atoms: C_13  and  N_36 
REMARK       I    between atoms: C_14  and  N_16 
REMARK    8  A    between atoms: C_17  and  N_16 
REMARK    9  A    between atoms: C_18  and  C_17 
REMARK   10  A    between atoms: C_17  and  C_33 
REMARK   11  A    between atoms: C_19  and  O_32 
REMARK   12  A    between atoms: C_20  and  O_31 
REMARK   13  A    between atoms: C_21  and  N_23 
REMARK   14  A    between atoms: C_33  and  O_35 
ROOT
HETATM    1  C   UNK N   1      34.301  16.203   8.791  0.00  0.00     0.214 C 
ENDROOT
BRANCH   1   2
HETATM    2  N   UNK N   1      33.899  14.989   9.460  0.00  0.00    -0.343 N 
HETATM    3  C   UNK N   1      34.594  13.838   9.361  0.00  0.00     0.241 C 
HETATM    4  O   UNK N   1      35.679  13.810   8.797  0.00  0.00    -0.271 OA
HETATM    5  H   UNK N   1      33.084  15.003  10.013  0.00  0.00     0.163 HD
BRANCH   3   6
HETATM    6  C   UNK N   1      34.031  12.588   9.969  0.00  0.00     0.173 C 
BRANCH   6   7
HETATM    7  C   UNK N   1      35.124  11.574  10.283  0.00  0.00     0.048 C 
HETATM    8  C   UNK N   1      35.084  10.494   9.205  0.00  0.00     0.015 C 
BRANCH   7   9
HETATM    9  C   UNK N   1      34.996  11.073  11.740  0.00  0.00     0.174 C 
BRANCH   9  10
HETATM   10  C   UNK N   1      35.639  11.950  12.773  0.00  0.00     0.038 A 
HETATM   11  C   UNK N   1      36.502  11.380  13.718  0.00  0.00     0.030 A 
HETATM   12  C   UNK N   1      37.137  12.196  14.649  0.00  0.00     0.040 A 
HETATM   13  C   UNK N   1      36.899  13.569  14.633  0.00  0.00     0.081 A 
HETATM   14  C   UNK N   1      36.012  14.104  13.695  0.00  0.00     0.124 A 
HETATM   15  N   UNK N   1      35.401  13.290  12.792  0.00  0.00    -0.364 N 
ATOM     16  HN  UNK N   1      34.751  13.693  12.116  1.00  0.00     0.165 HD
BRANCH  13  17
HETATM   17  O   UNK N   1      37.521  14.370  15.510  0.00  0.00    -0.359 OA
HETATM   18  H   UNK N   1      37.038  14.985  16.027  0.00  0.00     0.217 HD
ENDBRANCH  13  17
ENDBRANCH   9  10
BRANCH   9  19
HETATM   19  O   UNK N   1      33.658  10.806  12.033  0.00  0.00    -0.389 OA
HETATM   20  H   UNK N   1      32.963  11.405  11.717  0.00  0.00     0.210 HD
ENDBRANCH   9  19
ENDBRANCH   7   9
ENDBRANCH   6   7
BRANCH   6  21
HETATM   21  N   UNK N   1      32.994  12.022   9.122  0.00  0.00    -0.418 N 
HETATM   22  H   UNK N   1      33.138  11.116   8.677  0.00  0.00     0.150 HD
HETATM   23  H   UNK N   1      32.121  12.530   8.975  0.00  0.00     0.150 HD
ENDBRANCH   6  21
ENDBRANCH   3   6
ENDBRANCH   1   2
BRANCH   1  24
HETATM   24  C   UNK N   1      33.051  16.866   8.217  0.00  0.00     0.188 C 
HETATM   25  C   UNK N   1      33.192  17.572   6.865  0.00  0.00     0.182 C 
HETATM   26  C   UNK N   1      32.537  16.591   5.963  0.00  0.00     0.198 C 
HETATM   27  C   UNK N   1      31.397  16.115   6.864  0.00  0.00     0.263 C 
HETATM   28  O   UNK N   1      32.053  15.860   8.079  0.00  0.00    -0.353 OA
BRANCH  25  29
HETATM   29  O   UNK N   1      34.504  17.861   6.489  0.00  0.00    -0.390 OA
HETATM   30  H   UNK N   1      34.926  18.575   5.985  0.00  0.00     0.210 HD
ENDBRANCH  25  29
BRANCH  26  31
HETATM   31  O   UNK N   1      32.136  17.145   4.746  0.00  0.00    -0.388 OA
HETATM   32  H   UNK N   1      32.740  17.706   4.235  0.00  0.00     0.210 HD
ENDBRANCH  26  31
BRANCH  27  33
HETATM   33  N   UNK N   1      30.313  17.102   7.113  0.00  0.00    -0.280 N 
HETATM   34  C   UNK N   1      30.248  17.732   8.322  0.00  0.00     0.104 A 
HETATM   35  C   UNK N   1      29.237  18.644   8.604  0.00  0.00     0.092 A 
HETATM   36  C   UNK N   1      28.292  18.924   7.626  0.00  0.00     0.250 A 
HETATM   37  O   UNK N   1      27.391  19.709   7.852  0.00  0.00    -0.268 OA
HETATM   38  N   UNK N   1      28.379  18.321   6.406  0.00  0.00    -0.275 N 
HETATM   39  C   UNK N   1      29.372  17.426   6.135  0.00  0.00     0.331 A 
HETATM   40  H   UNK N   1      27.714  18.534   5.712  0.00  0.00     0.173 HD
HETATM   41  O   UNK N   1      29.422  16.929   5.021  0.00  0.00    -0.246 OA
ENDBRANCH  27  33
ENDBRANCH   1  24
BRANCH   1  42
HETATM   42  C   UNK N   1      34.911  17.153   9.786  0.00  0.00     0.166 C 
HETATM   43  O   UNK N   1      35.402  18.210   9.416  0.00  0.00    -0.648 OA
BRANCH  42  44
HETATM   44  O   UNK N   1      34.948  16.824  11.090  0.00  0.00    -0.775 OA
HETATM   45  H   UNK N   1      35.021  17.235  11.928  0.00  0.00     0.167 HD
ENDBRANCH  42  44
ENDBRANCH   1  42
TORSDOF 14
ENDMDL
MODEL 7
REMARK VINA RESULT:      -7.2      2.130      2.967
REMARK  14 active torsions:
REMARK  status: ('A' for Active; 'I' for Inactive)
REMARK    1  A    between atoms: C_2  and  C_3 
REMARK    2  A    between atoms: C_2  and  C_13 
REMARK    3  A    between atoms: C_3  and  C_4 
REMARK    4  A    between atoms: C_3  and  O_12 
REMARK    5  A    between atoms: C_7  and  O_11 
REMARK    6  A    between atoms: C_13  and  C_14 
REMARK    7  A    between atoms: C_13  and  N_36 
REMARK       I    between atoms: C_14  and  N_16 
REMARK    8  A    between atoms: C_17  and  N_16 
REMARK    9  A    between atoms: C_18  and  C_17 
REMARK   10  A    between atoms: C_17  and  C_33 
REMARK   11  A    between atoms: C_19  and  O_32 
REMARK   12  A    between atoms: C_20  and  O_31 
REMARK   13  A    between atoms: C_21  and  N_23 
REMARK   14  A    between atoms: C_33  and  O_35 
ROOT
HETATM    1  C   UNK N   1      35.204  12.856  10.396  0.00  0.00     0.214 C 
ENDROOT
BRANCH   1   2
HETATM    2  N   UNK N   1      34.565  14.150  10.446  0.00  0.00    -0.343 N 
HETATM    3  C   UNK N   1      34.833  15.129   9.558  0.00  0.00     0.241 C 
HETATM    4  O   UNK N   1      35.541  14.912   8.585  0.00  0.00    -0.271 OA
HETATM    5  H   UNK N   1      33.906  14.324  11.157  0.00  0.00     0.163 HD
BRANCH   3   6
HETATM    6  C   UNK N   1      34.236  16.489   9.765  0.00  0.00     0.173 C 
BRANCH   6   7
HETATM    7  C   UNK N   1      33.837  17.135   8.445  0.00  0.00     0.048 C 
HETATM    8  C   UNK N   1      34.678  18.396   8.267  0.00  0.00     0.015 C 
BRANCH   7   9
HETATM    9  C   UNK N   1      32.305  17.335   8.380  0.00  0.00     0.174 C 
BRANCH   9  10
HETATM   10  C   UNK N   1      31.710  17.248   7.006  0.00  0.00     0.038 A 
HETATM   11  C   UNK N   1      30.317  17.180   6.864  0.00  0.00     0.030 A 
HETATM   12  C   UNK N   1      29.758  17.146   5.591  0.00  0.00     0.040 A 
HETATM   13  C   UNK N   1      30.591  17.175   4.474  0.00  0.00     0.081 A 
HETATM   14  C   UNK N   1      31.977  17.217   4.650  0.00  0.00     0.124 A 
HETATM   15  N   UNK N   1      32.506  17.249   5.902  0.00  0.00    -0.364 N 
ATOM     16  HN  UNK N   1      33.519  17.274   6.017  1.00  0.00     0.165 HD
BRANCH  13  17
HETATM   17  O   UNK N   1      30.065  17.165   3.241  0.00  0.00    -0.359 OA
HETATM   18  H   UNK N   1      29.813  17.963   2.818  0.00  0.00     0.217 HD
ENDBRANCH  13  17
ENDBRANCH   9  10
BRANCH   9  19
HETATM   19  O   UNK N   1      31.678  16.474   9.282  0.00  0.00    -0.389 OA
HETATM   20  H   UNK N   1      30.723  16.542   9.434  0.00  0.00     0.210 HD
ENDBRANCH   9  19
ENDBRANCH   7   9
ENDBRANCH   6   7
BRANCH   6  21
HETATM   21  N   UNK N   1      35.133  17.337  10.534  0.00  0.00    -0.418 N 
HETATM   22  H   UNK N   1      35.324  18.289  10.224  0.00  0.00     0.150 HD
HETATM   23  H   UNK N   1      35.569  16.979  11.384  0.00  0.00     0.150 HD
ENDBRANCH   6  21
ENDBRANCH   3   6
ENDBRANCH   1   2
BRANCH   1  24
HETATM   24  C   UNK N   1      35.612  12.472  11.817  0.00  0.00     0.188 C 
HETATM   25  C   UNK N   1      36.848  13.163  12.399  0.00  0.00     0.182 C 
HETATM   26  C   UNK N   1      36.219  14.138  13.326  0.00  0.00     0.198 C 
HETATM   27  C   UNK N   1      35.055  13.298  13.852  0.00  0.00     0.263 C 
HETATM   28  O   UNK N   1      34.511  12.758  12.675  0.00  0.00    -0.353 OA
BRANCH  25  29
HETATM   29  O   UNK N   1      37.679  13.770  11.457  0.00  0.00    -0.390 OA
HETATM   30  H   UNK N   1      37.695  13.808  10.488  0.00  0.00     0.210 HD
ENDBRANCH  25  29
BRANCH  26  31
HETATM   31  O   UNK N   1      37.095  14.610  14.305  0.00  0.00    -0.388 OA
HETATM   32  H   UNK N   1      37.109  15.551  14.544  0.00  0.00     0.210 HD
ENDBRANCH  26  31
BRANCH  27  33
HETATM   33  N   UNK N   1      35.422  12.178  14.757  0.00  0.00    -0.280 N 
HETATM   34  C   UNK N   1      35.490  10.909  14.258  0.00  0.00     0.104 A 
HETATM   35  C   UNK N   1      35.805   9.830  15.076  0.00  0.00     0.092 A 
HETATM   36  C   UNK N   1      36.070  10.060  16.419  0.00  0.00     0.250 A 
HETATM   37  O   UNK N   1      36.337   9.131  17.158  0.00  0.00    -0.268 OA
HETATM   38  N   UNK N   1      36.037  11.332  16.910  0.00  0.00    -0.275 N 
HETATM   39  C   UNK N   1      35.725  12.386  16.103  0.00  0.00     0.331 A 
HETATM   40  H   UNK N   1      36.240  11.490  17.860  0.00  0.00     0.173 HD
HETATM   41  O   UNK N   1      35.730  13.509  16.583  0.00  0.00    -0.246 OA
ENDBRANCH  27  33
ENDBRANCH   1  24
BRANCH   1  42
HETATM   42  C   UNK N   1      34.223  11.825   9.904  0.00  0.00     0.166 C 
HETATM   43  O   UNK N   1      33.937  11.757   8.718  0.00  0.00    -0.648 OA
BRANCH  42  44
HETATM   44  O   UNK N   1      33.629  10.994  10.780  0.00  0.00    -0.775 OA
HETATM   45  H   UNK N   1      33.458  10.081  10.895  0.00  0.00     0.167 HD
ENDBRANCH  42  44
ENDBRANCH   1  42
TORSDOF 14
ENDMDL
MODEL 8
REMARK VINA RESULT:      -7.1     12.498     16.745
REMARK  14 active torsions:
REMARK  status: ('A' for Active; 'I' for Inactive)
REMARK    1  A    between atoms: C_2  and  C_3 
REMARK    2  A    between atoms: C_2  and  C_13 
REMARK    3  A    between atoms: C_3  and  C_4 
REMARK    4  A    between atoms: C_3  and  O_12 
REMARK    5  A    between atoms: C_7  and  O_11 
REMARK    6  A    between atoms: C_13  and  C_14 
REMARK    7  A    between atoms: C_13  and  N_36 
REMARK       I    between atoms: C_14  and  N_16 
REMARK    8  A    between atoms: C_17  and  N_16 
REMARK    9  A    between atoms: C_18  and  C_17 
REMARK   10  A    between atoms: C_17  and  C_33 
REMARK   11  A    between atoms: C_19  and  O_32 
REMARK   12  A    between atoms: C_20  and  O_31 
REMARK   13  A    between atoms: C_21  and  N_23 
REMARK   14  A    between atoms: C_33  and  O_35 
ROOT
HETATM    1  C   UNK N   1      21.136  19.170   3.446  0.00  0.00     0.214 C 
ENDROOT
BRANCH   1   2
HETATM    2  N   UNK N   1      20.971  17.937   2.713  0.00  0.00    -0.343 N 
HETATM    3  C   UNK N   1      20.062  17.002   3.057  0.00  0.00     0.241 C 
HETATM    4  O   UNK N   1      19.242  17.222   3.937  0.00  0.00    -0.271 OA
HETATM    5  H   UNK N   1      21.544  17.773   1.929  0.00  0.00     0.163 HD
BRANCH   3   6
HETATM    6  C   UNK N   1      20.053  15.689   2.332  0.00  0.00     0.173 C 
BRANCH   6   7
HETATM    7  C   UNK N   1      20.829  14.622   3.093  0.00  0.00     0.048 C 
HETATM    8  C   UNK N   1      21.579  13.770   2.071  0.00  0.00     0.015 C 
BRANCH   7   9
HETATM    9  C   UNK N   1      19.894  13.851   4.053  0.00  0.00     0.174 C 
BRANCH   9  10
HETATM   10  C   UNK N   1      20.236  13.971   5.508  0.00  0.00     0.038 A 
HETATM   11  C   UNK N   1      20.824  12.883   6.167  0.00  0.00     0.030 A 
HETATM   12  C   UNK N   1      21.186  13.005   7.505  0.00  0.00     0.040 A 
HETATM   13  C   UNK N   1      20.953  14.205   8.172  0.00  0.00     0.081 A 
HETATM   14  C   UNK N   1      20.341  15.263   7.494  0.00  0.00     0.124 A 
HETATM   15  N   UNK N   1      19.994  15.126   6.186  0.00  0.00    -0.364 N 
ATOM     16  HN  UNK N   1      19.543  15.904   5.704  1.00  0.00     0.165 HD
BRANCH  13  17
HETATM   17  O   UNK N   1      21.317  14.344   9.455  0.00  0.00    -0.359 OA
HETATM   18  H   UNK N   1      20.674  14.386  10.137  0.00  0.00     0.217 HD
ENDBRANCH  13  17
ENDBRANCH   9  10
BRANCH   9  19
HETATM   19  O   UNK N   1      18.565  14.192   3.793  0.00  0.00    -0.389 OA
HETATM   20  H   UNK N   1      17.848  13.754   4.276  0.00  0.00     0.210 HD
ENDBRANCH   9  19
ENDBRANCH   7   9
ENDBRANCH   6   7
BRANCH   6  21
HETATM   21  N   UNK N   1      20.538  15.845   0.971  0.00  0.00    -0.418 N 
HETATM   22  H   UNK N   1      20.941  15.047   0.479  0.00  0.00     0.150 HD
HETATM   23  H   UNK N   1      20.474  16.751   0.507  0.00  0.00     0.150 HD
ENDBRANCH   6  21
ENDBRANCH   3   6
ENDBRANCH   1   2
BRANCH   1  24
HETATM   24  C   UNK N   1      22.431  19.075   4.250  0.00  0.00     0.188 C 
HETATM   25  C   UNK N   1      22.381  18.291   5.565  0.00  0.00     0.182 C 
HETATM   26  C   UNK N   1      23.062  17.032   5.172  0.00  0.00     0.198 C 
HETATM   27  C   UNK N   1      24.140  17.588   4.241  0.00  0.00     0.263 C 
HETATM   28  O   UNK N   1      23.412  18.463   3.419  0.00  0.00    -0.353 OA
BRANCH  25  29
HETATM   29  O   UNK N   1      21.098  18.078   6.071  0.00  0.00    -0.390 OA
HETATM   30  H   UNK N   1      20.209  18.377   5.822  0.00  0.00     0.210 HD
ENDBRANCH  25  29
BRANCH  26  31
HETATM   31  O   UNK N   1      23.541  16.303   6.261  0.00  0.00    -0.388 OA
HETATM   32  H   UNK N   1      24.303  16.620   6.773  0.00  0.00     0.210 HD
ENDBRANCH  26  31
BRANCH  27  33
HETATM   33  N   UNK N   1      25.230  18.356   4.898  0.00  0.00    -0.280 N 
HETATM   34  C   UNK N   1      25.211  19.720   4.846  0.00  0.00     0.104 A 
HETATM   35  C   UNK N   1      26.224  20.475   5.427  0.00  0.00     0.092 A 
HETATM   36  C   UNK N   1      27.258  19.822   6.083  0.00  0.00     0.250 A 
HETATM   37  O   UNK N   1      28.162  20.460   6.588  0.00  0.00    -0.268 OA
HETATM   38  N   UNK N   1      27.258  18.461   6.165  0.00  0.00    -0.275 N 
HETATM   39  C   UNK N   1      26.262  17.724   5.592  0.00  0.00     0.331 A 
HETATM   40  H   UNK N   1      27.986  18.004   6.643  0.00  0.00     0.173 HD
HETATM   41  O   UNK N   1      26.293  16.510   5.712  0.00  0.00    -0.246 OA
ENDBRANCH  27  33
ENDBRANCH   1  24
BRANCH   1  42
HETATM   42  C   UNK N   1      21.276  20.318   2.482  0.00  0.00     0.166 C 
HETATM   43  O   UNK N   1      20.738  20.277   1.385  0.00  0.00    -0.648 OA
BRANCH  42  44
HETATM   44  O   UNK N   1      22.028  21.383   2.814  0.00  0.00    -0.775 OA
HETATM   45  H   UNK N   1      21.942  22.308   2.935  0.00  0.00     0.167 HD
ENDBRANCH  42  44
ENDBRANCH   1  42
TORSDOF 14
ENDMDL
MODEL 9
REMARK VINA RESULT:      -7.1      3.068      4.533
REMARK  14 active torsions:
REMARK  status: ('A' for Active; 'I' for Inactive)
REMARK    1  A    between atoms: C_2  and  C_3 
REMARK    2  A    between atoms: C_2  and  C_13 
REMARK    3  A    between atoms: C_3  and  C_4 
REMARK    4  A    between atoms: C_3  and  O_12 
REMARK    5  A    between atoms: C_7  and  O_11 
REMARK    6  A    between atoms: C_13  and  C_14 
REMARK    7  A    between atoms: C_13  and  N_36 
REMARK       I    between atoms: C_14  and  N_16 
REMARK    8  A    between atoms: C_17  and  N_16 
REMARK    9  A    between atoms: C_18  and  C_17 
REMARK   10  A    between atoms: C_17  and  C_33 
REMARK   11  A    between atoms: C_19  and  O_32 
REMARK   12  A    between atoms: C_20  and  O_31 
REMARK   13  A    between atoms: C_21  and  N_23 
REMARK   14  A    between atoms: C_33  and  O_35 
ROOT
HETATM    1  C   UNK N   1      37.109  14.203  10.512  0.00  0.00     0.214 C 
ENDROOT
BRANCH   1   2
HETATM    2  N   UNK N   1      35.864  14.427   9.814  0.00  0.00    -0.343 N 
HETATM    3  C   UNK N   1      35.061  15.477  10.078  0.00  0.00     0.241 C 
HETATM    4  O   UNK N   1      35.422  16.365  10.838  0.00  0.00    -0.271 OA
HETATM    5  H   UNK N   1      35.592  13.787   9.118  0.00  0.00     0.163 HD
BRANCH   3   6
HETATM    6  C   UNK N   1      33.719  15.558   9.413  0.00  0.00     0.173 C 
BRANCH   6   7
HETATM    7  C   UNK N   1      33.464  16.941   8.828  0.00  0.00     0.048 C 
HETATM    8  C   UNK N   1      31.987  17.027   8.455  0.00  0.00     0.015 C 
BRANCH   7   9
HETATM    9  C   UNK N   1      34.464  17.240   7.686  0.00  0.00     0.174 C 
BRANCH   9  10
HETATM   10  C   UNK N   1      34.052  16.739   6.333  0.00  0.00     0.038 A 
HETATM   11  C   UNK N   1      33.351  17.592   5.470  0.00  0.00     0.030 A 
HETATM   12  C   UNK N   1      33.007  17.148   4.196  0.00  0.00     0.040 A 
HETATM   13  C   UNK N   1      33.361  15.860   3.800  0.00  0.00     0.081 A 
HETATM   14  C   UNK N   1      34.036  15.025   4.694  0.00  0.00     0.124 A 
HETATM   15  N   UNK N   1      34.364  15.476   5.935  0.00  0.00    -0.364 N 
ATOM     16  HN  UNK N   1      34.853  14.855   6.580  1.00  0.00     0.165 HD
BRANCH  13  17
HETATM   17  O   UNK N   1      33.055  15.427   2.569  0.00  0.00    -0.359 OA
HETATM   18  H   UNK N   1      33.553  15.702   1.823  0.00  0.00     0.217 HD
ENDBRANCH  13  17
ENDBRANCH   9  10
BRANCH   9  19
HETATM   19  O   UNK N   1      34.774  18.601   7.674  0.00  0.00    -0.389 OA
HETATM   20  H   UNK N   1      34.589  19.134   6.885  0.00  0.00     0.210 HD
ENDBRANCH   9  19
ENDBRANCH   7   9
ENDBRANCH   6   7
BRANCH   6  21
HETATM   21  N   UNK N   1      32.663  15.153  10.325  0.00  0.00    -0.418 N 
HETATM   22  H   UNK N   1      31.886  14.586   9.985  0.00  0.00     0.150 HD
HETATM   23  H   UNK N   1      32.699  15.434  11.305  0.00  0.00     0.150 HD
ENDBRANCH   6  21
ENDBRANCH   3   6
ENDBRANCH   1   2
BRANCH   1  24
HETATM   24  C   UNK N   1      36.881  13.106  11.550  0.00  0.00     0.188 C 
HETATM   25  C   UNK N   1      36.498  13.551  12.964  0.00  0.00     0.182 C 
HETATM   26  C   UNK N   1      35.046  13.238  12.976  0.00  0.00     0.198 C 
HETATM   27  C   UNK N   1      35.044  11.937  12.173  0.00  0.00     0.263 C 
HETATM   28  O   UNK N   1      35.844  12.261  11.065  0.00  0.00    -0.353 OA
BRANCH  25  29
HETATM   29  O   UNK N   1      36.766  14.891  13.250  0.00  0.00    -0.390 OA
HETATM   30  H   UNK N   1      36.751  15.431  14.055  0.00  0.00     0.210 HD
ENDBRANCH  25  29
BRANCH  26  31
HETATM   31  O   UNK N   1      34.517  13.138  14.264  0.00  0.00    -0.388 OA
HETATM   32  H   UNK N   1      33.561  13.044  14.400  0.00  0.00     0.210 HD
ENDBRANCH  26  31
BRANCH  27  33
HETATM   33  N   UNK N   1      35.638  10.756  12.853  0.00  0.00    -0.280 N 
HETATM   34  C   UNK N   1      36.911  10.375  12.540  0.00  0.00     0.104 A 
HETATM   35  C   UNK N   1      37.494   9.261  13.134  0.00  0.00     0.092 A 
HETATM   36  C   UNK N   1      36.768   8.542  14.073  0.00  0.00     0.250 A 
HETATM   37  O   UNK N   1      37.252   7.557  14.598  0.00  0.00    -0.268 OA
HETATM   38  N   UNK N   1      35.509   8.944  14.411  0.00  0.00    -0.275 N 
HETATM   39  C   UNK N   1      34.941  10.036  13.824  0.00  0.00     0.331 A 
HETATM   40  H   UNK N   1      35.005   8.439  15.088  0.00  0.00     0.173 HD
HETATM   41  O   UNK N   1      33.821  10.371  14.176  0.00  0.00    -0.246 OA
ENDBRANCH  27  33
ENDBRANCH   1  24
BRANCH   1  42
HETATM   42  C   UNK N   1      38.151  13.712   9.543  0.00  0.00     0.166 C 
HETATM   43  O   UNK N   1      39.040  14.457   9.157  0.00  0.00    -0.648 OA
BRANCH  42  44
HETATM   44  O   UNK N   1      38.086  12.454   9.070  0.00  0.00    -0.775 OA
HETATM   45  H   UNK N   1      38.219  11.574   9.361  0.00  0.00     0.167 HD
ENDBRANCH  42  44
ENDBRANCH   1  42
TORSDOF 14
ENDMDL
