MODEL 1
REMARK VINA RESULT:     -10.3      0.000      0.000
REMARK  10 active torsions:
REMARK  status: ('A' for Active; 'I' for Inactive)
REMARK    1  A    between atoms: C_4  and  N_27 
REMARK    2  A    between atoms: C_6  and  C_7 
REMARK       I    between atoms: C_7  and  N_9 
REMARK    3  A    between atoms: N_9  and  C_10 
REMARK    4  A    between atoms: C_12  and  C_16 
REMARK       I    between atoms: C_16  and  N_18 
REMARK    5  A    between atoms: N_18  and  C_19 
REMARK    6  A    between atoms: C_19  and  C_20 
REMARK    7  A    between atoms: C_20  and  N_21 
REMARK       I    between atoms: N_27  and  C_28 
REMARK    8  A    between atoms: C_28  and  C_30 
REMARK    9  A    between atoms: C_33  and  C_36 
REMARK   10  A    between atoms: C_37  and  C_38 
ROOT
HETATM    1  C   UNK N   1      32.849  16.797   5.521  0.00  0.00     0.156 C 
HETATM    2  N   UNK N   1      32.151  17.073   6.773  0.00  0.00    -0.354 N 
HETATM    3  C   UNK N   1      30.836  17.316   6.845  0.00  0.00     0.120 A 
HETATM    4  C   UNK N   1      30.540  17.682   8.142  0.00  0.00     0.053 A 
HETATM    5  C   UNK N   1      31.721  17.729   8.857  0.00  0.00     0.066 A 
HETATM    6  C   UNK N   1      32.696  17.344   7.971  0.00  0.00     0.105 A 
ENDROOT
BRANCH   4   7
HETATM    7  N   UNK N   1      29.480  18.558   8.469  0.00  0.00    -0.322 N 
HETATM    8  C   UNK N   1      28.265  18.274   7.927  0.00  0.00     0.256 C 
HETATM    9  O   UNK N   1      27.807  17.150   8.088  0.00  0.00    -0.267 OA
HETATM   10  H   UNK N   1      29.614  19.335   9.059  0.00  0.00     0.169 HD
BRANCH   8  11
HETATM   11  C   UNK N   1      28.004  18.910   6.634  0.00  0.00     0.032 A 
HETATM   12  C   UNK N   1      27.969  18.162   5.459  0.00  0.00     0.018 A 
HETATM   13  C   UNK N   1      27.475  18.737   4.285  0.00  0.00     0.012 A 
HETATM   14  C   UNK N   1      26.975  20.048   4.288  0.00  0.00    -0.036 A 
HETATM   15  C   UNK N   1      26.997  20.785   5.470  0.00  0.00     0.012 A 
HETATM   16  C   UNK N   1      27.521  20.227   6.631  0.00  0.00     0.018 A 
BRANCH  14  17
HETATM   17  C   UNK N   1      26.298  20.656   3.126  0.00  0.00     0.012 C 
HETATM   18  C   UNK N   1      25.007  20.664   2.749  0.00  0.00     0.013 C 
BRANCH  18  19
HETATM   19  C   UNK N   1      23.841  19.911   3.256  0.00  0.00    -0.020 A 
HETATM   20  C   UNK N   1      23.947  18.796   4.092  0.00  0.00     0.026 A 
HETATM   21  C   UNK N   1      22.806  18.086   4.455  0.00  0.00    -0.009 A 
HETATM   22  C   UNK N   1      22.895  16.972   5.294  0.00  0.00     0.014 A 
HETATM   23  C   UNK N   1      21.552  18.494   3.955  0.00  0.00     0.042 A 
HETATM   24  C   UNK N   1      21.740  16.259   5.629  0.00  0.00     0.001 A 
HETATM   25  C   UNK N   1      20.496  16.658   5.125  0.00  0.00     0.002 A 
HETATM   26  C   UNK N   1      20.402  17.776   4.290  0.00  0.00     0.030 A 
HETATM   27  N   UNK N   1      21.469  19.579   3.142  0.00  0.00    -0.364 N 
HETATM   28  C   UNK N   1      22.577  20.285   2.788  0.00  0.00     0.099 A 
ATOM     29  HN  UNK N   1      20.557  19.873   2.791  1.00  0.00     0.165 HD
ENDBRANCH  18  19
ENDBRANCH  14  17
ENDBRANCH   8  11
ENDBRANCH   4   7
BRANCH   6  30
HETATM   30  C   UNK N   1      34.131  17.464   8.230  0.00  0.00     0.273 C 
HETATM   31  O   UNK N   1      34.648  18.548   8.419  0.00  0.00    -0.266 OA
HETATM   32  N   UNK N   1      34.893  16.349   8.141  0.00  0.00    -0.320 N 
HETATM   33  H   UNK N   1      35.494  16.208   7.373  0.00  0.00     0.169 HD
BRANCH  32  34
HETATM   34  C   UNK N   1      34.809  15.399   9.170  0.00  0.00     0.053 A 
HETATM   35  C   UNK N   1      35.784  15.344  10.106  0.00  0.00     0.066 A 
HETATM   36  C   UNK N   1      35.759  14.086  10.616  0.00  0.00     0.104 A 
HETATM   37  N   UNK N   1      34.749  13.371  10.052  0.00  0.00    -0.354 N 
HETATM   38  C   UNK N   1      34.184  14.166   9.115  0.00  0.00     0.120 A 
HETATM   39  C   UNK N   1      34.485  11.948  10.154  0.00  0.00     0.156 C 
BRANCH  36  40
HETATM   40  C   UNK N   1      36.937  13.648  11.390  0.00  0.00     0.268 C 
HETATM   41  O   UNK N   1      37.855  13.164  10.744  0.00  0.00    -0.266 OA
HETATM   42  N   UNK N   1      37.100  13.732  12.721  0.00  0.00    -0.354 N 
HETATM   43  H   UNK N   1      37.983  13.466  13.068  0.00  0.00     0.162 HD
BRANCH  42  44
HETATM   44  C   UNK N   1      36.148  14.159  13.690  0.00  0.00     0.153 C 
BRANCH  44  45
HETATM   45  C   UNK N   1      36.338  13.254  14.899  0.00  0.00     0.292 C 
BRANCH  45  46
HETATM   46  N   UNK N   1      35.113  12.499  15.197  0.00  0.00     0.094 N 
HETATM   47  C   UNK N   1      35.388  11.076  15.486  0.00  0.00     0.298 C 
HETATM   48  C   UNK N   1      36.055  10.902  16.853  0.00  0.00     0.198 C 
HETATM   49  O   UNK N   1      35.202  11.415  17.842  0.00  0.00    -0.388 OA
HETATM   50  C   UNK N   1      35.170  12.807  17.650  0.00  0.00     0.198 C 
HETATM   51  C   UNK N   1      34.439  13.127  16.337  0.00  0.00     0.298 C 
ENDBRANCH  45  46
ENDBRANCH  44  45
ENDBRANCH  42  44
ENDBRANCH  36  40
ENDBRANCH  32  34
ENDBRANCH   6  30
TORSDOF 10
ENDMDL
MODEL 2
REMARK VINA RESULT:      -9.7      3.217     13.867
REMARK  10 active torsions:
REMARK  status: ('A' for Active; 'I' for Inactive)
REMARK    1  A    between atoms: C_4  and  N_27 
REMARK    2  A    between atoms: C_6  and  C_7 
REMARK       I    between atoms: C_7  and  N_9 
REMARK    3  A    between atoms: N_9  and  C_10 
REMARK    4  A    between atoms: C_12  and  C_16 
REMARK       I    between atoms: C_16  and  N_18 
REMARK    5  A    between atoms: N_18  and  C_19 
REMARK    6  A    between atoms: C_19  and  C_20 
REMARK    7  A    between atoms: C_20  and  N_21 
REMARK       I    between atoms: N_27  and  C_28 
REMARK    8  A    between atoms: C_28  and  C_30 
REMARK    9  A    between atoms: C_33  and  C_36 
REMARK   10  A    between atoms: C_37  and  C_38 
ROOT
HETATM    1  C   UNK N   1      28.351  16.827   3.524  0.00  0.00     0.156 C 
HETATM    2  N   UNK N   1      28.462  17.482   4.824  0.00  0.00    -0.354 N 
HETATM    3  C   UNK N   1      29.339  17.109   5.764  0.00  0.00     0.120 A 
HETATM    4  C   UNK N   1      29.072  17.833   6.909  0.00  0.00     0.053 A 
HETATM    5  C   UNK N   1      27.956  18.613   6.674  0.00  0.00     0.066 A 
HETATM    6  C   UNK N   1      27.609  18.366   5.370  0.00  0.00     0.105 A 
ENDROOT
BRANCH   4   7
HETATM    7  N   UNK N   1      29.329  17.336   8.207  0.00  0.00    -0.322 N 
HETATM    8  C   UNK N   1      30.391  17.872   8.866  0.00  0.00     0.256 C 
HETATM    9  O   UNK N   1      30.451  19.090   8.976  0.00  0.00    -0.267 OA
HETATM   10  H   UNK N   1      28.766  16.638   8.614  0.00  0.00     0.169 HD
BRANCH   8  11
HETATM   11  C   UNK N   1      31.659  17.167   8.663  0.00  0.00     0.032 A 
HETATM   12  C   UNK N   1      31.718  15.776   8.671  0.00  0.00     0.018 A 
HETATM   13  C   UNK N   1      32.875  15.128   8.228  0.00  0.00     0.012 A 
HETATM   14  C   UNK N   1      33.963  15.866   7.736  0.00  0.00    -0.036 A 
HETATM   15  C   UNK N   1      33.890  17.257   7.715  0.00  0.00     0.012 A 
HETATM   16  C   UNK N   1      32.754  17.904   8.188  0.00  0.00     0.018 A 
BRANCH  14  17
HETATM   17  C   UNK N   1      35.144  15.241   7.111  0.00  0.00     0.012 C 
HETATM   18  C   UNK N   1      36.028  14.340   7.576  0.00  0.00     0.013 C 
BRANCH  18  19
HETATM   19  C   UNK N   1      36.243  13.800   8.934  0.00  0.00    -0.020 A 
HETATM   20  C   UNK N   1      35.474  12.772   9.486  0.00  0.00     0.026 A 
HETATM   21  C   UNK N   1      35.679  12.379  10.806  0.00  0.00    -0.009 A 
HETATM   22  C   UNK N   1      34.921  11.350  11.371  0.00  0.00     0.014 A 
HETATM   23  C   UNK N   1      36.654  13.043  11.579  0.00  0.00     0.042 A 
HETATM   24  C   UNK N   1      35.128  10.985  12.704  0.00  0.00     0.001 A 
HETATM   25  C   UNK N   1      36.089  11.650  13.475  0.00  0.00     0.002 A 
HETATM   26  C   UNK N   1      36.853  12.678  12.912  0.00  0.00     0.030 A 
HETATM   27  N   UNK N   1      37.390  14.042  11.026  0.00  0.00    -0.364 N 
HETATM   28  C   UNK N   1      37.203  14.428   9.734  0.00  0.00     0.099 A 
ATOM     29  HN  UNK N   1      38.099  14.512  11.589  1.00  0.00     0.165 HD
ENDBRANCH  18  19
ENDBRANCH  14  17
ENDBRANCH   8  11
ENDBRANCH   4   7
BRANCH   6  30
HETATM   30  C   UNK N   1      26.354  18.804   4.760  0.00  0.00     0.273 C 
HETATM   31  O   UNK N   1      26.336  19.671   3.908  0.00  0.00    -0.266 OA
HETATM   32  N   UNK N   1      25.195  18.302   5.248  0.00  0.00    -0.320 N 
HETATM   33  H   UNK N   1      24.602  18.855   5.808  0.00  0.00     0.169 HD
BRANCH  32  34
HETATM   34  C   UNK N   1      24.858  16.976   4.936  0.00  0.00     0.053 A 
HETATM   35  C   UNK N   1      24.523  16.656   3.666  0.00  0.00     0.066 A 
HETATM   36  C   UNK N   1      23.763  15.534   3.739  0.00  0.00     0.104 A 
HETATM   37  N   UNK N   1      23.663  15.117   5.028  0.00  0.00    -0.354 N 
HETATM   38  C   UNK N   1      24.301  16.038   5.786  0.00  0.00     0.120 A 
HETATM   39  C   UNK N   1      22.798  14.092   5.581  0.00  0.00     0.156 C 
BRANCH  36  40
HETATM   40  C   UNK N   1      22.973  15.175   2.544  0.00  0.00     0.268 C 
HETATM   41  O   UNK N   1      23.571  14.569   1.666  0.00  0.00    -0.266 OA
HETATM   42  N   UNK N   1      21.674  15.442   2.330  0.00  0.00    -0.354 N 
HETATM   43  H   UNK N   1      21.281  15.061   1.511  0.00  0.00     0.162 HD
BRANCH  42  44
HETATM   44  C   UNK N   1      20.797  16.213   3.146  0.00  0.00     0.153 C 
BRANCH  44  45
HETATM   45  C   UNK N   1      20.674  17.572   2.471  0.00  0.00     0.292 C 
BRANCH  45  46
HETATM   46  N   UNK N   1      20.471  18.640   3.459  0.00  0.00     0.094 N 
HETATM   47  C   UNK N   1      21.732  19.038   4.120  0.00  0.00     0.298 C 
HETATM   48  C   UNK N   1      22.636  19.827   3.170  0.00  0.00     0.198 C 
HETATM   49  O   UNK N   1      21.956  20.979   2.747  0.00  0.00    -0.388 OA
HETATM   50  C   UNK N   1      20.903  20.535   1.930  0.00  0.00     0.198 C 
HETATM   51  C   UNK N   1      19.866  19.793   2.787  0.00  0.00     0.298 C 
ENDBRANCH  45  46
ENDBRANCH  44  45
ENDBRANCH  42  44
ENDBRANCH  36  40
ENDBRANCH  32  34
ENDBRANCH   6  30
TORSDOF 10
ENDMDL
MODEL 3
REMARK VINA RESULT:      -9.5      2.026      2.990
REMARK  10 active torsions:
REMARK  status: ('A' for Active; 'I' for Inactive)
REMARK    1  A    between atoms: C_4  and  N_27 
REMARK    2  A    between atoms: C_6  and  C_7 
REMARK       I    between atoms: C_7  and  N_9 
REMARK    3  A    between atoms: N_9  and  C_10 
REMARK    4  A    between atoms: C_12  and  C_16 
REMARK       I    between atoms: C_16  and  N_18 
REMARK    5  A    between atoms: N_18  and  C_19 
REMARK    6  A    between atoms: C_19  and  C_20 
REMARK    7  A    between atoms: C_20  and  N_21 
REMARK       I    between atoms: N_27  and  C_28 
REMARK    8  A    between atoms: C_28  and  C_30 
REMARK    9  A    between atoms: C_33  and  C_36 
REMARK   10  A    between atoms: C_37  and  C_38 
ROOT
HETATM    1  C   UNK N   1      33.058  15.998   4.601  0.00  0.00     0.156 C 
HETATM    2  N   UNK N   1      32.313  16.448   5.773  0.00  0.00    -0.354 N 
HETATM    3  C   UNK N   1      30.999  16.703   5.756  0.00  0.00     0.120 A 
HETATM    4  C   UNK N   1      30.654  17.247   6.977  0.00  0.00     0.053 A 
HETATM    5  C   UNK N   1      31.806  17.389   7.726  0.00  0.00     0.066 A 
HETATM    6  C   UNK N   1      32.812  16.881   6.942  0.00  0.00     0.105 A 
ENDROOT
BRANCH   4   7
HETATM    7  N   UNK N   1      29.589  18.163   7.135  0.00  0.00    -0.322 N 
HETATM    8  C   UNK N   1      28.406  17.654   7.573  0.00  0.00     0.256 C 
HETATM    9  O   UNK N   1      28.406  16.988   8.600  0.00  0.00    -0.267 OA
HETATM   10  H   UNK N   1      29.699  19.122   6.939  0.00  0.00     0.169 HD
BRANCH   8  11
HETATM   11  C   UNK N   1      27.493  17.224   6.512  0.00  0.00     0.032 A 
HETATM   12  C   UNK N   1      26.984  15.927   6.484  0.00  0.00     0.018 A 
HETATM   13  C   UNK N   1      25.930  15.615   5.621  0.00  0.00     0.012 A 
HETATM   14  C   UNK N   1      25.351  16.605   4.812  0.00  0.00    -0.036 A 
HETATM   15  C   UNK N   1      25.854  17.903   4.858  0.00  0.00     0.012 A 
HETATM   16  C   UNK N   1      26.925  18.208   5.690  0.00  0.00     0.018 A 
BRANCH  14  17
HETATM   17  C   UNK N   1      24.140  16.377   4.000  0.00  0.00     0.012 C 
HETATM   18  C   UNK N   1      22.863  16.137   4.350  0.00  0.00     0.013 C 
BRANCH  18  19
HETATM   19  C   UNK N   1      22.256  15.828   5.660  0.00  0.00    -0.020 A 
HETATM   20  C   UNK N   1      22.503  14.649   6.367  0.00  0.00     0.026 A 
HETATM   21  C   UNK N   1      21.823  14.390   7.554  0.00  0.00    -0.009 A 
HETATM   22  C   UNK N   1      22.064  13.217   8.274  0.00  0.00     0.014 A 
HETATM   23  C   UNK N   1      20.872  15.321   8.019  0.00  0.00     0.042 A 
HETATM   24  C   UNK N   1      21.355  12.967   9.453  0.00  0.00     0.001 A 
HETATM   25  C   UNK N   1      20.403  13.886   9.910  0.00  0.00     0.002 A 
HETATM   26  C   UNK N   1      20.163  15.064   9.195  0.00  0.00     0.030 A 
HETATM   27  N   UNK N   1      20.643  16.462   7.318  0.00  0.00    -0.364 N 
HETATM   28  C   UNK N   1      21.309  16.728   6.161  0.00  0.00     0.099 A 
ATOM     29  HN  UNK N   1      19.959  17.135   7.666  1.00  0.00     0.165 HD
ENDBRANCH  18  19
ENDBRANCH  14  17
ENDBRANCH   8  11
ENDBRANCH   4   7
BRANCH   6  30
HETATM   30  C   UNK N   1      34.236  17.032   7.240  0.00  0.00     0.273 C 
HETATM   31  O   UNK N   1      34.755  18.130   7.299  0.00  0.00    -0.266 OA
HETATM   32  N   UNK N   1      34.993  15.913   7.337  0.00  0.00    -0.320 N 
HETATM   33  H   UNK N   1      35.622  15.666   6.620  0.00  0.00     0.169 HD
BRANCH  32  34
HETATM   34  C   UNK N   1      34.860  15.115   8.483  0.00  0.00     0.053 A 
HETATM   35  C   UNK N   1      35.777  15.215   9.473  0.00  0.00     0.066 A 
HETATM   36  C   UNK N   1      35.739  14.041  10.153  0.00  0.00     0.104 A 
HETATM   37  N   UNK N   1      34.776  13.231   9.638  0.00  0.00    -0.354 N 
HETATM   38  C   UNK N   1      34.258  13.873   8.567  0.00  0.00     0.120 A 
HETATM   39  C   UNK N   1      34.528  11.830   9.924  0.00  0.00     0.156 C 
BRANCH  36  40
HETATM   40  C   UNK N   1      36.874  13.743  11.049  0.00  0.00     0.268 C 
HETATM   41  O   UNK N   1      37.882  13.308  10.513  0.00  0.00    -0.266 OA
HETATM   42  N   UNK N   1      36.909  13.906  12.382  0.00  0.00    -0.354 N 
HETATM   43  H   UNK N   1      37.775  13.734  12.818  0.00  0.00     0.162 HD
BRANCH  42  44
HETATM   44  C   UNK N   1      35.842  14.299  13.240  0.00  0.00     0.153 C 
BRANCH  44  45
HETATM   45  C   UNK N   1      35.516  13.083  14.095  0.00  0.00     0.292 C 
BRANCH  45  46
HETATM   46  N   UNK N   1      36.489  12.922  15.184  0.00  0.00     0.094 N 
HETATM   47  C   UNK N   1      36.191  13.797  16.337  0.00  0.00     0.298 C 
HETATM   48  C   UNK N   1      34.961  13.309  17.106  0.00  0.00     0.198 C 
HETATM   49  O   UNK N   1      35.204  12.006  17.570  0.00  0.00    -0.388 OA
HETATM   50  C   UNK N   1      35.244  11.186  16.431  0.00  0.00     0.198 C 
HETATM   51  C   UNK N   1      36.496  11.517  15.604  0.00  0.00     0.298 C 
ENDBRANCH  45  46
ENDBRANCH  44  45
ENDBRANCH  42  44
ENDBRANCH  36  40
ENDBRANCH  32  34
ENDBRANCH   6  30
TORSDOF 10
ENDMDL
MODEL 4
REMARK VINA RESULT:      -9.4      2.768     14.205
REMARK  10 active torsions:
REMARK  status: ('A' for Active; 'I' for Inactive)
REMARK    1  A    between atoms: C_4  and  N_27 
REMARK    2  A    between atoms: C_6  and  C_7 
REMARK       I    between atoms: C_7  and  N_9 
REMARK    3  A    between atoms: N_9  and  C_10 
REMARK    4  A    between atoms: C_12  and  C_16 
REMARK       I    between atoms: C_16  and  N_18 
REMARK    5  A    between atoms: N_18  and  C_19 
REMARK    6  A    between atoms: C_19  and  C_20 
REMARK    7  A    between atoms: C_20  and  N_21 
REMARK       I    between atoms: N_27  and  C_28 
REMARK    8  A    between atoms: C_28  and  C_30 
REMARK    9  A    between atoms: C_33  and  C_36 
REMARK   10  A    between atoms: C_37  and  C_38 
ROOT
HETATM    1  C   UNK N   1      28.018  16.741   7.090  0.00  0.00     0.156 C 
HETATM    2  N   UNK N   1      29.476  16.746   7.153  0.00  0.00    -0.354 N 
HETATM    3  C   UNK N   1      30.163  16.837   8.298  0.00  0.00     0.120 A 
HETATM    4  C   UNK N   1      31.501  16.965   7.984  0.00  0.00     0.053 A 
HETATM    5  C   UNK N   1      31.617  17.024   6.609  0.00  0.00     0.066 A 
HETATM    6  C   UNK N   1      30.338  16.884   6.132  0.00  0.00     0.105 A 
ENDROOT
BRANCH   4   7
HETATM    7  N   UNK N   1      32.417  17.665   8.803  0.00  0.00    -0.322 N 
HETATM    8  C   UNK N   1      33.717  17.667   8.401  0.00  0.00     0.256 C 
HETATM    9  O   UNK N   1      33.970  18.031   7.260  0.00  0.00    -0.267 OA
HETATM   10  H   UNK N   1      32.129  18.129   9.622  0.00  0.00     0.169 HD
BRANCH   8  11
HETATM   11  C   UNK N   1      34.527  16.570   8.935  0.00  0.00     0.032 A 
HETATM   12  C   UNK N   1      34.887  15.487   8.136  0.00  0.00     0.018 A 
HETATM   13  C   UNK N   1      35.859  14.588   8.583  0.00  0.00     0.012 A 
HETATM   14  C   UNK N   1      36.505  14.788   9.813  0.00  0.00    -0.036 A 
HETATM   15  C   UNK N   1      36.152  15.883  10.599  0.00  0.00     0.012 A 
HETATM   16  C   UNK N   1      35.161  16.759  10.172  0.00  0.00     0.018 A 
BRANCH  14  17
HETATM   17  C   UNK N   1      37.644  13.968  10.268  0.00  0.00     0.012 C 
HETATM   18  C   UNK N   1      37.723  12.973  11.170  0.00  0.00     0.013 C 
BRANCH  18  19
HETATM   19  C   UNK N   1      36.743  12.476  12.158  0.00  0.00    -0.020 A 
HETATM   20  C   UNK N   1      37.084  12.096  13.459  0.00  0.00     0.026 A 
HETATM   21  C   UNK N   1      36.119  11.553  14.303  0.00  0.00    -0.009 A 
HETATM   22  C   UNK N   1      36.443  11.173  15.607  0.00  0.00     0.014 A 
HETATM   23  C   UNK N   1      34.805  11.374  13.821  0.00  0.00     0.042 A 
HETATM   24  C   UNK N   1      35.464  10.610  16.431  0.00  0.00     0.001 A 
HETATM   25  C   UNK N   1      34.163  10.423  15.951  0.00  0.00     0.002 A 
HETATM   26  C   UNK N   1      33.832  10.807  14.647  0.00  0.00     0.030 A 
HETATM   27  N   UNK N   1      34.493  11.747  12.553  0.00  0.00    -0.364 N 
HETATM   28  C   UNK N   1      35.427  12.287  11.723  0.00  0.00     0.099 A 
ATOM     29  HN  UNK N   1      33.539  11.622  12.215  1.00  0.00     0.165 HD
ENDBRANCH  18  19
ENDBRANCH  14  17
ENDBRANCH   8  11
ENDBRANCH   4   7
BRANCH   6  30
HETATM   30  C   UNK N   1      29.956  17.112   4.738  0.00  0.00     0.273 C 
HETATM   31  O   UNK N   1      30.007  16.218   3.916  0.00  0.00    -0.266 OA
HETATM   32  N   UNK N   1      29.650  18.375   4.356  0.00  0.00    -0.320 N 
HETATM   33  H   UNK N   1      30.277  18.901   3.807  0.00  0.00     0.169 HD
BRANCH  32  34
HETATM   34  C   UNK N   1      28.420  18.915   4.759  0.00  0.00     0.053 A 
HETATM   35  C   UNK N   1      27.352  18.826   3.933  0.00  0.00     0.066 A 
HETATM   36  C   UNK N   1      26.509  19.830   4.285  0.00  0.00     0.104 A 
HETATM   37  N   UNK N   1      27.007  20.511   5.351  0.00  0.00    -0.354 N 
HETATM   38  C   UNK N   1      28.220  19.978   5.621  0.00  0.00     0.120 A 
HETATM   39  C   UNK N   1      26.541  21.760   5.922  0.00  0.00     0.156 C 
BRANCH  36  40
HETATM   40  C   UNK N   1      25.444  20.185   3.324  0.00  0.00     0.268 C 
HETATM   41  O   UNK N   1      25.762  20.955   2.430  0.00  0.00    -0.266 OA
HETATM   42  N   UNK N   1      24.175  19.745   3.334  0.00  0.00    -0.354 N 
HETATM   43  H   UNK N   1      23.615  20.019   2.571  0.00  0.00     0.162 HD
BRANCH  42  44
HETATM   44  C   UNK N   1      23.543  18.931   4.317  0.00  0.00     0.153 C 
BRANCH  44  45
HETATM   45  C   UNK N   1      22.045  19.077   4.089  0.00  0.00     0.292 C 
BRANCH  45  46
HETATM   46  N   UNK N   1      21.634  18.440   2.830  0.00  0.00     0.094 N 
HETATM   47  C   UNK N   1      21.011  17.117   3.049  0.00  0.00     0.298 C 
HETATM   48  C   UNK N   1      19.614  17.252   3.659  0.00  0.00     0.198 C 
HETATM   49  O   UNK N   1      18.807  18.000   2.788  0.00  0.00    -0.388 OA
HETATM   50  C   UNK N   1      19.318  19.309   2.808  0.00  0.00     0.198 C 
HETATM   51  C   UNK N   1      20.700  19.331   2.136  0.00  0.00     0.298 C 
ENDBRANCH  45  46
ENDBRANCH  44  45
ENDBRANCH  42  44
ENDBRANCH  36  40
ENDBRANCH  32  34
ENDBRANCH   6  30
TORSDOF 10
ENDMDL
MODEL 5
REMARK VINA RESULT:      -9.4      3.938     13.539
REMARK  10 active torsions:
REMARK  status: ('A' for Active; 'I' for Inactive)
REMARK    1  A    between atoms: C_4  and  N_27 
REMARK    2  A    between atoms: C_6  and  C_7 
REMARK       I    between atoms: C_7  and  N_9 
REMARK    3  A    between atoms: N_9  and  C_10 
REMARK    4  A    between atoms: C_12  and  C_16 
REMARK       I    between atoms: C_16  and  N_18 
REMARK    5  A    between atoms: N_18  and  C_19 
REMARK    6  A    between atoms: C_19  and  C_20 
REMARK    7  A    between atoms: C_20  and  N_21 
REMARK       I    between atoms: N_27  and  C_28 
REMARK    8  A    between atoms: C_28  and  C_30 
REMARK    9  A    between atoms: C_33  and  C_36 
REMARK   10  A    between atoms: C_37  and  C_38 
ROOT
HETATM    1  C   UNK N   1      26.865  21.435   5.630  0.00  0.00     0.156 C 
HETATM    2  N   UNK N   1      27.095  20.092   5.104  0.00  0.00    -0.354 N 
HETATM    3  C   UNK N   1      28.180  19.364   5.393  0.00  0.00     0.120 A 
HETATM    4  C   UNK N   1      28.148  18.223   4.616  0.00  0.00     0.053 A 
HETATM    5  C   UNK N   1      27.048  18.300   3.783  0.00  0.00     0.066 A 
HETATM    6  C   UNK N   1      26.422  19.475   4.118  0.00  0.00     0.105 A 
ENDROOT
BRANCH   4   7
HETATM    7  N   UNK N   1      29.317  17.556   4.184  0.00  0.00    -0.322 N 
HETATM    8  C   UNK N   1      29.848  16.642   5.039  0.00  0.00     0.256 C 
HETATM    9  O   UNK N   1      29.119  15.757   5.468  0.00  0.00    -0.267 OA
HETATM   10  H   UNK N   1      29.726  17.744   3.308  0.00  0.00     0.169 HD
BRANCH   8  11
HETATM   11  C   UNK N   1      30.847  17.176   5.968  0.00  0.00     0.032 A 
HETATM   12  C   UNK N   1      30.575  17.289   7.329  0.00  0.00     0.018 A 
HETATM   13  C   UNK N   1      31.615  17.559   8.224  0.00  0.00     0.012 A 
HETATM   14  C   UNK N   1      32.937  17.677   7.768  0.00  0.00    -0.036 A 
HETATM   15  C   UNK N   1      33.203  17.545   6.407  0.00  0.00     0.012 A 
HETATM   16  C   UNK N   1      32.167  17.312   5.512  0.00  0.00     0.018 A 
BRANCH  14  17
HETATM   17  C   UNK N   1      34.094  17.804   8.675  0.00  0.00     0.012 C 
HETATM   18  C   UNK N   1      34.876  16.878   9.260  0.00  0.00     0.013 C 
BRANCH  18  19
HETATM   19  C   UNK N   1      34.739  15.410   9.356  0.00  0.00    -0.020 A 
HETATM   20  C   UNK N   1      34.814  14.554   8.254  0.00  0.00     0.026 A 
HETATM   21  C   UNK N   1      34.585  13.190   8.413  0.00  0.00    -0.009 A 
HETATM   22  C   UNK N   1      34.662  12.321   7.321  0.00  0.00     0.014 A 
HETATM   23  C   UNK N   1      34.258  12.691   9.690  0.00  0.00     0.042 A 
HETATM   24  C   UNK N   1      34.407  10.958   7.498  0.00  0.00     0.001 A 
HETATM   25  C   UNK N   1      34.072  10.464   8.765  0.00  0.00     0.002 A 
HETATM   26  C   UNK N   1      34.000  11.329   9.861  0.00  0.00     0.030 A 
HETATM   27  N   UNK N   1      34.187  13.538  10.750  0.00  0.00    -0.364 N 
HETATM   28  C   UNK N   1      34.418  14.872  10.606  0.00  0.00     0.099 A 
ATOM     29  HN  UNK N   1      33.958  13.168  11.672  1.00  0.00     0.165 HD
ENDBRANCH  18  19
ENDBRANCH  14  17
ENDBRANCH   8  11
ENDBRANCH   4   7
BRANCH   6  30
HETATM   30  C   UNK N   1      25.339  20.076   3.340  0.00  0.00     0.273 C 
HETATM   31  O   UNK N   1      25.548  20.577   2.252  0.00  0.00    -0.266 OA
HETATM   32  N   UNK N   1      24.113  20.164   3.909  0.00  0.00    -0.320 N 
HETATM   33  H   UNK N   1      23.767  21.029   4.229  0.00  0.00     0.169 HD
BRANCH  32  34
HETATM   34  C   UNK N   1      23.348  18.995   4.030  0.00  0.00     0.053 A 
HETATM   35  C   UNK N   1      22.376  18.739   3.125  0.00  0.00     0.066 A 
HETATM   36  C   UNK N   1      21.491  17.909   3.734  0.00  0.00     0.104 A 
HETATM   37  N   UNK N   1      21.922  17.600   4.985  0.00  0.00    -0.354 N 
HETATM   38  C   UNK N   1      23.052  18.311   5.196  0.00  0.00     0.120 A 
HETATM   39  C   UNK N   1      21.203  16.916   6.044  0.00  0.00     0.156 C 
BRANCH  36  40
HETATM   40  C   UNK N   1      20.163  17.760   3.105  0.00  0.00     0.268 C 
HETATM   41  O   UNK N   1      19.569  18.798   2.852  0.00  0.00    -0.266 OA
HETATM   42  N   UNK N   1      19.552  16.609   2.783  0.00  0.00    -0.354 N 
HETATM   43  H   UNK N   1      18.700  16.690   2.295  0.00  0.00     0.162 HD
BRANCH  42  44
HETATM   44  C   UNK N   1      19.989  15.282   3.064  0.00  0.00     0.153 C 
BRANCH  44  45
HETATM   45  C   UNK N   1      20.902  14.884   1.913  0.00  0.00     0.292 C 
BRANCH  45  46
HETATM   46  N   UNK N   1      21.737  13.729   2.272  0.00  0.00     0.094 N 
HETATM   47  C   UNK N   1      22.530  13.234   1.127  0.00  0.00     0.298 C 
HETATM   48  C   UNK N   1      23.671  14.193   0.781  0.00  0.00     0.198 C 
HETATM   49  O   UNK N   1      24.510  14.323   1.899  0.00  0.00    -0.388 OA
HETATM   50  C   UNK N   1      23.765  15.012   2.871  0.00  0.00     0.198 C 
HETATM   51  C   UNK N   1      22.624  14.115   3.374  0.00  0.00     0.298 C 
ENDBRANCH  45  46
ENDBRANCH  44  45
ENDBRANCH  42  44
ENDBRANCH  36  40
ENDBRANCH  32  34
ENDBRANCH   6  30
TORSDOF 10
ENDMDL
MODEL 6
REMARK VINA RESULT:      -9.4      5.701     14.057
REMARK  10 active torsions:
REMARK  status: ('A' for Active; 'I' for Inactive)
REMARK    1  A    between atoms: C_4  and  N_27 
REMARK    2  A    between atoms: C_6  and  C_7 
REMARK       I    between atoms: C_7  and  N_9 
REMARK    3  A    between atoms: N_9  and  C_10 
REMARK    4  A    between atoms: C_12  and  C_16 
REMARK       I    between atoms: C_16  and  N_18 
REMARK    5  A    between atoms: N_18  and  C_19 
REMARK    6  A    between atoms: C_19  and  C_20 
REMARK    7  A    between atoms: C_20  and  N_21 
REMARK       I    between atoms: N_27  and  C_28 
REMARK    8  A    between atoms: C_28  and  C_30 
REMARK    9  A    between atoms: C_33  and  C_36 
REMARK   10  A    between atoms: C_37  and  C_38 
ROOT
HETATM    1  C   UNK N   1      37.211  10.490   9.449  0.00  0.00     0.156 C 
HETATM    2  N   UNK N   1      36.931  10.836  10.840  0.00  0.00    -0.354 N 
HETATM    3  C   UNK N   1      36.054  10.172  11.601  0.00  0.00     0.120 A 
HETATM    4  C   UNK N   1      35.926  10.851  12.796  0.00  0.00     0.053 A 
HETATM    5  C   UNK N   1      36.695  11.997  12.725  0.00  0.00     0.066 A 
HETATM    6  C   UNK N   1      37.302  11.949  11.495  0.00  0.00     0.105 A 
ENDROOT
BRANCH   4   7
HETATM    7  N   UNK N   1      34.736  10.844  13.559  0.00  0.00    -0.322 N 
HETATM    8  C   UNK N   1      34.470  11.962  14.285  0.00  0.00     0.256 C 
HETATM    9  O   UNK N   1      34.469  13.042  13.708  0.00  0.00    -0.267 OA
HETATM   10  H   UNK N   1      34.129  10.068  13.563  0.00  0.00     0.169 HD
BRANCH   8  11
HETATM   11  C   UNK N   1      34.999  11.949  15.651  0.00  0.00     0.032 A 
HETATM   12  C   UNK N   1      34.803  13.029  16.508  0.00  0.00     0.018 A 
HETATM   13  C   UNK N   1      35.092  12.894  17.869  0.00  0.00     0.012 A 
HETATM   14  C   UNK N   1      35.538  11.669  18.388  0.00  0.00    -0.036 A 
HETATM   15  C   UNK N   1      35.716  10.588  17.526  0.00  0.00     0.012 A 
HETATM   16  C   UNK N   1      35.463  10.730  16.167  0.00  0.00     0.018 A 
BRANCH  14  17
HETATM   17  C   UNK N   1      35.709  11.417  19.831  0.00  0.00     0.012 C 
HETATM   18  C   UNK N   1      35.270  10.421  20.622  0.00  0.00     0.013 C 
BRANCH  18  19
HETATM   19  C   UNK N   1      34.306   9.331  20.367  0.00  0.00    -0.020 A 
HETATM   20  C   UNK N   1      34.641   8.141  19.717  0.00  0.00     0.026 A 
HETATM   21  C   UNK N   1      33.656   7.198  19.433  0.00  0.00    -0.009 A 
HETATM   22  C   UNK N   1      33.977   6.001  18.788  0.00  0.00     0.014 A 
HETATM   23  C   UNK N   1      32.320   7.470  19.793  0.00  0.00     0.042 A 
HETATM   24  C   UNK N   1      32.970   5.078  18.494  0.00  0.00     0.001 A 
HETATM   25  C   UNK N   1      31.642   5.352  18.841  0.00  0.00     0.002 A 
HETATM   26  C   UNK N   1      31.317   6.546  19.493  0.00  0.00     0.030 A 
HETATM   27  N   UNK N   1      32.012   8.633  20.423  0.00  0.00    -0.364 N 
HETATM   28  C   UNK N   1      32.969   9.557  20.711  0.00  0.00     0.099 A 
ATOM     29  HN  UNK N   1      31.044   8.819  20.687  1.00  0.00     0.165 HD
ENDBRANCH  18  19
ENDBRANCH  14  17
ENDBRANCH   8  11
ENDBRANCH   4   7
BRANCH   6  30
HETATM   30  C   UNK N   1      38.032  13.068  10.899  0.00  0.00     0.273 C 
HETATM   31  O   UNK N   1      39.220  12.986  10.652  0.00  0.00    -0.266 OA
HETATM   32  N   UNK N   1      37.380  14.243  10.733  0.00  0.00    -0.320 N 
HETATM   33  H   UNK N   1      37.566  15.011  11.321  0.00  0.00     0.169 HD
BRANCH  32  34
HETATM   34  C   UNK N   1      36.433  14.340   9.702  0.00  0.00     0.053 A 
HETATM   35  C   UNK N   1      35.116  14.243   9.997  0.00  0.00     0.066 A 
HETATM   36  C   UNK N   1      34.495  13.841   8.859  0.00  0.00     0.104 A 
HETATM   37  N   UNK N   1      35.394  13.737   7.845  0.00  0.00    -0.354 N 
HETATM   38  C   UNK N   1      36.611  13.998   8.373  0.00  0.00     0.120 A 
HETATM   39  C   UNK N   1      35.206  13.157   6.528  0.00  0.00     0.156 C 
BRANCH  36  40
HETATM   40  C   UNK N   1      33.122  13.315   8.990  0.00  0.00     0.268 C 
HETATM   41  O   UNK N   1      33.012  12.097   9.012  0.00  0.00    -0.266 OA
HETATM   42  N   UNK N   1      31.992  14.034   9.092  0.00  0.00    -0.354 N 
HETATM   43  H   UNK N   1      31.165  13.525   9.254  0.00  0.00     0.162 HD
BRANCH  42  44
HETATM   44  C   UNK N   1      31.848  15.448   8.993  0.00  0.00     0.153 C 
BRANCH  44  45
HETATM   45  C   UNK N   1      31.711  15.758   7.508  0.00  0.00     0.292 C 
BRANCH  45  46
HETATM   46  N   UNK N   1      31.832  17.199   7.252  0.00  0.00     0.094 N 
HETATM   47  C   UNK N   1      32.802  17.850   8.157  0.00  0.00     0.298 C 
HETATM   48  C   UNK N   1      34.241  17.472   7.798  0.00  0.00     0.198 C 
HETATM   49  O   UNK N   1      34.501  17.876   6.479  0.00  0.00    -0.388 OA
HETATM   50  C   UNK N   1      33.715  17.054   5.655  0.00  0.00     0.198 C 
HETATM   51  C   UNK N   1      32.230  17.396   5.856  0.00  0.00     0.298 C 
ENDBRANCH  45  46
ENDBRANCH  44  45
ENDBRANCH  42  44
ENDBRANCH  36  40
ENDBRANCH  32  34
ENDBRANCH   6  30
TORSDOF 10
ENDMDL
MODEL 7
REMARK VINA RESULT:      -9.3      4.063      6.500
REMARK  10 active torsions:
REMARK  status: ('A' for Active; 'I' for Inactive)
REMARK    1  A    between atoms: C_4  and  N_27 
REMARK    2  A    between atoms: C_6  and  C_7 
REMARK       I    between atoms: C_7  and  N_9 
REMARK    3  A    between atoms: N_9  and  C_10 
REMARK    4  A    between atoms: C_12  and  C_16 
REMARK       I    between atoms: C_16  and  N_18 
REMARK    5  A    between atoms: N_18  and  C_19 
REMARK    6  A    between atoms: C_19  and  C_20 
REMARK    7  A    between atoms: C_20  and  N_21 
REMARK       I    between atoms: N_27  and  C_28 
REMARK    8  A    between atoms: C_28  and  C_30 
REMARK    9  A    between atoms: C_33  and  C_36 
REMARK   10  A    between atoms: C_37  and  C_38 
ROOT
HETATM    1  C   UNK N   1      31.562  12.798   4.215  0.00  0.00     0.156 C 
HETATM    2  N   UNK N   1      30.769  13.973   3.865  0.00  0.00    -0.354 N 
HETATM    3  C   UNK N   1      29.469  13.915   3.549  0.00  0.00     0.120 A 
HETATM    4  C   UNK N   1      29.077  15.170   3.129  0.00  0.00     0.053 A 
HETATM    5  C   UNK N   1      30.189  15.991   3.124  0.00  0.00     0.066 A 
HETATM    6  C   UNK N   1      31.217  15.208   3.587  0.00  0.00     0.105 A 
ENDROOT
BRANCH   4   7
HETATM    7  N   UNK N   1      28.042  15.375   2.188  0.00  0.00    -0.322 N 
HETATM    8  C   UNK N   1      26.863  15.850   2.671  0.00  0.00     0.256 C 
HETATM    9  O   UNK N   1      26.882  16.871   3.347  0.00  0.00    -0.267 OA
HETATM   10  H   UNK N   1      28.169  15.184   1.230  0.00  0.00     0.169 HD
BRANCH   8  11
HETATM   11  C   UNK N   1      25.901  14.819   3.068  0.00  0.00     0.032 A 
HETATM   12  C   UNK N   1      24.927  15.076   4.030  0.00  0.00     0.018 A 
HETATM   13  C   UNK N   1      23.874  14.175   4.208  0.00  0.00     0.012 A 
HETATM   14  C   UNK N   1      23.765  13.033   3.399  0.00  0.00    -0.036 A 
HETATM   15  C   UNK N   1      24.734  12.791   2.428  0.00  0.00     0.012 A 
HETATM   16  C   UNK N   1      25.801  13.668   2.272  0.00  0.00     0.018 A 
BRANCH  14  17
HETATM   17  C   UNK N   1      22.599  12.130   3.431  0.00  0.00     0.012 C 
HETATM   18  C   UNK N   1      21.903  11.607   4.457  0.00  0.00     0.013 C 
BRANCH  18  19
HETATM   19  C   UNK N   1      22.171  11.599   5.909  0.00  0.00    -0.020 A 
HETATM   20  C   UNK N   1      21.451  12.362   6.832  0.00  0.00     0.026 A 
HETATM   21  C   UNK N   1      21.822  12.369   8.174  0.00  0.00    -0.009 A 
HETATM   22  C   UNK N   1      21.109  13.124   9.108  0.00  0.00     0.014 A 
HETATM   23  C   UNK N   1      22.940  11.613   8.582  0.00  0.00     0.042 A 
HETATM   24  C   UNK N   1      21.511  13.133  10.447  0.00  0.00     0.001 A 
HETATM   25  C   UNK N   1      22.627  12.391  10.851  0.00  0.00     0.002 A 
HETATM   26  C   UNK N   1      23.340  11.630   9.920  0.00  0.00     0.030 A 
HETATM   27  N   UNK N   1      23.629  10.878   7.671  0.00  0.00    -0.364 N 
HETATM   28  C   UNK N   1      23.269  10.859   6.359  0.00  0.00     0.099 A 
ATOM     29  HN  UNK N   1      24.433  10.328   7.976  1.00  0.00     0.165 HD
ENDBRANCH  18  19
ENDBRANCH  14  17
ENDBRANCH   8  11
ENDBRANCH   4   7
BRANCH   6  30
HETATM   30  C   UNK N   1      32.627  15.596   3.536  0.00  0.00     0.273 C 
HETATM   31  O   UNK N   1      33.185  15.806   2.477  0.00  0.00    -0.266 OA
HETATM   32  N   UNK N   1      33.331  15.605   4.693  0.00  0.00    -0.320 N 
HETATM   33  H   UNK N   1      33.990  14.900   4.887  0.00  0.00     0.169 HD
BRANCH  32  34
HETATM   34  C   UNK N   1      33.100  16.645   5.606  0.00  0.00     0.053 A 
HETATM   35  C   UNK N   1      34.145  17.190   6.272  0.00  0.00     0.066 A 
HETATM   36  C   UNK N   1      33.636  17.737   7.405  0.00  0.00     0.104 A 
HETATM   37  N   UNK N   1      32.285  17.591   7.432  0.00  0.00    -0.354 N 
HETATM   38  C   UNK N   1      31.949  16.868   6.340  0.00  0.00     0.120 A 
HETATM   39  C   UNK N   1      31.372  17.845   8.531  0.00  0.00     0.156 C 
BRANCH  36  40
HETATM   40  C   UNK N   1      34.593  18.079   8.477  0.00  0.00     0.268 C 
HETATM   41  O   UNK N   1      35.176  19.147   8.356  0.00  0.00    -0.266 OA
HETATM   42  N   UNK N   1      34.879  17.343   9.563  0.00  0.00    -0.354 N 
HETATM   43  H   UNK N   1      35.484  17.756  10.221  0.00  0.00     0.162 HD
BRANCH  42  44
HETATM   44  C   UNK N   1      34.413  16.033   9.875  0.00  0.00     0.153 C 
BRANCH  44  45
HETATM   45  C   UNK N   1      35.655  15.165  10.022  0.00  0.00     0.292 C 
BRANCH  45  46
HETATM   46  N   UNK N   1      35.308  13.818  10.496  0.00  0.00     0.094 N 
HETATM   47  C   UNK N   1      36.397  12.845  10.266  0.00  0.00     0.298 C 
HETATM   48  C   UNK N   1      37.572  13.086  11.217  0.00  0.00     0.198 C 
HETATM   49  O   UNK N   1      37.118  12.962  12.540  0.00  0.00    -0.388 OA
HETATM   50  C   UNK N   1      36.264  14.054  12.765  0.00  0.00     0.198 C 
HETATM   51  C   UNK N   1      34.988  13.891  11.925  0.00  0.00     0.298 C 
ENDBRANCH  45  46
ENDBRANCH  44  45
ENDBRANCH  42  44
ENDBRANCH  36  40
ENDBRANCH  32  34
ENDBRANCH   6  30
TORSDOF 10
ENDMDL
MODEL 8
REMARK VINA RESULT:      -9.3      5.845     10.892
REMARK  10 active torsions:
REMARK  status: ('A' for Active; 'I' for Inactive)
REMARK    1  A    between atoms: C_4  and  N_27 
REMARK    2  A    between atoms: C_6  and  C_7 
REMARK       I    between atoms: C_7  and  N_9 
REMARK    3  A    between atoms: N_9  and  C_10 
REMARK    4  A    between atoms: C_12  and  C_16 
REMARK       I    between atoms: C_16  and  N_18 
REMARK    5  A    between atoms: N_18  and  C_19 
REMARK    6  A    between atoms: C_19  and  C_20 
REMARK    7  A    between atoms: C_20  and  N_21 
REMARK       I    between atoms: N_27  and  C_28 
REMARK    8  A    between atoms: C_28  and  C_30 
REMARK    9  A    between atoms: C_33  and  C_36 
REMARK   10  A    between atoms: C_37  and  C_38 
ROOT
HETATM    1  C   UNK N   1      22.149  15.161   6.218  0.00  0.00     0.156 C 
HETATM    2  N   UNK N   1      21.178  15.715   5.279  0.00  0.00    -0.354 N 
HETATM    3  C   UNK N   1      20.600  14.997   4.309  0.00  0.00     0.120 A 
HETATM    4  C   UNK N   1      19.862  15.859   3.522  0.00  0.00     0.053 A 
HETATM    5  C   UNK N   1      20.059  17.144   3.989  0.00  0.00     0.066 A 
HETATM    6  C   UNK N   1      20.882  17.010   5.079  0.00  0.00     0.105 A 
ENDROOT
BRANCH   4   7
HETATM    7  N   UNK N   1      19.632  15.633   2.146  0.00  0.00    -0.322 N 
HETATM    8  C   UNK N   1      19.519  14.336   1.750  0.00  0.00     0.256 C 
HETATM    9  O   UNK N   1      18.710  13.622   2.328  0.00  0.00    -0.267 OA
HETATM   10  H   UNK N   1      19.556  16.377   1.505  0.00  0.00     0.169 HD
BRANCH   8  11
HETATM   11  C   UNK N   1      20.778  13.705   1.345  0.00  0.00     0.032 A 
HETATM   12  C   UNK N   1      21.855  14.470   0.905  0.00  0.00     0.018 A 
HETATM   13  C   UNK N   1      23.114  13.878   0.767  0.00  0.00     0.012 A 
HETATM   14  C   UNK N   1      23.312  12.531   1.107  0.00  0.00    -0.036 A 
HETATM   15  C   UNK N   1      22.233  11.778   1.563  0.00  0.00     0.012 A 
HETATM   16  C   UNK N   1      20.973  12.354   1.668  0.00  0.00     0.018 A 
BRANCH  14  17
HETATM   17  C   UNK N   1      24.642  11.893   1.133  0.00  0.00     0.012 C 
HETATM   18  C   UNK N   1      25.480  11.618   2.150  0.00  0.00     0.013 C 
BRANCH  18  19
HETATM   19  C   UNK N   1      25.454  12.027   3.569  0.00  0.00    -0.020 A 
HETATM   20  C   UNK N   1      24.660  11.406   4.537  0.00  0.00     0.026 A 
HETATM   21  C   UNK N   1      24.623  11.907   5.835  0.00  0.00    -0.009 A 
HETATM   22  C   UNK N   1      23.837  11.294   6.815  0.00  0.00     0.014 A 
HETATM   23  C   UNK N   1      25.377  13.055   6.152  0.00  0.00     0.042 A 
HETATM   24  C   UNK N   1      23.797  11.825   8.107  0.00  0.00     0.001 A 
HETATM   25  C   UNK N   1      24.538  12.971   8.420  0.00  0.00     0.002 A 
HETATM   26  C   UNK N   1      25.330  13.584   7.444  0.00  0.00     0.030 A 
HETATM   27  N   UNK N   1      26.142  13.647   5.198  0.00  0.00    -0.364 N 
HETATM   28  C   UNK N   1      26.192  13.160   3.928  0.00  0.00     0.099 A 
ATOM     29  HN  UNK N   1      26.691  14.473   5.438  1.00  0.00     0.165 HD
ENDBRANCH  18  19
ENDBRANCH  14  17
ENDBRANCH   8  11
ENDBRANCH   4   7
BRANCH   6  30
HETATM   30  C   UNK N   1      21.535  18.133   5.753  0.00  0.00     0.273 C 
HETATM   31  O   UNK N   1      21.208  18.471   6.875  0.00  0.00    -0.266 OA
HETATM   32  N   UNK N   1      22.436  18.864   5.055  0.00  0.00    -0.320 N 
HETATM   33  H   UNK N   1      22.210  19.765   4.729  0.00  0.00     0.169 HD
BRANCH  32  34
HETATM   34  C   UNK N   1      23.699  18.306   4.807  0.00  0.00     0.053 A 
HETATM   35  C   UNK N   1      24.802  19.080   4.922  0.00  0.00     0.066 A 
HETATM   36  C   UNK N   1      25.759  18.504   4.151  0.00  0.00     0.104 A 
HETATM   37  N   UNK N   1      25.289  17.353   3.601  0.00  0.00    -0.354 N 
HETATM   38  C   UNK N   1      23.991  17.248   3.965  0.00  0.00     0.120 A 
HETATM   39  C   UNK N   1      25.895  16.533   2.569  0.00  0.00     0.156 C 
BRANCH  36  40
HETATM   40  C   UNK N   1      26.938  19.326   3.811  0.00  0.00     0.268 C 
HETATM   41  O   UNK N   1      26.720  20.327   3.144  0.00  0.00    -0.266 OA
HETATM   42  N   UNK N   1      28.212  19.088   4.163  0.00  0.00    -0.354 N 
HETATM   43  H   UNK N   1      28.867  19.782   3.920  0.00  0.00     0.162 HD
BRANCH  42  44
HETATM   44  C   UNK N   1      28.729  17.949   4.846  0.00  0.00     0.153 C 
BRANCH  44  45
HETATM   45  C   UNK N   1      28.707  18.298   6.327  0.00  0.00     0.292 C 
BRANCH  45  46
HETATM   46  N   UNK N   1      28.956  17.110   7.156  0.00  0.00     0.094 N 
HETATM   47  C   UNK N   1      30.317  17.105   7.733  0.00  0.00     0.298 C 
HETATM   48  C   UNK N   1      30.456  18.146   8.846  0.00  0.00     0.198 C 
HETATM   49  O   UNK N   1      29.528  17.857   9.858  0.00  0.00    -0.388 OA
HETATM   50  C   UNK N   1      28.259  18.108   9.309  0.00  0.00     0.198 C 
HETATM   51  C   UNK N   1      27.953  17.064   8.224  0.00  0.00     0.298 C 
ENDBRANCH  45  46
ENDBRANCH  44  45
ENDBRANCH  42  44
ENDBRANCH  36  40
ENDBRANCH  32  34
ENDBRANCH   6  30
TORSDOF 10
ENDMDL
MODEL 9
REMARK VINA RESULT:      -9.3      3.368     13.694
REMARK  10 active torsions:
REMARK  status: ('A' for Active; 'I' for Inactive)
REMARK    1  A    between atoms: C_4  and  N_27 
REMARK    2  A    between atoms: C_6  and  C_7 
REMARK       I    between atoms: C_7  and  N_9 
REMARK    3  A    between atoms: N_9  and  C_10 
REMARK    4  A    between atoms: C_12  and  C_16 
REMARK       I    between atoms: C_16  and  N_18 
REMARK    5  A    between atoms: N_18  and  C_19 
REMARK    6  A    between atoms: C_19  and  C_20 
REMARK    7  A    between atoms: C_20  and  N_21 
REMARK       I    between atoms: N_27  and  C_28 
REMARK    8  A    between atoms: C_28  and  C_30 
REMARK    9  A    between atoms: C_33  and  C_36 
REMARK   10  A    between atoms: C_37  and  C_38 
ROOT
HETATM    1  C   UNK N   1      32.437  13.733   6.979  0.00  0.00     0.156 C 
HETATM    2  N   UNK N   1      33.372  14.635   7.646  0.00  0.00    -0.354 N 
HETATM    3  C   UNK N   1      33.881  14.400   8.861  0.00  0.00     0.120 A 
HETATM    4  C   UNK N   1      34.598  15.515   9.246  0.00  0.00     0.053 A 
HETATM    5  C   UNK N   1      34.459  16.477   8.264  0.00  0.00     0.066 A 
HETATM    6  C   UNK N   1      33.691  15.890   7.289  0.00  0.00     0.105 A 
ENDROOT
BRANCH   4   7
HETATM    7  N   UNK N   1      34.750  15.900  10.597  0.00  0.00    -0.322 N 
HETATM    8  C   UNK N   1      35.947  15.621  11.180  0.00  0.00     0.256 C 
HETATM    9  O   UNK N   1      36.967  16.007  10.624  0.00  0.00    -0.267 OA
HETATM   10  H   UNK N   1      34.027  16.348  11.092  0.00  0.00     0.169 HD
BRANCH   8  11
HETATM   11  C   UNK N   1      36.017  14.318  11.847  0.00  0.00     0.032 A 
HETATM   12  C   UNK N   1      34.907  13.784  12.498  0.00  0.00     0.018 A 
HETATM   13  C   UNK N   1      34.920  12.446  12.903  0.00  0.00     0.012 A 
HETATM   14  C   UNK N   1      36.023  11.625  12.625  0.00  0.00    -0.036 A 
HETATM   15  C   UNK N   1      37.122  12.163  11.958  0.00  0.00     0.012 A 
HETATM   16  C   UNK N   1      37.127  13.501  11.585  0.00  0.00     0.018 A 
BRANCH  14  17
HETATM   17  C   UNK N   1      36.034  10.172  12.885  0.00  0.00     0.012 C 
HETATM   18  C   UNK N   1      35.780   9.464  14.000  0.00  0.00     0.013 C 
BRANCH  18  19
HETATM   19  C   UNK N   1      35.586   9.891  15.400  0.00  0.00    -0.020 A 
HETATM   20  C   UNK N   1      35.458  11.227  15.789  0.00  0.00     0.026 A 
HETATM   21  C   UNK N   1      35.368  11.556  17.139  0.00  0.00    -0.009 A 
HETATM   22  C   UNK N   1      35.236  12.887  17.543  0.00  0.00     0.014 A 
HETATM   23  C   UNK N   1      35.427  10.528  18.103  0.00  0.00     0.042 A 
HETATM   24  C   UNK N   1      35.168  13.197  18.904  0.00  0.00     0.001 A 
HETATM   25  C   UNK N   1      35.237  12.178  19.862  0.00  0.00     0.002 A 
HETATM   26  C   UNK N   1      35.364  10.844  19.462  0.00  0.00     0.030 A 
HETATM   27  N   UNK N   1      35.553   9.235  17.707  0.00  0.00    -0.364 N 
HETATM   28  C   UNK N   1      35.633   8.903  16.389  0.00  0.00     0.099 A 
ATOM     29  HN  UNK N   1      35.587   8.497  18.410  1.00  0.00     0.165 HD
ENDBRANCH  18  19
ENDBRANCH  14  17
ENDBRANCH   8  11
ENDBRANCH   4   7
BRANCH   6  30
HETATM   30  C   UNK N   1      33.103  16.616   6.164  0.00  0.00     0.273 C 
HETATM   31  O   UNK N   1      33.484  16.428   5.024  0.00  0.00    -0.266 OA
HETATM   32  N   UNK N   1      32.200  17.590   6.430  0.00  0.00    -0.320 N 
HETATM   33  H   UNK N   1      32.444  18.541   6.343  0.00  0.00     0.169 HD
BRANCH  32  34
HETATM   34  C   UNK N   1      30.910  17.212   6.832  0.00  0.00     0.053 A 
HETATM   35  C   UNK N   1      29.868  17.407   5.992  0.00  0.00     0.066 A 
HETATM   36  C   UNK N   1      28.756  17.474   6.767  0.00  0.00     0.104 A 
HETATM   37  N   UNK N   1      29.079  17.269   8.071  0.00  0.00    -0.354 N 
HETATM   38  C   UNK N   1      30.425  17.155   8.126  0.00  0.00     0.120 A 
HETATM   39  C   UNK N   1      28.246  17.448   9.245  0.00  0.00     0.156 C 
BRANCH  36  40
HETATM   40  C   UNK N   1      27.536  18.033   6.150  0.00  0.00     0.268 C 
HETATM   41  O   UNK N   1      27.564  19.228   5.892  0.00  0.00    -0.266 OA
HETATM   42  N   UNK N   1      26.412  17.365   5.842  0.00  0.00    -0.354 N 
HETATM   43  H   UNK N   1      25.721  17.875   5.360  0.00  0.00     0.162 HD
BRANCH  42  44
HETATM   44  C   UNK N   1      26.101  16.005   6.131  0.00  0.00     0.153 C 
BRANCH  44  45
HETATM   45  C   UNK N   1      26.113  15.274   4.796  0.00  0.00     0.292 C 
BRANCH  45  46
HETATM   46  N   UNK N   1      27.475  14.864   4.427  0.00  0.00     0.094 N 
HETATM   47  C   UNK N   1      27.612  13.396   4.334  0.00  0.00     0.298 C 
HETATM   48  C   UNK N   1      26.904  12.846   3.093  0.00  0.00     0.198 C 
HETATM   49  O   UNK N   1      27.470  13.433   1.950  0.00  0.00    -0.388 OA
HETATM   50  C   UNK N   1      27.101  14.788   1.983  0.00  0.00     0.198 C 
HETATM   51  C   UNK N   1      27.821  15.488   3.146  0.00  0.00     0.298 C 
ENDBRANCH  45  46
ENDBRANCH  44  45
ENDBRANCH  42  44
ENDBRANCH  36  40
ENDBRANCH  32  34
ENDBRANCH   6  30
TORSDOF 10
ENDMDL
