MODEL 1
REMARK VINA RESULT:      -5.8      0.000      0.000
REMARK  5 active torsions:
REMARK  status: ('A' for Active; 'I' for Inactive)
REMARK    1  A    between atoms: C_6  and  C_3 
REMARK    2  A    between atoms: O_16  and  C_3 
REMARK    3  A    between atoms: C_5  and  O_17 
REMARK    4  A    between atoms: C_7  and  N_15 
REMARK    5  A    between atoms: O_18  and  C_9 
ROOT
HETATM    1  C   UNK N   1      34.218  15.476   5.022  0.00  0.00     0.143 A 
HETATM    2  C   UNK N   1      34.486  14.588   3.980  0.00  0.00     0.175 A 
HETATM    3  C   UNK N   1      33.914  14.830   2.732  0.00  0.00     0.142 A 
HETATM    4  C   UNK N   1      32.849  16.763   3.584  0.00  0.00     0.227 A 
HETATM    5  F   UNK N   1      35.298  13.521   4.183  0.00  0.00    -0.201 F 
HETATM    6  N   UNK N   1      34.151  14.048   1.748  0.00  0.00    -0.383 N 
ATOM      7  HN  UNK N   1      33.887  14.331   0.804  1.00  0.00     0.157 HD
HETATM    8  N   UNK N   1      33.108  15.905   2.561  0.00  0.00    -0.306 N 
ATOM      9  HN  UNK N   1      32.688  16.075   1.647  1.00  0.00     0.171 HD
HETATM   10  N   UNK N   1      33.405  16.554   4.822  0.00  0.00    -0.293 N 
HETATM   11  H   UNK N   1      34.585  13.176   1.891  0.00  0.00     0.157 HD
ENDROOT
BRANCH  10  12
HETATM   12  C   UNK N   1      33.169  17.520   5.910  0.00  0.00     0.234 C 
HETATM   13  C   UNK N   1      32.146  17.009   6.917  0.00  0.00     0.088 C 
HETATM   14  C   UNK N   1      32.435  17.969   8.019  0.00  0.00     0.153 C 
HETATM   15  C   UNK N   1      33.957  17.973   7.993  0.00  0.00     0.176 C 
HETATM   16  O   UNK N   1      34.348  17.838   6.636  0.00  0.00    -0.356 OA
BRANCH  14  17
HETATM   17  O   UNK N   1      31.897  17.576   9.247  0.00  0.00    -0.393 OA
HETATM   18  H   UNK N   1      31.663  17.956  10.108  0.00  0.00     0.210 HD
ENDBRANCH  14  17
BRANCH  15  19
HETATM   19  C   UNK N   1      34.545  16.811   8.795  0.00  0.00     0.198 C 
BRANCH  19  20
HETATM   20  O   UNK N   1      34.621  17.151  10.146  0.00  0.00    -0.398 OA
HETATM   21  H   UNK N   1      35.083  16.633  10.824  0.00  0.00     0.209 HD
ENDBRANCH  19  20
ENDBRANCH  15  19
ENDBRANCH  10  12
BRANCH   4  22
HETATM   22  O   UNK N   1      32.058  17.829   3.361  0.00  0.00    -0.332 OA
HETATM   23  H   UNK N   1      31.627  17.929   2.534  0.00  0.00     0.221 HD
ENDBRANCH   4  22
TORSDOF 5
ENDMDL
MODEL 2
REMARK VINA RESULT:      -5.6     10.611     12.999
REMARK  5 active torsions:
REMARK  status: ('A' for Active; 'I' for Inactive)
REMARK    1  A    between atoms: C_6  and  C_3 
REMARK    2  A    between atoms: O_16  and  C_3 
REMARK    3  A    between atoms: C_5  and  O_17 
REMARK    4  A    between atoms: C_7  and  N_15 
REMARK    5  A    between atoms: O_18  and  C_9 
ROOT
HETATM    1  C   UNK N   1      35.283  11.402  17.401  0.00  0.00     0.143 A 
HETATM    2  C   UNK N   1      35.284  10.761  18.639  0.00  0.00     0.175 A 
HETATM    3  C   UNK N   1      35.280  11.540  19.795  0.00  0.00     0.142 A 
HETATM    4  C   UNK N   1      35.290  13.507  18.481  0.00  0.00     0.227 A 
HETATM    5  F   UNK N   1      35.276   9.407  18.708  0.00  0.00    -0.201 F 
HETATM    6  N   UNK N   1      35.263  10.988  20.949  0.00  0.00    -0.383 N 
ATOM      7  HN  UNK N   1      35.072  11.554  21.776  1.00  0.00     0.157 HD
HETATM    8  N   UNK N   1      35.287  12.891  19.694  0.00  0.00    -0.306 N 
ATOM      9  HN  UNK N   1      35.290  13.457  20.542  1.00  0.00     0.171 HD
HETATM   10  N   UNK N   1      35.286  12.765  17.325  0.00  0.00    -0.293 N 
HETATM   11  H   UNK N   1      35.434  10.023  21.049  0.00  0.00     0.157 HD
ENDROOT
BRANCH  10  12
HETATM   12  C   UNK N   1      35.229  13.438  16.016  0.00  0.00     0.234 C 
HETATM   13  C   UNK N   1      36.600  13.527  15.358  0.00  0.00     0.088 C 
HETATM   14  C   UNK N   1      36.151  13.858  13.976  0.00  0.00     0.153 C 
HETATM   15  C   UNK N   1      34.985  12.891  13.824  0.00  0.00     0.176 C 
HETATM   16  O   UNK N   1      34.364  12.788  15.095  0.00  0.00    -0.356 OA
BRANCH  14  17
HETATM   17  O   UNK N   1      37.151  13.685  13.016  0.00  0.00    -0.393 OA
HETATM   18  H   UNK N   1      37.978  13.193  12.888  0.00  0.00     0.210 HD
ENDBRANCH  14  17
BRANCH  15  19
HETATM   19  C   UNK N   1      35.449  11.501  13.385  0.00  0.00     0.198 C 
BRANCH  19  20
HETATM   20  O   UNK N   1      35.575  11.454  11.996  0.00  0.00    -0.398 OA
HETATM   21  H   UNK N   1      35.435  10.663  11.453  0.00  0.00     0.209 HD
ENDBRANCH  19  20
ENDBRANCH  15  19
ENDBRANCH  10  12
BRANCH   4  22
HETATM   22  O   UNK N   1      35.277  14.852  18.430  0.00  0.00    -0.332 OA
HETATM   23  H   UNK N   1      34.790  15.341  19.065  0.00  0.00     0.221 HD
ENDBRANCH   4  22
TORSDOF 5
ENDMDL
MODEL 3
REMARK VINA RESULT:      -5.6     11.061     13.366
REMARK  5 active torsions:
REMARK  status: ('A' for Active; 'I' for Inactive)
REMARK    1  A    between atoms: C_6  and  C_3 
REMARK    2  A    between atoms: O_16  and  C_3 
REMARK    3  A    between atoms: C_5  and  O_17 
REMARK    4  A    between atoms: C_7  and  N_15 
REMARK    5  A    between atoms: O_18  and  C_9 
ROOT
HETATM    1  C   UNK N   1      29.616  22.348  -4.908  0.00  0.00     0.143 A 
HETATM    2  C   UNK N   1      30.365  21.193  -5.134  0.00  0.00     0.175 A 
HETATM    3  C   UNK N   1      31.159  20.700  -4.100  0.00  0.00     0.142 A 
HETATM    4  C   UNK N   1      30.466  22.478  -2.703  0.00  0.00     0.227 A 
HETATM    5  F   UNK N   1      30.306  20.564  -6.333  0.00  0.00    -0.201 F 
HETATM    6  N   UNK N   1      31.847  19.633  -4.264  0.00  0.00    -0.383 N 
ATOM      7  HN  UNK N   1      32.272  19.178  -3.456  1.00  0.00     0.157 HD
HETATM    8  N   UNK N   1      31.197  21.350  -2.913  0.00  0.00    -0.306 N 
ATOM      9  HN  UNK N   1      31.783  20.988  -2.161  1.00  0.00     0.171 HD
HETATM   10  N   UNK N   1      29.668  22.983  -3.701  0.00  0.00    -0.293 N 
HETATM   11  H   UNK N   1      31.972  19.247  -5.161  0.00  0.00     0.157 HD
ENDROOT
BRANCH  10  12
HETATM   12  C   UNK N   1      28.833  24.170  -3.448  0.00  0.00     0.234 C 
HETATM   13  C   UNK N   1      28.872  25.155  -4.609  0.00  0.00     0.088 C 
HETATM   14  C   UNK N   1      27.684  25.973  -4.235  0.00  0.00     0.153 C 
HETATM   15  C   UNK N   1      26.707  24.876  -3.833  0.00  0.00     0.176 C 
HETATM   16  O   UNK N   1      27.468  23.849  -3.217  0.00  0.00    -0.356 OA
BRANCH  14  17
HETATM   17  O   UNK N   1      27.221  26.782  -5.276  0.00  0.00    -0.393 OA
HETATM   18  H   UNK N   1      27.500  27.094  -6.150  0.00  0.00     0.210 HD
ENDBRANCH  14  17
BRANCH  15  19
HETATM   19  C   UNK N   1      25.976  24.292  -5.043  0.00  0.00     0.198 C 
BRANCH  19  20
HETATM   20  O   UNK N   1      24.963  25.159  -5.456  0.00  0.00    -0.398 OA
HETATM   21  H   UNK N   1      24.092  25.235  -5.037  0.00  0.00     0.209 HD
ENDBRANCH  19  20
ENDBRANCH  15  19
ENDBRANCH  10  12
BRANCH   4  22
HETATM   22  O   UNK N   1      30.519  23.079  -1.500  0.00  0.00    -0.332 OA
HETATM   23  H   UNK N   1      30.721  23.993  -1.442  0.00  0.00     0.221 HD
ENDBRANCH   4  22
TORSDOF 5
ENDMDL
MODEL 4
REMARK VINA RESULT:      -5.6      3.131      5.688
REMARK  5 active torsions:
REMARK  status: ('A' for Active; 'I' for Inactive)
REMARK    1  A    between atoms: C_6  and  C_3 
REMARK    2  A    between atoms: O_16  and  C_3 
REMARK    3  A    between atoms: C_5  and  O_17 
REMARK    4  A    between atoms: C_7  and  N_15 
REMARK    5  A    between atoms: O_18  and  C_9 
ROOT
HETATM    1  C   UNK N   1      33.539  17.708   7.117  0.00  0.00     0.143 A 
HETATM    2  C   UNK N   1      34.299  17.943   8.262  0.00  0.00     0.175 A 
HETATM    3  C   UNK N   1      34.227  17.028   9.311  0.00  0.00     0.142 A 
HETATM    4  C   UNK N   1      32.679  15.727   8.085  0.00  0.00     0.227 A 
HETATM    5  F   UNK N   1      35.099  19.035   8.340  0.00  0.00    -0.201 F 
HETATM    6  N   UNK N   1      34.923  17.201  10.371  0.00  0.00    -0.383 N 
ATOM      7  HN  UNK N   1      35.010  16.442  11.047  1.00  0.00     0.157 HD
HETATM    8  N   UNK N   1      33.419  15.946   9.204  0.00  0.00    -0.306 N 
ATOM      9  HN  UNK N   1      33.366  15.282   9.977  1.00  0.00     0.171 HD
HETATM   10  N   UNK N   1      32.736  16.608   7.032  0.00  0.00    -0.293 N 
HETATM   11  H   UNK N   1      35.376  18.059  10.543  0.00  0.00     0.157 HD
ENDROOT
BRANCH  10  12
HETATM   12  C   UNK N   1      31.977  16.333   5.799  0.00  0.00     0.234 C 
HETATM   13  C   UNK N   1      32.205  17.402   4.737  0.00  0.00     0.088 C 
HETATM   14  C   UNK N   1      31.668  16.654   3.565  0.00  0.00     0.153 C 
HETATM   15  C   UNK N   1      32.279  15.281   3.807  0.00  0.00     0.176 C 
HETATM   16  O   UNK N   1      32.307  15.083   5.212  0.00  0.00    -0.356 OA
BRANCH  14  17
HETATM   17  O   UNK N   1      32.029  17.220   2.339  0.00  0.00    -0.393 OA
HETATM   18  H   UNK N   1      31.895  17.075   1.390  0.00  0.00     0.210 HD
ENDBRANCH  14  17
BRANCH  15  19
HETATM   19  C   UNK N   1      33.706  15.187   3.265  0.00  0.00     0.198 C 
BRANCH  19  20
HETATM   20  O   UNK N   1      33.696  14.651   1.977  0.00  0.00    -0.398 OA
HETATM   21  H   UNK N   1      33.760  13.706   1.769  0.00  0.00     0.209 HD
ENDBRANCH  19  20
ENDBRANCH  15  19
ENDBRANCH  10  12
BRANCH   4  22
HETATM   22  O   UNK N   1      31.906  14.628   8.016  0.00  0.00    -0.332 OA
HETATM   23  H   UNK N   1      30.991  14.709   7.827  0.00  0.00     0.221 HD
ENDBRANCH   4  22
TORSDOF 5
ENDMDL
MODEL 5
REMARK VINA RESULT:      -5.5      9.969     12.516
REMARK  5 active torsions:
REMARK  status: ('A' for Active; 'I' for Inactive)
REMARK    1  A    between atoms: C_6  and  C_3 
REMARK    2  A    between atoms: O_16  and  C_3 
REMARK    3  A    between atoms: C_5  and  O_17 
REMARK    4  A    between atoms: C_7  and  N_15 
REMARK    5  A    between atoms: O_18  and  C_9 
ROOT
HETATM    1  C   UNK N   1      35.371  13.452  16.883  0.00  0.00     0.143 A 
HETATM    2  C   UNK N   1      35.178  13.807  18.218  0.00  0.00     0.175 A 
HETATM    3  C   UNK N   1      35.174  12.802  19.183  0.00  0.00     0.142 A 
HETATM    4  C   UNK N   1      35.529  11.174  17.505  0.00  0.00     0.227 A 
HETATM    5  F   UNK N   1      35.010  15.108  18.562  0.00  0.00    -0.201 F 
HETATM    6  N   UNK N   1      35.017  13.091  20.420  0.00  0.00    -0.383 N 
ATOM      7  HN  UNK N   1      35.201  12.383  21.131  1.00  0.00     0.157 HD
HETATM    8  N   UNK N   1      35.344  11.511  18.809  0.00  0.00    -0.306 N 
ATOM      9  HN  UNK N   1      35.336  10.779  19.518  1.00  0.00     0.171 HD
HETATM   10  N   UNK N   1      35.545  12.144  16.532  0.00  0.00    -0.293 N 
HETATM   11  H   UNK N   1      34.719  13.989  20.694  0.00  0.00     0.157 HD
ENDROOT
BRANCH  10  12
HETATM   12  C   UNK N   1      35.805  11.778  15.129  0.00  0.00     0.234 C 
HETATM   13  C   UNK N   1      34.573  11.965  14.252  0.00  0.00     0.088 C 
HETATM   14  C   UNK N   1      35.248  11.912  12.924  0.00  0.00     0.153 C 
HETATM   15  C   UNK N   1      36.470  12.776  13.199  0.00  0.00     0.176 C 
HETATM   16  O   UNK N   1      36.854  12.535  14.543  0.00  0.00    -0.356 OA
BRANCH  14  17
HETATM   17  O   UNK N   1      34.448  12.386  11.881  0.00  0.00    -0.393 OA
HETATM   18  H   UNK N   1      34.208  12.157  10.970  0.00  0.00     0.210 HD
ENDBRANCH  14  17
BRANCH  15  19
HETATM   19  C   UNK N   1      36.165  14.266  13.031  0.00  0.00     0.198 C 
BRANCH  19  20
HETATM   20  O   UNK N   1      36.846  15.007  13.997  0.00  0.00    -0.398 OA
HETATM   21  H   UNK N   1      37.807  15.135  14.024  0.00  0.00     0.209 HD
ENDBRANCH  19  20
ENDBRANCH  15  19
ENDBRANCH  10  12
BRANCH   4  22
HETATM   22  O   UNK N   1      35.714   9.880  17.183  0.00  0.00    -0.332 OA
HETATM   23  H   UNK N   1      36.197   9.654  16.411  0.00  0.00     0.221 HD
ENDBRANCH   4  22
TORSDOF 5
ENDMDL
MODEL 6
REMARK VINA RESULT:      -5.5      3.244      4.049
REMARK  5 active torsions:
REMARK  status: ('A' for Active; 'I' for Inactive)
REMARK    1  A    between atoms: C_6  and  C_3 
REMARK    2  A    between atoms: O_16  and  C_3 
REMARK    3  A    between atoms: C_5  and  O_17 
REMARK    4  A    between atoms: C_7  and  N_15 
REMARK    5  A    between atoms: O_18  and  C_9 
ROOT
HETATM    1  C   UNK N   1      30.666  17.155   6.814  0.00  0.00     0.143 A 
HETATM    2  C   UNK N   1      29.505  17.452   6.101  0.00  0.00     0.175 A 
HETATM    3  C   UNK N   1      29.614  17.757   4.745  0.00  0.00     0.142 A 
HETATM    4  C   UNK N   1      31.960  17.483   4.860  0.00  0.00     0.227 A 
HETATM    5  F   UNK N   1      28.298  17.430   6.719  0.00  0.00    -0.201 F 
HETATM    6  N   UNK N   1      28.569  18.018   4.054  0.00  0.00    -0.383 N 
ATOM      7  HN  UNK N   1      28.634  18.053   3.036  1.00  0.00     0.157 HD
HETATM    8  N   UNK N   1      30.833  17.770   4.155  0.00  0.00    -0.306 N 
ATOM      9  HN  UNK N   1      30.908  17.999   3.165  1.00  0.00     0.171 HD
HETATM   10  N   UNK N   1      31.883  17.172   6.196  0.00  0.00    -0.293 N 
HETATM   11  H   UNK N   1      27.703  18.185   4.492  0.00  0.00     0.157 HD
ENDROOT
BRANCH  10  12
HETATM   12  C   UNK N   1      33.101  16.803   6.939  0.00  0.00     0.234 C 
HETATM   13  C   UNK N   1      33.317  17.690   8.158  0.00  0.00     0.088 C 
HETATM   14  C   UNK N   1      34.321  16.843   8.862  0.00  0.00     0.153 C 
HETATM   15  C   UNK N   1      33.702  15.465   8.675  0.00  0.00     0.176 C 
HETATM   16  O   UNK N   1      33.085  15.458   7.398  0.00  0.00    -0.356 OA
BRANCH  14  17
HETATM   17  O   UNK N   1      34.502  17.200  10.201  0.00  0.00    -0.393 OA
HETATM   18  H   UNK N   1      33.996  17.564  10.944  0.00  0.00     0.210 HD
ENDBRANCH  14  17
BRANCH  15  19
HETATM   19  C   UNK N   1      32.644  15.166   9.738  0.00  0.00     0.198 C 
BRANCH  19  20
HETATM   20  O   UNK N   1      33.255  14.922  10.969  0.00  0.00    -0.398 OA
HETATM   21  H   UNK N   1      34.187  15.099  11.170  0.00  0.00     0.209 HD
ENDBRANCH  19  20
ENDBRANCH  15  19
ENDBRANCH  10  12
BRANCH   4  22
HETATM   22  O   UNK N   1      33.148  17.489   4.227  0.00  0.00    -0.332 OA
HETATM   23  H   UNK N   1      33.795  16.844   4.438  0.00  0.00     0.221 HD
ENDBRANCH   4  22
TORSDOF 5
ENDMDL
MODEL 7
REMARK VINA RESULT:      -5.5      4.996      6.616
REMARK  5 active torsions:
REMARK  status: ('A' for Active; 'I' for Inactive)
REMARK    1  A    between atoms: C_6  and  C_3 
REMARK    2  A    between atoms: O_16  and  C_3 
REMARK    3  A    between atoms: C_5  and  O_17 
REMARK    4  A    between atoms: C_7  and  N_15 
REMARK    5  A    between atoms: O_18  and  C_9 
ROOT
HETATM    1  C   UNK N   1      28.579  18.730   5.891  0.00  0.00     0.143 A 
HETATM    2  C   UNK N   1      27.813  19.848   5.563  0.00  0.00     0.175 A 
HETATM    3  C   UNK N   1      27.037  20.442   6.558  0.00  0.00     0.142 A 
HETATM    4  C   UNK N   1      27.782  18.827   8.117  0.00  0.00     0.227 A 
HETATM    5  F   UNK N   1      27.837  20.348   4.303  0.00  0.00    -0.201 F 
HETATM    6  N   UNK N   1      26.334  21.479   6.299  0.00  0.00    -0.383 N 
ATOM      7  HN  UNK N   1      25.923  22.013   7.064  1.00  0.00     0.157 HD
HETATM    8  N   UNK N   1      27.034  19.920   7.808  0.00  0.00    -0.306 N 
ATOM      9  HN  UNK N   1      26.461  20.354   8.530  1.00  0.00     0.171 HD
HETATM   10  N   UNK N   1      28.562  18.225   7.159  0.00  0.00    -0.293 N 
HETATM   11  H   UNK N   1      26.185  21.767   5.369  0.00  0.00     0.157 HD
ENDROOT
BRANCH  10  12
HETATM   12  C   UNK N   1      29.415  17.078   7.516  0.00  0.00     0.234 C 
HETATM   13  C   UNK N   1      30.410  16.741   6.413  0.00  0.00     0.088 C 
HETATM   14  C   UNK N   1      31.325  15.876   7.210  0.00  0.00     0.153 C 
HETATM   15  C   UNK N   1      31.430  16.689   8.493  0.00  0.00     0.176 C 
HETATM   16  O   UNK N   1      30.164  17.293   8.704  0.00  0.00    -0.356 OA
BRANCH  14  17
HETATM   17  O   UNK N   1      32.555  15.653   6.585  0.00  0.00    -0.393 OA
HETATM   18  H   UNK N   1      33.042  14.941   6.142  0.00  0.00     0.210 HD
ENDBRANCH  14  17
BRANCH  15  19
HETATM   19  C   UNK N   1      32.491  17.785   8.389  0.00  0.00     0.198 C 
BRANCH  19  20
HETATM   20  O   UNK N   1      33.719  17.311   8.854  0.00  0.00    -0.398 OA
HETATM   21  H   UNK N   1      33.898  16.394   9.111  0.00  0.00     0.209 HD
ENDBRANCH  19  20
ENDBRANCH  15  19
ENDBRANCH  10  12
BRANCH   4  22
HETATM   22  O   UNK N   1      27.762  18.356   9.378  0.00  0.00    -0.332 OA
HETATM   23  H   UNK N   1      28.353  17.673   9.632  0.00  0.00     0.221 HD
ENDBRANCH   4  22
TORSDOF 5
ENDMDL
MODEL 8
REMARK VINA RESULT:      -5.4     12.509     13.940
REMARK  5 active torsions:
REMARK  status: ('A' for Active; 'I' for Inactive)
REMARK    1  A    between atoms: C_6  and  C_3 
REMARK    2  A    between atoms: O_16  and  C_3 
REMARK    3  A    between atoms: C_5  and  O_17 
REMARK    4  A    between atoms: C_7  and  N_15 
REMARK    5  A    between atoms: O_18  and  C_9 
ROOT
HETATM    1  C   UNK N   1      22.939  13.823   8.940  0.00  0.00     0.143 A 
HETATM    2  C   UNK N   1      23.382  12.764   9.731  0.00  0.00     0.175 A 
HETATM    3  C   UNK N   1      22.477  12.157  10.601  0.00  0.00     0.142 A 
HETATM    4  C   UNK N   1      20.781  13.646   9.895  0.00  0.00     0.227 A 
HETATM    5  F   UNK N   1      24.664  12.332   9.641  0.00  0.00    -0.201 F 
HETATM    6  N   UNK N   1      22.842  11.171  11.331  0.00  0.00    -0.383 N 
ATOM      7  HN  UNK N   1      22.137  10.617  11.818  1.00  0.00     0.157 HD
HETATM    8  N   UNK N   1      21.203  12.610  10.668  0.00  0.00    -0.306 N 
ATOM      9  HN  UNK N   1      20.546  12.166  11.310  1.00  0.00     0.171 HD
HETATM   10  N   UNK N   1      21.649  14.259   9.023  0.00  0.00    -0.293 N 
HETATM   11  H   UNK N   1      23.794  10.940  11.428  0.00  0.00     0.157 HD
ENDROOT
BRANCH  10  12
HETATM   12  C   UNK N   1      21.170  15.342   8.145  0.00  0.00     0.234 C 
HETATM   13  C   UNK N   1      20.018  14.889   7.256  0.00  0.00     0.088 C 
HETATM   14  C   UNK N   1      19.536  16.234   6.834  0.00  0.00     0.153 C 
HETATM   15  C   UNK N   1      19.596  16.981   8.158  0.00  0.00     0.176 C 
HETATM   16  O   UNK N   1      20.721  16.481   8.864  0.00  0.00    -0.356 OA
BRANCH  14  17
HETATM   17  O   UNK N   1      18.261  16.208   6.263  0.00  0.00    -0.393 OA
HETATM   18  H   UNK N   1      17.830  15.985   5.423  0.00  0.00     0.210 HD
ENDBRANCH  14  17
BRANCH  15  19
HETATM   19  C   UNK N   1      18.341  16.750   9.002  0.00  0.00     0.198 C 
BRANCH  19  20
HETATM   20  O   UNK N   1      17.359  17.684   8.666  0.00  0.00    -0.398 OA
HETATM   21  H   UNK N   1      17.255  18.553   9.082  0.00  0.00     0.209 HD
ENDBRANCH  19  20
ENDBRANCH  15  19
ENDBRANCH  10  12
BRANCH   4  22
HETATM   22  O   UNK N   1      19.500  14.050   9.981  0.00  0.00    -0.332 OA
HETATM   23  H   UNK N   1      19.063  14.387   9.223  0.00  0.00     0.221 HD
ENDBRANCH   4  22
TORSDOF 5
ENDMDL
MODEL 9
REMARK VINA RESULT:      -5.3      4.369      6.330
REMARK  5 active torsions:
REMARK  status: ('A' for Active; 'I' for Inactive)
REMARK    1  A    between atoms: C_6  and  C_3 
REMARK    2  A    between atoms: O_16  and  C_3 
REMARK    3  A    between atoms: C_5  and  O_17 
REMARK    4  A    between atoms: C_7  and  N_15 
REMARK    5  A    between atoms: O_18  and  C_9 
ROOT
HETATM    1  C   UNK N   1      35.464  13.611  10.135  0.00  0.00     0.143 A 
HETATM    2  C   UNK N   1      36.079  13.267  11.339  0.00  0.00     0.175 A 
HETATM    3  C   UNK N   1      36.323  14.271  12.275  0.00  0.00     0.142 A 
HETATM    4  C   UNK N   1      35.377  15.875  10.818  0.00  0.00     0.227 A 
HETATM    5  F   UNK N   1      36.418  11.978  11.590  0.00  0.00    -0.201 F 
HETATM    6  N   UNK N   1      36.870  13.990  13.398  0.00  0.00    -0.383 N 
ATOM      7  HN  UNK N   1      36.873  14.686  14.144  1.00  0.00     0.157 HD
HETATM    8  N   UNK N   1      35.973  15.549  11.996  0.00  0.00    -0.306 N 
ATOM      9  HN  UNK N   1      36.158  16.280  12.682  1.00  0.00     0.171 HD
HETATM   10  N   UNK N   1      35.117  14.906   9.880  0.00  0.00    -0.293 N 
HETATM   11  H   UNK N   1      37.288  13.112  13.550  0.00  0.00     0.157 HD
ENDROOT
BRANCH  10  12
HETATM   12  C   UNK N   1      34.417  15.257   8.631  0.00  0.00     0.234 C 
HETATM   13  C   UNK N   1      32.948  15.583   8.872  0.00  0.00     0.088 C 
HETATM   14  C   UNK N   1      32.664  16.251   7.571  0.00  0.00     0.153 C 
HETATM   15  C   UNK N   1      33.910  17.113   7.422  0.00  0.00     0.176 C 
HETATM   16  O   UNK N   1      34.991  16.375   7.969  0.00  0.00    -0.356 OA
BRANCH  14  17
HETATM   17  O   UNK N   1      31.473  16.983   7.576  0.00  0.00    -0.393 OA
HETATM   18  H   UNK N   1      31.090  17.770   7.994  0.00  0.00     0.210 HD
ENDBRANCH  14  17
BRANCH  15  19
HETATM   19  C   UNK N   1      33.782  18.437   8.177  0.00  0.00     0.198 C 
BRANCH  19  20
HETATM   20  O   UNK N   1      35.039  19.020   8.339  0.00  0.00    -0.398 OA
HETATM   21  H   UNK N   1      35.823  18.564   8.683  0.00  0.00     0.209 HD
ENDBRANCH  19  20
ENDBRANCH  15  19
ENDBRANCH  10  12
BRANCH   4  22
HETATM   22  O   UNK N   1      35.028  17.156  10.593  0.00  0.00    -0.332 OA
HETATM   23  H   UNK N   1      34.841  17.725  11.315  0.00  0.00     0.221 HD
ENDBRANCH   4  22
TORSDOF 5
ENDMDL
