MODEL 1
REMARK VINA RESULT:      -6.9      0.000      0.000
REMARK  2 active torsions:
REMARK  status: ('A' for Active; 'I' for Inactive)
REMARK    1  A    between atoms: C_4  and  C_7 
REMARK    2  A    between atoms: C_7  and  N_8 
REMARK       I    between atoms: C_17  and  N_18 
ROOT
HETATM    1  N   UNK N   1      29.464  16.900   5.917  0.00  0.00    -0.177 N 
HETATM    2  C   UNK N   1      29.294  17.351   7.177  0.00  0.00     0.079 A 
HETATM    3  C   UNK N   1      28.116  17.550   7.896  0.00  0.00     0.032 A 
HETATM    4  C   UNK N   1      28.223  18.057   9.204  0.00  0.00     0.002 A 
HETATM    5  C   UNK N   1      29.490  18.360   9.753  0.00  0.00     0.002 A 
HETATM    6  C   UNK N   1      30.659  18.163   8.996  0.00  0.00     0.032 A 
HETATM    7  C   UNK N   1      30.513  17.654   7.710  0.00  0.00     0.076 A 
HETATM    8  N   UNK N   1      31.480  17.419   6.810  0.00  0.00    -0.189 N 
ATOM      9  HN  UNK N   1      32.484  17.555   6.920  1.00  0.00     0.184 HD
HETATM   10  C   UNK N   1      30.816  16.960   5.717  0.00  0.00     0.683 A 
HETATM   11  N   UNK N   1      31.490  16.651   4.497  0.00  0.00    -0.214 N 
HETATM   12  C   UNK N   1      32.903  16.934   4.371  0.00  0.00     0.160 C 
HETATM   13  C   UNK N   1      33.625  15.663   3.935  0.00  0.00     0.134 C 
HETATM   14  N   UNK N   1      33.017  15.145   2.707  0.00  0.00    -0.418 N 
HETATM   15  C   UNK N   1      31.624  14.782   2.980  0.00  0.00     0.134 C 
HETATM   16  C   UNK N   1      30.827  16.025   3.378  0.00  0.00     0.160 C 
HETATM   17  H   UNK N   1      33.488  15.053   1.808  0.00  0.00     0.153 HD
ENDROOT
BRANCH   1  18
HETATM   18  C   UNK N   1      28.423  16.536   4.946  0.00  0.00     0.186 C 
BRANCH  18  19
HETATM   19  C   UNK N   1      27.636  17.689   4.388  0.00  0.00    -0.039 A 
HETATM   20  C   UNK N   1      26.339  17.502   3.891  0.00  0.00     0.009 A 
HETATM   21  C   UNK N   1      25.581  18.592   3.455  0.00  0.00     0.001 A 
HETATM   22  C   UNK N   1      26.108  19.883   3.532  0.00  0.00     0.000 A 
HETATM   23  C   UNK N   1      27.396  20.080   4.042  0.00  0.00     0.001 A 
HETATM   24  C   UNK N   1      28.156  18.986   4.474  0.00  0.00     0.009 A 
ENDBRANCH  18  19
ENDBRANCH   1  18
TORSDOF 2
ENDMDL
MODEL 2
REMARK VINA RESULT:      -6.9     11.108     13.685
REMARK  2 active torsions:
REMARK  status: ('A' for Active; 'I' for Inactive)
REMARK    1  A    between atoms: C_4  and  C_7 
REMARK    2  A    between atoms: C_7  and  N_8 
REMARK       I    between atoms: C_17  and  N_18 
ROOT
HETATM    1  N   UNK N   1      28.251  24.017  -5.523  0.00  0.00    -0.177 N 
HETATM    2  C   UNK N   1      29.081  23.108  -4.973  0.00  0.00     0.079 A 
HETATM    3  C   UNK N   1      29.760  22.049  -5.575  0.00  0.00     0.032 A 
HETATM    4  C   UNK N   1      30.557  21.228  -4.756  0.00  0.00     0.002 A 
HETATM    5  C   UNK N   1      30.647  21.476  -3.367  0.00  0.00     0.002 A 
HETATM    6  C   UNK N   1      29.938  22.544  -2.787  0.00  0.00     0.032 A 
HETATM    7  C   UNK N   1      29.167  23.336  -3.631  0.00  0.00     0.076 A 
HETATM    8  N   UNK N   1      28.391  24.377  -3.291  0.00  0.00    -0.189 N 
ATOM      9  HN  UNK N   1      28.249  24.775  -2.363  1.00  0.00     0.184 HD
HETATM   10  C   UNK N   1      27.836  24.778  -4.464  0.00  0.00     0.683 A 
HETATM   11  N   UNK N   1      26.882  25.839  -4.526  0.00  0.00    -0.214 N 
HETATM   12  C   UNK N   1      26.400  26.437  -3.300  0.00  0.00     0.160 C 
HETATM   13  C   UNK N   1      26.604  27.947  -3.374  0.00  0.00     0.134 C 
HETATM   14  N   UNK N   1      25.960  28.475  -4.579  0.00  0.00    -0.418 N 
HETATM   15  C   UNK N   1      26.604  27.892  -5.759  0.00  0.00     0.134 C 
HETATM   16  C   UNK N   1      26.395  26.376  -5.774  0.00  0.00     0.160 C 
HETATM   17  H   UNK N   1      25.188  29.141  -4.594  0.00  0.00     0.153 HD
ENDROOT
BRANCH   1  18
HETATM   18  C   UNK N   1      27.807  24.098  -6.921  0.00  0.00     0.186 C 
BRANCH  18  19
HETATM   19  C   UNK N   1      26.931  22.967  -7.382  0.00  0.00    -0.039 A 
HETATM   20  C   UNK N   1      27.375  22.063  -8.357  0.00  0.00     0.009 A 
HETATM   21  C   UNK N   1      26.591  20.963  -8.717  0.00  0.00     0.001 A 
HETATM   22  C   UNK N   1      25.363  20.747  -8.087  0.00  0.00     0.000 A 
HETATM   23  C   UNK N   1      24.920  21.636  -7.101  0.00  0.00     0.001 A 
HETATM   24  C   UNK N   1      25.704  22.739  -6.746  0.00  0.00     0.009 A 
ENDBRANCH  18  19
ENDBRANCH   1  18
TORSDOF 2
ENDMDL
MODEL 3
REMARK VINA RESULT:      -6.9     10.924     13.007
REMARK  2 active torsions:
REMARK  status: ('A' for Active; 'I' for Inactive)
REMARK    1  A    between atoms: C_4  and  C_7 
REMARK    2  A    between atoms: C_7  and  N_8 
REMARK       I    between atoms: C_17  and  N_18 
ROOT
HETATM    1  N   UNK N   1      35.465  12.669  14.777  0.00  0.00    -0.177 N 
HETATM    2  C   UNK N   1      35.747  13.471  15.824  0.00  0.00     0.079 A 
HETATM    3  C   UNK N   1      35.192  13.487  17.103  0.00  0.00     0.032 A 
HETATM    4  C   UNK N   1      35.660  14.457  18.010  0.00  0.00     0.002 A 
HETATM    5  C   UNK N   1      36.652  15.385  17.617  0.00  0.00     0.002 A 
HETATM    6  C   UNK N   1      37.181  15.352  16.314  0.00  0.00     0.032 A 
HETATM    7  C   UNK N   1      36.698  14.375  15.450  0.00  0.00     0.076 A 
HETATM    8  N   UNK N   1      37.034  14.183  14.165  0.00  0.00    -0.189 N 
ATOM      9  HN  UNK N   1      37.712  14.706  13.610  1.00  0.00     0.184 HD
HETATM   10  C   UNK N   1      36.266  13.134  13.770  0.00  0.00     0.683 A 
HETATM   11  N   UNK N   1      36.278  12.650  12.427  0.00  0.00    -0.214 N 
HETATM   12  C   UNK N   1      37.042  13.356  11.421  0.00  0.00     0.160 C 
HETATM   13  C   UNK N   1      37.983  12.371  10.734  0.00  0.00     0.134 C 
HETATM   14  N   UNK N   1      37.216  11.242  10.205  0.00  0.00    -0.418 N 
HETATM   15  C   UNK N   1      36.582  10.531  11.319  0.00  0.00     0.134 C 
HETATM   16  C   UNK N   1      35.585  11.450  12.026  0.00  0.00     0.160 C 
HETATM   17  H   UNK N   1      37.137  10.990   9.220  0.00  0.00     0.153 HD
ENDROOT
BRANCH   1  18
HETATM   18  C   UNK N   1      34.449  11.610  14.706  0.00  0.00     0.186 C 
BRANCH  18  19
HETATM   19  C   UNK N   1      34.816  10.323  15.390  0.00  0.00    -0.039 A 
HETATM   20  C   UNK N   1      35.522   9.321  14.711  0.00  0.00     0.009 A 
HETATM   21  C   UNK N   1      35.935   8.165  15.380  0.00  0.00     0.001 A 
HETATM   22  C   UNK N   1      35.662   8.011  16.741  0.00  0.00     0.000 A 
HETATM   23  C   UNK N   1      34.971   9.014  17.429  0.00  0.00     0.001 A 
HETATM   24  C   UNK N   1      34.553  10.169  16.757  0.00  0.00     0.009 A 
ENDBRANCH  18  19
ENDBRANCH   1  18
TORSDOF 2
ENDMDL
MODEL 4
REMARK VINA RESULT:      -6.9      2.766      5.028
REMARK  2 active torsions:
REMARK  status: ('A' for Active; 'I' for Inactive)
REMARK    1  A    between atoms: C_4  and  C_7 
REMARK    2  A    between atoms: C_7  and  N_8 
REMARK       I    between atoms: C_17  and  N_18 
ROOT
HETATM    1  N   UNK N   1      31.442  16.141   7.569  0.00  0.00    -0.177 N 
HETATM    2  C   UNK N   1      30.327  16.875   7.757  0.00  0.00     0.079 A 
HETATM    3  C   UNK N   1      29.092  16.793   7.114  0.00  0.00     0.032 A 
HETATM    4  C   UNK N   1      28.091  17.706   7.493  0.00  0.00     0.002 A 
HETATM    5  C   UNK N   1      28.348  18.677   8.488  0.00  0.00     0.002 A 
HETATM    6  C   UNK N   1      29.609  18.744   9.108  0.00  0.00     0.032 A 
HETATM    7  C   UNK N   1      30.570  17.820   8.710  0.00  0.00     0.076 A 
HETATM    8  N   UNK N   1      31.837  17.723   9.141  0.00  0.00    -0.189 N 
ATOM      9  HN  UNK N   1      32.306  18.295   9.843  1.00  0.00     0.184 HD
HETATM   10  C   UNK N   1      32.355  16.690   8.427  0.00  0.00     0.683 A 
HETATM   11  N   UNK N   1      33.724  16.300   8.545  0.00  0.00    -0.214 N 
HETATM   12  C   UNK N   1      34.622  17.087   9.361  0.00  0.00     0.160 C 
HETATM   13  C   UNK N   1      35.305  16.170  10.371  0.00  0.00     0.134 C 
HETATM   14  N   UNK N   1      35.963  15.065   9.670  0.00  0.00    -0.418 N 
HETATM   15  C   UNK N   1      34.948  14.267   8.976  0.00  0.00     0.134 C 
HETATM   16  C   UNK N   1      34.254  15.117   7.910  0.00  0.00     0.160 C 
HETATM   17  H   UNK N   1      36.966  14.881   9.666  0.00  0.00     0.153 HD
ENDROOT
BRANCH   1  18
HETATM   18  C   UNK N   1      31.658  15.071   6.585  0.00  0.00     0.186 C 
BRANCH  18  19
HETATM   19  C   UNK N   1      32.134  15.529   5.234  0.00  0.00    -0.039 A 
HETATM   20  C   UNK N   1      32.043  16.875   4.855  0.00  0.00     0.009 A 
HETATM   21  C   UNK N   1      32.567  17.307   3.634  0.00  0.00     0.001 A 
HETATM   22  C   UNK N   1      33.206  16.396   2.789  0.00  0.00     0.000 A 
HETATM   23  C   UNK N   1      33.315  15.054   3.167  0.00  0.00     0.001 A 
HETATM   24  C   UNK N   1      32.785  14.622   4.388  0.00  0.00     0.009 A 
ENDBRANCH  18  19
ENDBRANCH   1  18
TORSDOF 2
ENDMDL
MODEL 5
REMARK VINA RESULT:      -6.9     11.946     13.657
REMARK  2 active torsions:
REMARK  status: ('A' for Active; 'I' for Inactive)
REMARK    1  A    between atoms: C_4  and  C_7 
REMARK    2  A    between atoms: C_7  and  N_8 
REMARK       I    between atoms: C_17  and  N_18 
ROOT
HETATM    1  N   UNK N   1      27.762  23.546  -5.241  0.00  0.00    -0.177 N 
HETATM    2  C   UNK N   1      29.007  23.755  -4.765  0.00  0.00     0.079 A 
HETATM    3  C   UNK N   1      29.410  24.296  -3.545  0.00  0.00     0.032 A 
HETATM    4  C   UNK N   1      30.792  24.422  -3.307  0.00  0.00     0.002 A 
HETATM    5  C   UNK N   1      31.727  24.020  -4.289  0.00  0.00     0.002 A 
HETATM    6  C   UNK N   1      31.287  23.491  -5.516  0.00  0.00     0.032 A 
HETATM    7  C   UNK N   1      29.914  23.376  -5.710  0.00  0.00     0.076 A 
HETATM    8  N   UNK N   1      29.279  22.934  -6.807  0.00  0.00    -0.189 N 
ATOM      9  HN  UNK N   1      29.692  22.590  -7.674  1.00  0.00     0.184 HD
HETATM   10  C   UNK N   1      27.961  23.049  -6.499  0.00  0.00     0.683 A 
HETATM   11  N   UNK N   1      26.934  22.735  -7.441  0.00  0.00    -0.214 N 
HETATM   12  C   UNK N   1      27.293  22.390  -8.799  0.00  0.00     0.160 C 
HETATM   13  C   UNK N   1      26.653  21.052  -9.155  0.00  0.00     0.134 C 
HETATM   14  N   UNK N   1      25.208  21.119  -8.928  0.00  0.00    -0.418 N 
HETATM   15  C   UNK N   1      24.959  21.354  -7.503  0.00  0.00     0.134 C 
HETATM   16  C   UNK N   1      25.535  22.708  -7.088  0.00  0.00     0.160 C 
HETATM   17  H   UNK N   1      24.491  21.017  -9.645  0.00  0.00     0.153 HD
ENDROOT
BRANCH   1  18
HETATM   18  C   UNK N   1      26.486  23.883  -4.595  0.00  0.00     0.186 C 
BRANCH  18  19
HETATM   19  C   UNK N   1      26.141  25.347  -4.582  0.00  0.00    -0.039 A 
HETATM   20  C   UNK N   1      25.436  25.931  -5.643  0.00  0.00     0.009 A 
HETATM   21  C   UNK N   1      25.043  27.271  -5.583  0.00  0.00     0.001 A 
HETATM   22  C   UNK N   1      25.336  28.033  -4.449  0.00  0.00     0.000 A 
HETATM   23  C   UNK N   1      26.025  27.453  -3.379  0.00  0.00     0.001 A 
HETATM   24  C   UNK N   1      26.422  26.112  -3.443  0.00  0.00     0.009 A 
ENDBRANCH  18  19
ENDBRANCH   1  18
TORSDOF 2
ENDMDL
MODEL 6
REMARK VINA RESULT:      -6.8      2.028      4.881
REMARK  2 active torsions:
REMARK  status: ('A' for Active; 'I' for Inactive)
REMARK    1  A    between atoms: C_4  and  C_7 
REMARK    2  A    between atoms: C_7  and  N_8 
REMARK       I    between atoms: C_17  and  N_18 
ROOT
HETATM    1  N   UNK N   1      28.666  17.335   5.701  0.00  0.00    -0.177 N 
HETATM    2  C   UNK N   1      28.133  18.573   5.692  0.00  0.00     0.079 A 
HETATM    3  C   UNK N   1      28.196  19.573   6.662  0.00  0.00     0.032 A 
HETATM    4  C   UNK N   1      27.524  20.782   6.404  0.00  0.00     0.002 A 
HETATM    5  C   UNK N   1      26.805  20.959   5.200  0.00  0.00     0.002 A 
HETATM    6  C   UNK N   1      26.748  19.925   4.247  0.00  0.00     0.032 A 
HETATM    7  C   UNK N   1      27.430  18.748   4.536  0.00  0.00     0.076 A 
HETATM    8  N   UNK N   1      27.484  17.632   3.792  0.00  0.00    -0.189 N 
ATOM      9  HN  UNK N   1      27.053  17.463   2.883  1.00  0.00     0.184 HD
HETATM   10  C   UNK N   1      28.244  16.777   4.525  0.00  0.00     0.683 A 
HETATM   11  N   UNK N   1      28.492  15.435   4.105  0.00  0.00    -0.214 N 
HETATM   12  C   UNK N   1      27.832  14.924   2.924  0.00  0.00     0.160 C 
HETATM   13  C   UNK N   1      28.885  14.365   1.972  0.00  0.00     0.134 C 
HETATM   14  N   UNK N   1      29.701  13.367   2.668  0.00  0.00    -0.418 N 
HETATM   15  C   UNK N   1      30.414  14.019   3.770  0.00  0.00     0.134 C 
HETATM   16  C   UNK N   1      29.414  14.562   4.792  0.00  0.00     0.160 C 
HETATM   17  H   UNK N   1      29.763  12.379   2.424  0.00  0.00     0.153 HD
ENDROOT
BRANCH   1  18
HETATM   18  C   UNK N   1      29.429  16.694   6.780  0.00  0.00     0.186 C 
BRANCH  18  19
HETATM   19  C   UNK N   1      30.850  17.165   6.928  0.00  0.00    -0.039 A 
HETATM   20  C   UNK N   1      31.353  17.560   8.175  0.00  0.00     0.009 A 
HETATM   21  C   UNK N   1      32.697  17.912   8.320  0.00  0.00     0.001 A 
HETATM   22  C   UNK N   1      33.555  17.854   7.220  0.00  0.00     0.000 A 
HETATM   23  C   UNK N   1      33.065  17.446   5.975  0.00  0.00     0.001 A 
HETATM   24  C   UNK N   1      31.717  17.097   5.830  0.00  0.00     0.009 A 
ENDBRANCH  18  19
ENDBRANCH   1  18
TORSDOF 2
ENDMDL
MODEL 7
REMARK VINA RESULT:      -6.7      3.216      6.136
REMARK  2 active torsions:
REMARK  status: ('A' for Active; 'I' for Inactive)
REMARK    1  A    between atoms: C_4  and  C_7 
REMARK    2  A    between atoms: C_7  and  N_8 
REMARK       I    between atoms: C_17  and  N_18 
ROOT
HETATM    1  N   UNK N   1      33.489  16.929   6.946  0.00  0.00    -0.177 N 
HETATM    2  C   UNK N   1      33.369  16.751   5.615  0.00  0.00     0.079 A 
HETATM    3  C   UNK N   1      32.722  17.545   4.669  0.00  0.00     0.032 A 
HETATM    4  C   UNK N   1      32.731  17.112   3.330  0.00  0.00     0.002 A 
HETATM    5  C   UNK N   1      33.370  15.903   2.973  0.00  0.00     0.002 A 
HETATM    6  C   UNK N   1      34.001  15.115   3.954  0.00  0.00     0.032 A 
HETATM    7  C   UNK N   1      33.976  15.581   5.264  0.00  0.00     0.076 A 
HETATM    8  N   UNK N   1      34.482  14.982   6.354  0.00  0.00    -0.189 N 
ATOM      9  HN  UNK N   1      34.986  14.096   6.404  1.00  0.00     0.184 HD
HETATM   10  C   UNK N   1      34.170  15.823   7.374  0.00  0.00     0.683 A 
HETATM   11  N   UNK N   1      34.482  15.512   8.732  0.00  0.00    -0.214 N 
HETATM   12  C   UNK N   1      35.046  14.220   9.058  0.00  0.00     0.160 C 
HETATM   13  C   UNK N   1      36.334  14.428   9.849  0.00  0.00     0.134 C 
HETATM   14  N   UNK N   1      36.065  15.264  11.020  0.00  0.00    -0.418 N 
HETATM   15  C   UNK N   1      35.613  16.584  10.572  0.00  0.00     0.134 C 
HETATM   16  C   UNK N   1      34.294  16.454   9.809  0.00  0.00     0.160 C 
HETATM   17  H   UNK N   1      36.174  14.974  11.992  0.00  0.00     0.153 HD
ENDROOT
BRANCH   1  18
HETATM   18  C   UNK N   1      32.918  18.009   7.763  0.00  0.00     0.186 C 
BRANCH  18  19
HETATM   19  C   UNK N   1      31.438  17.911   8.011  0.00  0.00    -0.039 A 
HETATM   20  C   UNK N   1      30.642  17.016   7.283  0.00  0.00     0.009 A 
HETATM   21  C   UNK N   1      29.285  16.868   7.581  0.00  0.00     0.001 A 
HETATM   22  C   UNK N   1      28.716  17.600   8.625  0.00  0.00     0.000 A 
HETATM   23  C   UNK N   1      29.507  18.483   9.367  0.00  0.00     0.001 A 
HETATM   24  C   UNK N   1      30.866  18.634   9.065  0.00  0.00     0.009 A 
ENDBRANCH  18  19
ENDBRANCH   1  18
TORSDOF 2
ENDMDL
MODEL 8
REMARK VINA RESULT:      -6.7      2.584      5.614
REMARK  2 active torsions:
REMARK  status: ('A' for Active; 'I' for Inactive)
REMARK    1  A    between atoms: C_4  and  C_7 
REMARK    2  A    between atoms: C_7  and  N_8 
REMARK       I    between atoms: C_17  and  N_18 
ROOT
HETATM    1  N   UNK N   1      31.668  17.061   7.181  0.00  0.00    -0.177 N 
HETATM    2  C   UNK N   1      30.632  17.521   7.912  0.00  0.00     0.079 A 
HETATM    3  C   UNK N   1      30.638  18.341   9.040  0.00  0.00     0.032 A 
HETATM    4  C   UNK N   1      29.399  18.657   9.629  0.00  0.00     0.002 A 
HETATM    5  C   UNK N   1      28.198  18.141   9.090  0.00  0.00     0.002 A 
HETATM    6  C   UNK N   1      28.227  17.304   7.960  0.00  0.00     0.032 A 
HETATM    7  C   UNK N   1      29.470  17.021   7.403  0.00  0.00     0.076 A 
HETATM    8  N   UNK N   1      29.732  16.226   6.353  0.00  0.00    -0.189 N 
ATOM      9  HN  UNK N   1      29.068  15.712   5.775  1.00  0.00     0.184 HD
HETATM   10  C   UNK N   1      31.086  16.263   6.236  0.00  0.00     0.683 A 
HETATM   11  N   UNK N   1      31.781  15.486   5.260  0.00  0.00    -0.214 N 
HETATM   12  C   UNK N   1      31.048  14.546   4.441  0.00  0.00     0.160 C 
HETATM   13  C   UNK N   1      31.341  14.836   2.972  0.00  0.00     0.134 C 
HETATM   14  N   UNK N   1      32.787  14.812   2.743  0.00  0.00    -0.418 N 
HETATM   15  C   UNK N   1      33.414  15.878   3.530  0.00  0.00     0.134 C 
HETATM   16  C   UNK N   1      33.198  15.623   5.022  0.00  0.00     0.160 C 
HETATM   17  H   UNK N   1      33.279  14.158   2.134  0.00  0.00     0.153 HD
ENDROOT
BRANCH   1  18
HETATM   18  C   UNK N   1      33.102  17.280   7.419  0.00  0.00     0.186 C 
BRANCH  18  19
HETATM   19  C   UNK N   1      33.655  16.621   8.652  0.00  0.00    -0.039 A 
HETATM   20  C   UNK N   1      33.258  15.327   9.017  0.00  0.00     0.009 A 
HETATM   21  C   UNK N   1      33.842  14.688  10.115  0.00  0.00     0.001 A 
HETATM   22  C   UNK N   1      34.845  15.332  10.844  0.00  0.00     0.000 A 
HETATM   23  C   UNK N   1      35.257  16.617  10.476  0.00  0.00     0.001 A 
HETATM   24  C   UNK N   1      34.668  17.257   9.379  0.00  0.00     0.009 A 
ENDBRANCH  18  19
ENDBRANCH   1  18
TORSDOF 2
ENDMDL
MODEL 9
REMARK VINA RESULT:      -6.6      4.952      8.207
REMARK  2 active torsions:
REMARK  status: ('A' for Active; 'I' for Inactive)
REMARK    1  A    between atoms: C_4  and  C_7 
REMARK    2  A    between atoms: C_7  and  N_8 
REMARK       I    between atoms: C_17  and  N_18 
ROOT
HETATM    1  N   UNK N   1      23.842  18.612   4.543  0.00  0.00    -0.177 N 
HETATM    2  C   UNK N   1      25.162  18.885   4.533  0.00  0.00     0.079 A 
HETATM    3  C   UNK N   1      26.192  18.312   5.279  0.00  0.00     0.032 A 
HETATM    4  C   UNK N   1      27.496  18.804   5.086  0.00  0.00     0.002 A 
HETATM    5  C   UNK N   1      27.737  19.854   4.170  0.00  0.00     0.002 A 
HETATM    6  C   UNK N   1      26.674  20.421   3.443  0.00  0.00     0.032 A 
HETATM    7  C   UNK N   1      25.401  19.903   3.657  0.00  0.00     0.076 A 
HETATM    8  N   UNK N   1      24.250  20.310   3.101  0.00  0.00    -0.189 N 
ATOM      9  HN  UNK N   1      24.113  21.053   2.416  1.00  0.00     0.184 HD
HETATM   10  C   UNK N   1      23.306  19.508   3.659  0.00  0.00     0.683 A 
HETATM   11  N   UNK N   1      21.916  19.665   3.375  0.00  0.00    -0.214 N 
HETATM   12  C   UNK N   1      21.475  20.774   2.557  0.00  0.00     0.160 C 
HETATM   13  C   UNK N   1      20.635  20.235   1.403  0.00  0.00     0.134 C 
HETATM   14  N   UNK N   1      19.538  19.420   1.928  0.00  0.00    -0.418 N 
HETATM   15  C   UNK N   1      20.098  18.264   2.635  0.00  0.00     0.134 C 
HETATM   16  C   UNK N   1      20.916  18.733   3.839  0.00  0.00     0.160 C 
HETATM   17  H   UNK N   1      18.545  19.624   1.819  0.00  0.00     0.153 HD
ENDROOT
BRANCH   1  18
HETATM   18  C   UNK N   1      23.131  17.648   5.393  0.00  0.00     0.186 C 
BRANCH  18  19
HETATM   19  C   UNK N   1      23.372  16.201   5.062  0.00  0.00    -0.039 A 
HETATM   20  C   UNK N   1      23.196  15.721   3.757  0.00  0.00     0.009 A 
HETATM   21  C   UNK N   1      23.507  14.396   3.440  0.00  0.00     0.001 A 
HETATM   22  C   UNK N   1      24.016  13.544   4.423  0.00  0.00     0.000 A 
HETATM   23  C   UNK N   1      24.209  14.020   5.724  0.00  0.00     0.001 A 
HETATM   24  C   UNK N   1      23.893  15.347   6.042  0.00  0.00     0.009 A 
ENDBRANCH  18  19
ENDBRANCH   1  18
TORSDOF 2
ENDMDL
