MODEL 1
REMARK VINA RESULT:      -6.9      0.000      0.000
REMARK  2 active torsions:
REMARK  status: ('A' for Active; 'I' for Inactive)
REMARK    1  A    between atoms: C_7  and  S_8 
REMARK    2  A    between atoms: S_8  and  C_9 
REMARK       I    between atoms: C_19  and  N_22 
ROOT
HETATM    1  C   UNK N   1      29.612  16.389   2.969  0.00  0.00     0.049 C 
HETATM    2  C   UNK N   1      30.695  16.665   3.955  0.00  0.00    -0.044 A 
HETATM    3  C   UNK N   1      31.985  16.841   3.459  0.00  0.00     0.010 A 
HETATM    4  C   UNK N   1      33.030  17.186   4.305  0.00  0.00     0.032 A 
HETATM    5  C   UNK N   1      32.804  17.365   5.664  0.00  0.00     0.066 A 
HETATM    6  C   UNK N   1      31.511  17.167   6.215  0.00  0.00     0.077 A 
HETATM    7  C   UNK N   1      30.431  16.800   5.342  0.00  0.00     0.029 A 
HETATM    8  C   UNK N   1      31.372  17.383   7.611  0.00  0.00     0.273 A 
HETATM    9  O   UNK N   1      30.306  17.227   8.177  0.00  0.00    -0.267 OA
HETATM   10  N   UNK N   1      32.455  17.787   8.349  0.00  0.00    -0.156 N 
HETATM   11  C   UNK N   1      33.668  17.982   7.777  0.00  0.00     0.679 A 
HETATM   12  N   UNK N   1      33.836  17.764   6.452  0.00  0.00    -0.191 N 
ATOM     13  HN  UNK N   1      34.757  17.902   6.036  1.00  0.00     0.184 HD
HETATM   14  N   UNK N   1      34.751  18.428   8.559  0.00  0.00    -0.234 N 
HETATM   15  H   UNK N   1      32.349  17.940   9.316  0.00  0.00     0.187 HD
HETATM   16  H   UNK N   1      35.625  18.650   8.164  0.00  0.00     0.174 HD
HETATM   17  H   UNK N   1      34.631  18.519   9.533  0.00  0.00     0.174 HD
ENDROOT
BRANCH   7  18
HETATM   18  S   UNK N   1      28.708  16.668   5.938  0.00  0.00    -0.089 SA
BRANCH  18  19
HETATM   19  C   UNK N   1      28.008  18.315   5.669  0.00  0.00     0.008 A 
HETATM   20  C   UNK N   1      27.704  18.808   4.395  0.00  0.00     0.036 A 
HETATM   21  C   UNK N   1      27.284  20.133   4.248  0.00  0.00     0.089 A 
HETATM   22  N   UNK N   1      27.181  20.943   5.335  0.00  0.00    -0.375 N 
HETATM   23  C   UNK N   1      27.470  20.489   6.584  0.00  0.00     0.089 A 
ATOM     24  HN  UNK N   1      26.880  21.910   5.213  1.00  0.00     0.164 HD
HETATM   25  C   UNK N   1      27.894  19.171   6.769  0.00  0.00     0.036 A 
ENDBRANCH  18  19
ENDBRANCH   7  18
TORSDOF 2
ENDMDL
MODEL 2
REMARK VINA RESULT:      -6.6      8.253     10.505
REMARK  2 active torsions:
REMARK  status: ('A' for Active; 'I' for Inactive)
REMARK    1  A    between atoms: C_7  and  S_8 
REMARK    2  A    between atoms: S_8  and  C_9 
REMARK       I    between atoms: C_19  and  N_22 
ROOT
HETATM    1  C   UNK N   1      34.714  10.666  11.154  0.00  0.00     0.049 C 
HETATM    2  C   UNK N   1      34.633  11.148  12.563  0.00  0.00    -0.044 A 
HETATM    3  C   UNK N   1      33.826  10.430  13.442  0.00  0.00     0.010 A 
HETATM    4  C   UNK N   1      33.766  10.766  14.787  0.00  0.00     0.032 A 
HETATM    5  C   UNK N   1      34.518  11.826  15.280  0.00  0.00     0.066 A 
HETATM    6  C   UNK N   1      35.331  12.602  14.413  0.00  0.00     0.077 A 
HETATM    7  C   UNK N   1      35.385  12.261  13.019  0.00  0.00     0.029 A 
HETATM    8  C   UNK N   1      36.072  13.657  15.007  0.00  0.00     0.273 A 
HETATM    9  O   UNK N   1      36.788  14.385  14.345  0.00  0.00    -0.267 OA
HETATM   10  N   UNK N   1      35.995  13.866  16.360  0.00  0.00    -0.156 N 
HETATM   11  C   UNK N   1      35.219  13.088  17.153  0.00  0.00     0.679 A 
HETATM   12  N   UNK N   1      34.485  12.087  16.613  0.00  0.00    -0.191 N 
ATOM     13  HN  UNK N   1      33.896  11.517  17.219  1.00  0.00     0.184 HD
HETATM   14  N   UNK N   1      35.187  13.311  18.544  0.00  0.00    -0.234 N 
HETATM   15  H   UNK N   1      36.515  14.598  16.765  0.00  0.00     0.187 HD
HETATM   16  H   UNK N   1      34.694  12.720  19.157  0.00  0.00     0.174 HD
HETATM   17  H   UNK N   1      35.674  14.083  18.914  0.00  0.00     0.174 HD
ENDROOT
BRANCH   7  18
HETATM   18  S   UNK N   1      36.514  13.109  11.859  0.00  0.00    -0.089 SA
BRANCH  18  19
HETATM   19  C   UNK N   1      35.516  14.443  11.149  0.00  0.00     0.008 A 
HETATM   20  C   UNK N   1      34.356  14.203  10.404  0.00  0.00     0.036 A 
HETATM   21  C   UNK N   1      33.703  15.269   9.777  0.00  0.00     0.089 A 
HETATM   22  N   UNK N   1      34.198  16.532   9.883  0.00  0.00    -0.375 N 
HETATM   23  C   UNK N   1      35.324  16.791  10.601  0.00  0.00     0.089 A 
ATOM     24  HN  UNK N   1      33.716  17.299   9.415  1.00  0.00     0.164 HD
HETATM   25  C   UNK N   1      36.004  15.750  11.238  0.00  0.00     0.036 A 
ENDBRANCH  18  19
ENDBRANCH   7  18
TORSDOF 2
ENDMDL
MODEL 3
REMARK VINA RESULT:      -6.5      2.847      4.968
REMARK  2 active torsions:
REMARK  status: ('A' for Active; 'I' for Inactive)
REMARK    1  A    between atoms: C_7  and  S_8 
REMARK    2  A    between atoms: S_8  and  C_9 
REMARK       I    between atoms: C_19  and  N_22 
ROOT
HETATM    1  C   UNK N   1      28.916  17.102   5.033  0.00  0.00     0.049 C 
HETATM    2  C   UNK N   1      29.946  17.185   6.107  0.00  0.00    -0.044 A 
HETATM    3  C   UNK N   1      29.527  16.963   7.417  0.00  0.00     0.010 A 
HETATM    4  C   UNK N   1      30.441  16.938   8.461  0.00  0.00     0.032 A 
HETATM    5  C   UNK N   1      31.796  17.130   8.213  0.00  0.00     0.066 A 
HETATM    6  C   UNK N   1      32.261  17.388   6.897  0.00  0.00     0.077 A 
HETATM    7  C   UNK N   1      31.314  17.424   5.818  0.00  0.00     0.029 A 
HETATM    8  C   UNK N   1      33.661  17.560   6.738  0.00  0.00     0.273 A 
HETATM    9  O   UNK N   1      34.154  17.796   5.651  0.00  0.00    -0.267 OA
HETATM   10  N   UNK N   1      34.489  17.451   7.826  0.00  0.00    -0.156 N 
HETATM   11  C   UNK N   1      34.002  17.185   9.062  0.00  0.00     0.679 A 
HETATM   12  N   UNK N   1      32.669  17.036   9.249  0.00  0.00    -0.191 N 
ATOM     13  HN  UNK N   1      32.315  16.849  10.186  1.00  0.00     0.184 HD
HETATM   14  N   UNK N   1      34.884  17.049  10.152  0.00  0.00    -0.234 N 
HETATM   15  H   UNK N   1      35.460  17.567   7.706  0.00  0.00     0.187 HD
HETATM   16  H   UNK N   1      34.572  16.784  11.047  0.00  0.00     0.174 HD
HETATM   17  H   UNK N   1      35.843  17.225  10.014  0.00  0.00     0.174 HD
ENDROOT
BRANCH   7  18
HETATM   18  S   UNK N   1      31.838  17.602   4.077  0.00  0.00    -0.089 SA
BRANCH  18  19
HETATM   19  C   UNK N   1      32.256  15.920   3.554  0.00  0.00     0.008 A 
HETATM   20  C   UNK N   1      33.541  15.557   3.136  0.00  0.00     0.036 A 
HETATM   21  C   UNK N   1      33.766  14.274   2.626  0.00  0.00     0.089 A 
HETATM   22  N   UNK N   1      32.740  13.387   2.527  0.00  0.00    -0.375 N 
HETATM   23  C   UNK N   1      31.482  13.716   2.927  0.00  0.00     0.089 A 
ATOM     24  HN  UNK N   1      32.916  12.458   2.147  1.00  0.00     0.164 HD
HETATM   25  C   UNK N   1      31.219  14.988   3.439  0.00  0.00     0.036 A 
ENDBRANCH  18  19
ENDBRANCH   7  18
TORSDOF 2
ENDMDL
MODEL 4
REMARK VINA RESULT:      -6.4      1.993      3.537
REMARK  2 active torsions:
REMARK  status: ('A' for Active; 'I' for Inactive)
REMARK    1  A    between atoms: C_7  and  S_8 
REMARK    2  A    between atoms: S_8  and  C_9 
REMARK       I    between atoms: C_19  and  N_22 
ROOT
HETATM    1  C   UNK N   1      30.596  18.022   8.897  0.00  0.00     0.049 C 
HETATM    2  C   UNK N   1      31.320  17.633   7.653  0.00  0.00    -0.044 A 
HETATM    3  C   UNK N   1      32.712  17.691   7.675  0.00  0.00     0.010 A 
HETATM    4  C   UNK N   1      33.458  17.263   6.585  0.00  0.00     0.032 A 
HETATM    5  C   UNK N   1      32.825  16.764   5.453  0.00  0.00     0.066 A 
HETATM    6  C   UNK N   1      31.408  16.715   5.378  0.00  0.00     0.077 A 
HETATM    7  C   UNK N   1      30.636  17.167   6.501  0.00  0.00     0.029 A 
HETATM    8  C   UNK N   1      30.850  16.180   4.188  0.00  0.00     0.273 A 
HETATM    9  O   UNK N   1      29.647  16.107   4.025  0.00  0.00    -0.267 OA
HETATM   10  N   UNK N   1      31.677  15.722   3.194  0.00  0.00    -0.156 N 
HETATM   11  C   UNK N   1      33.026  15.772   3.316  0.00  0.00     0.679 A 
HETATM   12  N   UNK N   1      33.587  16.296   4.431  0.00  0.00    -0.191 N 
ATOM     13  HN  UNK N   1      34.603  16.339   4.505  1.00  0.00     0.184 HD
HETATM   14  N   UNK N   1      33.845  15.264   2.289  0.00  0.00    -0.234 N 
HETATM   15  H   UNK N   1      31.282  15.348   2.373  0.00  0.00     0.187 HD
HETATM   16  H   UNK N   1      34.824  15.217   2.376  0.00  0.00     0.174 HD
HETATM   17  H   UNK N   1      33.425  14.947   1.457  0.00  0.00     0.174 HD
ENDROOT
BRANCH   7  18
HETATM   18  S   UNK N   1      28.816  17.005   6.552  0.00  0.00    -0.089 SA
BRANCH  18  19
HETATM   19  C   UNK N   1      28.201  18.638   6.069  0.00  0.00     0.008 A 
HETATM   20  C   UNK N   1      27.791  19.596   7.003  0.00  0.00     0.036 A 
HETATM   21  C   UNK N   1      27.208  20.788   6.561  0.00  0.00     0.089 A 
HETATM   22  N   UNK N   1      27.033  21.012   5.231  0.00  0.00    -0.375 N 
HETATM   23  C   UNK N   1      27.423  20.097   4.304  0.00  0.00     0.089 A 
ATOM     24  HN  UNK N   1      26.600  21.882   4.923  1.00  0.00     0.164 HD
HETATM   25  C   UNK N   1      28.006  18.894   4.708  0.00  0.00     0.036 A 
ENDBRANCH  18  19
ENDBRANCH   7  18
TORSDOF 2
ENDMDL
MODEL 5
REMARK VINA RESULT:      -6.4      7.457     10.826
REMARK  2 active torsions:
REMARK  status: ('A' for Active; 'I' for Inactive)
REMARK    1  A    between atoms: C_7  and  S_8 
REMARK    2  A    between atoms: S_8  and  C_9 
REMARK       I    between atoms: C_19  and  N_22 
ROOT
HETATM    1  C   UNK N   1      20.023  14.291   4.017  0.00  0.00     0.049 C 
HETATM    2  C   UNK N   1      20.199  15.553   3.243  0.00  0.00    -0.044 A 
HETATM    3  C   UNK N   1      20.009  15.492   1.864  0.00  0.00     0.010 A 
HETATM    4  C   UNK N   1      20.072  16.640   1.087  0.00  0.00     0.032 A 
HETATM    5  C   UNK N   1      20.322  17.874   1.677  0.00  0.00     0.066 A 
HETATM    6  C   UNK N   1      20.550  17.976   3.074  0.00  0.00     0.077 A 
HETATM    7  C   UNK N   1      20.496  16.786   3.876  0.00  0.00     0.029 A 
HETATM    8  C   UNK N   1      20.786  19.277   3.589  0.00  0.00     0.273 A 
HETATM    9  O   UNK N   1      21.003  19.465   4.771  0.00  0.00    -0.267 OA
HETATM   10  N   UNK N   1      20.762  20.358   2.745  0.00  0.00    -0.156 N 
HETATM   11  C   UNK N   1      20.521  20.216   1.419  0.00  0.00     0.679 A 
HETATM   12  N   UNK N   1      20.313  18.985   0.896  0.00  0.00    -0.191 N 
ATOM     13  HN  UNK N   1      20.146  18.890  -0.106  1.00  0.00     0.184 HD
HETATM   14  N   UNK N   1      20.473  21.351   0.587  0.00  0.00    -0.234 N 
HETATM   15  H   UNK N   1      20.922  21.259   3.111  0.00  0.00     0.187 HD
HETATM   16  H   UNK N   1      20.229  21.292  -0.365  0.00  0.00     0.174 HD
HETATM   17  H   UNK N   1      20.691  22.232   0.969  0.00  0.00     0.174 HD
ENDROOT
BRANCH   7  18
HETATM   18  S   UNK N   1      20.631  16.842   5.698  0.00  0.00    -0.089 SA
BRANCH  18  19
HETATM   19  C   UNK N   1      22.306  16.252   6.047  0.00  0.00     0.008 A 
HETATM   20  C   UNK N   1      23.434  16.744   5.381  0.00  0.00     0.036 A 
HETATM   21  C   UNK N   1      24.683  16.157   5.608  0.00  0.00     0.089 A 
HETATM   22  N   UNK N   1      24.800  15.107   6.464  0.00  0.00    -0.375 N 
HETATM   23  C   UNK N   1      23.719  14.609   7.123  0.00  0.00     0.089 A 
ATOM     24  HN  UNK N   1      25.716  14.683   6.614  1.00  0.00     0.164 HD
HETATM   25  C   UNK N   1      22.456  15.169   6.920  0.00  0.00     0.036 A 
ENDBRANCH  18  19
ENDBRANCH   7  18
TORSDOF 2
ENDMDL
MODEL 6
REMARK VINA RESULT:      -6.3      3.691      6.557
REMARK  2 active torsions:
REMARK  status: ('A' for Active; 'I' for Inactive)
REMARK    1  A    between atoms: C_7  and  S_8 
REMARK    2  A    between atoms: S_8  and  C_9 
REMARK       I    between atoms: C_19  and  N_22 
ROOT
HETATM    1  C   UNK N   1      30.841  18.262   8.804  0.00  0.00     0.049 C 
HETATM    2  C   UNK N   1      31.137  17.398   7.625  0.00  0.00    -0.044 A 
HETATM    3  C   UNK N   1      30.054  16.894   6.910  0.00  0.00     0.010 A 
HETATM    4  C   UNK N   1      30.249  16.153   5.752  0.00  0.00     0.032 A 
HETATM    5  C   UNK N   1      31.535  15.906   5.286  0.00  0.00     0.066 A 
HETATM    6  C   UNK N   1      32.668  16.376   6.001  0.00  0.00     0.077 A 
HETATM    7  C   UNK N   1      32.465  17.133   7.204  0.00  0.00     0.029 A 
HETATM    8  C   UNK N   1      33.940  16.085   5.444  0.00  0.00     0.273 A 
HETATM    9  O   UNK N   1      34.970  16.436   5.989  0.00  0.00    -0.267 OA
HETATM   10  N   UNK N   1      34.024  15.402   4.258  0.00  0.00    -0.156 N 
HETATM   11  C   UNK N   1      32.915  14.987   3.599  0.00  0.00     0.679 A 
HETATM   12  N   UNK N   1      31.688  15.232   4.117  0.00  0.00    -0.191 N 
ATOM     13  HN  UNK N   1      30.862  14.904   3.618  1.00  0.00     0.184 HD
HETATM   14  N   UNK N   1      33.037  14.315   2.368  0.00  0.00    -0.234 N 
HETATM   15  H   UNK N   1      34.911  15.208   3.875  0.00  0.00     0.187 HD
HETATM   16  H   UNK N   1      32.253  14.066   1.828  0.00  0.00     0.174 HD
HETATM   17  H   UNK N   1      33.936  14.086   2.037  0.00  0.00     0.174 HD
ENDROOT
BRANCH   7  18
HETATM   18  S   UNK N   1      33.856  17.902   8.108  0.00  0.00    -0.089 SA
BRANCH  18  19
HETATM   19  C   UNK N   1      34.248  16.722   9.425  0.00  0.00     0.008 A 
HETATM   20  C   UNK N   1      35.242  16.960  10.380  0.00  0.00     0.036 A 
HETATM   21  C   UNK N   1      35.581  15.956  11.291  0.00  0.00     0.089 A 
HETATM   22  N   UNK N   1      34.955  14.750  11.245  0.00  0.00    -0.375 N 
HETATM   23  C   UNK N   1      33.985  14.493  10.326  0.00  0.00     0.089 A 
ATOM     24  HN  UNK N   1      35.217  14.023  11.911  1.00  0.00     0.164 HD
HETATM   25  C   UNK N   1      33.622  15.472   9.398  0.00  0.00     0.036 A 
ENDBRANCH  18  19
ENDBRANCH   7  18
TORSDOF 2
ENDMDL
MODEL 7
REMARK VINA RESULT:      -6.1     11.247     14.048
REMARK  2 active torsions:
REMARK  status: ('A' for Active; 'I' for Inactive)
REMARK    1  A    between atoms: C_7  and  S_8 
REMARK    2  A    between atoms: S_8  and  C_9 
REMARK       I    between atoms: C_19  and  N_22 
ROOT
HETATM    1  C   UNK N   1      26.037  24.911  -6.493  0.00  0.00     0.049 C 
HETATM    2  C   UNK N   1      26.287  26.109  -5.642  0.00  0.00    -0.044 A 
HETATM    3  C   UNK N   1      25.182  26.860  -5.250  0.00  0.00     0.010 A 
HETATM    4  C   UNK N   1      25.325  27.938  -4.387  0.00  0.00     0.032 A 
HETATM    5  C   UNK N   1      26.579  28.283  -3.897  0.00  0.00     0.066 A 
HETATM    6  C   UNK N   1      27.735  27.562  -4.294  0.00  0.00     0.077 A 
HETATM    7  C   UNK N   1      27.588  26.453  -5.195  0.00  0.00     0.029 A 
HETATM    8  C   UNK N   1      28.971  27.978  -3.733  0.00  0.00     0.273 A 
HETATM    9  O   UNK N   1      30.018  27.430  -4.022  0.00  0.00    -0.267 OA
HETATM   10  N   UNK N   1      28.997  29.016  -2.837  0.00  0.00    -0.156 N 
HETATM   11  C   UNK N   1      27.865  29.665  -2.472  0.00  0.00     0.679 A 
HETATM   12  N   UNK N   1      26.674  29.304  -3.006  0.00  0.00    -0.191 N 
ATOM     13  HN  UNK N   1      25.831  29.808  -2.732  1.00  0.00     0.184 HD
HETATM   14  N   UNK N   1      27.924  30.706  -1.525  0.00  0.00    -0.234 N 
HETATM   15  H   UNK N   1      29.858  29.296  -2.449  0.00  0.00     0.187 HD
HETATM   16  H   UNK N   1      27.114  31.148  -1.183  0.00  0.00     0.174 HD
HETATM   17  H   UNK N   1      28.804  31.001  -1.196  0.00  0.00     0.174 HD
ENDROOT
BRANCH   7  18
HETATM   18  S   UNK N   1      28.997  25.379  -5.643  0.00  0.00    -0.089 SA
BRANCH  18  19
HETATM   19  C   UNK N   1      29.216  24.295  -4.210  0.00  0.00     0.008 A 
HETATM   20  C   UNK N   1      28.162  23.948  -3.358  0.00  0.00     0.036 A 
HETATM   21  C   UNK N   1      28.423  23.211  -2.199  0.00  0.00     0.089 A 
HETATM   22  N   UNK N   1      29.696  22.841  -1.895  0.00  0.00    -0.375 N 
HETATM   23  C   UNK N   1      30.738  23.166  -2.706  0.00  0.00     0.089 A 
ATOM     24  HN  UNK N   1      29.873  22.310  -1.042  1.00  0.00     0.164 HD
HETATM   25  C   UNK N   1      30.516  23.904  -3.871  0.00  0.00     0.036 A 
ENDBRANCH  18  19
ENDBRANCH   7  18
TORSDOF 2
ENDMDL
MODEL 8
REMARK VINA RESULT:      -6.1     11.930     14.002
REMARK  2 active torsions:
REMARK  status: ('A' for Active; 'I' for Inactive)
REMARK    1  A    between atoms: C_7  and  S_8 
REMARK    2  A    between atoms: S_8  and  C_9 
REMARK       I    between atoms: C_19  and  N_22 
ROOT
HETATM    1  C   UNK N   1      26.037  25.631  -8.493  0.00  0.00     0.049 C 
HETATM    2  C   UNK N   1      26.835  24.901  -7.467  0.00  0.00    -0.044 A 
HETATM    3  C   UNK N   1      27.906  24.131  -7.915  0.00  0.00     0.010 A 
HETATM    4  C   UNK N   1      28.747  23.492  -7.014  0.00  0.00     0.032 A 
HETATM    5  C   UNK N   1      28.534  23.615  -5.646  0.00  0.00     0.066 A 
HETATM    6  C   UNK N   1      27.437  24.366  -5.148  0.00  0.00     0.077 A 
HETATM    7  C   UNK N   1      26.561  25.019  -6.080  0.00  0.00     0.029 A 
HETATM    8  C   UNK N   1      27.305  24.445  -3.737  0.00  0.00     0.273 A 
HETATM    9  O   UNK N   1      26.391  25.055  -3.216  0.00  0.00    -0.267 OA
HETATM   10  N   UNK N   1      28.230  23.830  -2.932  0.00  0.00    -0.156 N 
HETATM   11  C   UNK N   1      29.273  23.138  -3.451  0.00  0.00     0.679 A 
HETATM   12  N   UNK N   1      29.413  23.028  -4.793  0.00  0.00    -0.191 N 
ATOM     13  HN  UNK N   1      30.195  22.494  -5.170  1.00  0.00     0.184 HD
HETATM   14  N   UNK N   1      30.221  22.546  -2.594  0.00  0.00    -0.234 N 
HETATM   15  H   UNK N   1      28.134  23.893  -1.953  0.00  0.00     0.187 HD
HETATM   16  H   UNK N   1      31.029  22.100  -2.937  0.00  0.00     0.174 HD
HETATM   17  H   UNK N   1      30.070  22.578  -1.621  0.00  0.00     0.174 HD
ENDROOT
BRANCH   7  18
HETATM   18  S   UNK N   1      25.214  26.124  -5.529  0.00  0.00    -0.089 SA
BRANCH  18  19
HETATM   19  C   UNK N   1      26.024  27.716  -5.237  0.00  0.00     0.008 A 
HETATM   20  C   UNK N   1      27.042  28.208  -6.061  0.00  0.00     0.036 A 
HETATM   21  C   UNK N   1      27.712  29.383  -5.709  0.00  0.00     0.089 A 
HETATM   22  N   UNK N   1      27.383  30.041  -4.565  0.00  0.00    -0.375 N 
HETATM   23  C   UNK N   1      26.398  29.584  -3.746  0.00  0.00     0.089 A 
ATOM     24  HN  UNK N   1      27.885  30.893  -4.315  1.00  0.00     0.164 HD
HETATM   25  C   UNK N   1      25.708  28.412  -4.066  0.00  0.00     0.036 A 
ENDBRANCH  18  19
ENDBRANCH   7  18
TORSDOF 2
ENDMDL
MODEL 9
REMARK VINA RESULT:      -5.9      3.954      5.341
REMARK  2 active torsions:
REMARK  status: ('A' for Active; 'I' for Inactive)
REMARK    1  A    between atoms: C_7  and  S_8 
REMARK    2  A    between atoms: S_8  and  C_9 
REMARK       I    between atoms: C_19  and  N_22 
ROOT
HETATM    1  C   UNK N   1      25.529  20.124   3.160  0.00  0.00     0.049 C 
HETATM    2  C   UNK N   1      26.363  19.833   4.361  0.00  0.00    -0.044 A 
HETATM    3  C   UNK N   1      26.961  20.914   5.005  0.00  0.00     0.010 A 
HETATM    4  C   UNK N   1      27.681  20.733   6.178  0.00  0.00     0.032 A 
HETATM    5  C   UNK N   1      27.813  19.464   6.731  0.00  0.00     0.066 A 
HETATM    6  C   UNK N   1      27.244  18.332   6.092  0.00  0.00     0.077 A 
HETATM    7  C   UNK N   1      26.508  18.519   4.872  0.00  0.00     0.029 A 
HETATM    8  C   UNK N   1      27.421  17.080   6.736  0.00  0.00     0.273 A 
HETATM    9  O   UNK N   1      26.980  16.050   6.259  0.00  0.00    -0.267 OA
HETATM   10  N   UNK N   1      28.093  17.016   7.929  0.00  0.00    -0.156 N 
HETATM   11  C   UNK N   1      28.604  18.127   8.514  0.00  0.00     0.679 A 
HETATM   12  N   UNK N   1      28.470  19.333   7.913  0.00  0.00    -0.191 N 
ATOM     13  HN  UNK N   1      28.870  20.159   8.357  1.00  0.00     0.184 HD
HETATM   14  N   UNK N   1      29.263  18.030   9.755  0.00  0.00    -0.234 N 
HETATM   15  H   UNK N   1      28.208  16.144   8.372  0.00  0.00     0.187 HD
HETATM   16  H   UNK N   1      29.580  18.824  10.242  0.00  0.00     0.174 HD
HETATM   17  H   UNK N   1      29.411  17.139  10.148  0.00  0.00     0.174 HD
ENDROOT
BRANCH   7  18
HETATM   18  S   UNK N   1      25.620  17.143   4.060  0.00  0.00    -0.089 SA
BRANCH  18  19
HETATM   19  C   UNK N   1      24.038  17.046   4.934  0.00  0.00     0.008 A 
HETATM   20  C   UNK N   1      23.165  18.135   5.040  0.00  0.00     0.036 A 
HETATM   21  C   UNK N   1      22.020  18.030   5.834  0.00  0.00     0.089 A 
HETATM   22  N   UNK N   1      21.759  16.879   6.510  0.00  0.00    -0.375 N 
HETATM   23  C   UNK N   1      22.591  15.806   6.424  0.00  0.00     0.089 A 
ATOM     24  HN  UNK N   1      20.923  16.818   7.092  1.00  0.00     0.164 HD
HETATM   25  C   UNK N   1      23.745  15.876   5.641  0.00  0.00     0.036 A 
ENDBRANCH  18  19
ENDBRANCH   7  18
TORSDOF 2
ENDMDL
