MODEL 1
REMARK VINA RESULT:      -8.8      0.000      0.000
REMARK  12 active torsions:
REMARK  status: ('A' for Active; 'I' for Inactive)
REMARK    1  A    between atoms: C_9  and  C_6 
REMARK    2  A    between atoms: C_17  and  C_6 
REMARK    3  A    between atoms: C_23  and  C_9 
REMARK    4  A    between atoms: C_22  and  C_13 
REMARK    5  A    between atoms: N_41  and  C_13 
REMARK    6  A    between atoms: N_41  and  C_16 
REMARK    7  A    between atoms: C_30  and  C_18 
REMARK    8  A    between atoms: C_19  and  N_41 
REMARK    9  A    between atoms: C_25  and  O_43 
REMARK   10  A    between atoms: C_26  and  O_44 
REMARK   11  A    between atoms: N_31  and  C_27 
REMARK   12  A    between atoms: C_29  and  N_42 
ROOT
HETATM    1  C   UNK N   1      21.746  13.532   8.712  0.00  0.00     0.307 C 
ENDROOT
BRANCH   1   2
HETATM    2  C   UNK N   1      21.448  15.009   8.432  0.00  0.00     0.183 C 
HETATM    3  C   UNK N   1      20.148  15.569   9.067  0.00  0.00     0.182 C 
HETATM    4  C   UNK N   1      19.642  16.422   7.913  0.00  0.00     0.198 C 
HETATM    5  C   UNK N   1      20.011  15.468   6.788  0.00  0.00     0.262 C 
HETATM    6  O   UNK N   1      21.355  15.166   7.038  0.00  0.00    -0.354 OA
BRANCH   3   7
HETATM    7  O   UNK N   1      19.235  14.536   9.323  0.00  0.00    -0.390 OA
HETATM    8  H   UNK N   1      18.917  13.805   9.875  0.00  0.00     0.210 HD
ENDBRANCH   3   7
BRANCH   4   9
HETATM    9  O   UNK N   1      18.272  16.685   7.998  0.00  0.00    -0.388 OA
HETATM   10  H   UNK N   1      17.358  16.411   8.170  0.00  0.00     0.210 HD
ENDBRANCH   4   9
BRANCH   5  11
HETATM   11  N   UNK N   1      19.888  15.891   5.400  0.00  0.00    -0.297 N 
HETATM   12  C   UNK N   1      19.164  15.178   4.498  0.00  0.00     0.188 A 
HETATM   13  N   UNK N   1      19.188  15.749   3.268  0.00  0.00    -0.346 N 
HETATM   14  C   UNK N   1      19.950  16.841   3.430  0.00  0.00     0.122 A 
ATOM     15  HN  UNK N   1      18.732  15.423   2.416  1.00  0.00     0.167 HD
HETATM   16  C   UNK N   1      20.315  17.794   2.505  0.00  0.00     0.131 A 
HETATM   17  C   UNK N   1      20.371  16.931   4.710  0.00  0.00     0.142 A 
HETATM   18  N   UNK N   1      21.110  18.820   2.926  0.00  0.00    -0.337 N 
HETATM   19  C   UNK N   1      21.530  18.898   4.235  0.00  0.00     0.183 A 
ATOM     20  HN  UNK N   1      21.396  19.541   2.263  1.00  0.00     0.168 HD
HETATM   21  N   UNK N   1      21.160  17.941   5.144  0.00  0.00    -0.336 N 
ATOM     22  HN  UNK N   1      21.467  17.989   6.116  1.00  0.00     0.168 HD
BRANCH  16  23
HETATM   23  N   UNK N   1      19.886  17.712   1.165  0.00  0.00    -0.383 N 
HETATM   24  H   UNK N   1      18.927  17.658   0.947  0.00  0.00     0.157 HD
HETATM   25  H   UNK N   1      20.551  17.707   0.439  0.00  0.00     0.157 HD
ENDBRANCH  16  23
ENDBRANCH   5  11
ENDBRANCH   1   2
BRANCH   1  26
HETATM   26  N   UNK N   1      22.889  13.354   9.641  0.00  0.00     0.099 N 
BRANCH  26  27
HETATM   27  C   UNK N   1      22.426  12.825  10.940  0.00  0.00     0.215 C 
HETATM   28  C   UNK N   1      23.428  11.851  11.539  0.00  0.00     0.042 C 
HETATM   29  C   UNK N   1      21.029  12.225  10.901  0.00  0.00     0.042 C 
ENDBRANCH  26  27
BRANCH  26  30
HETATM   30  C   UNK N   1      24.014  12.570   9.079  0.00  0.00     0.224 C 
HETATM   31  C   UNK N   1      23.972  12.435   7.566  0.00  0.00     0.040 C 
HETATM   32  C   UNK N   1      25.142  13.406   7.471  0.00  0.00    -0.010 C 
HETATM   33  C   UNK N   1      25.280  13.402   8.978  0.00  0.00     0.040 C 
BRANCH  32  34
HETATM   34  C   UNK N   1      24.738  14.817   7.011  0.00  0.00     0.012 C 
BRANCH  34  35
HETATM   35  C   UNK N   1      25.463  15.266   5.747  0.00  0.00     0.077 C 
BRANCH  35  36
HETATM   36  C   UNK N   1      26.744  15.899   6.125  0.00  0.00     0.082 A 
HETATM   37  N   UNK N   1      26.860  16.828   7.105  0.00  0.00    -0.344 N 
HETATM   38  C   UNK N   1      28.182  17.010   7.208  0.00  0.00     0.060 A 
ATOM     39  HN  UNK N   1      26.117  17.282   7.637  1.00  0.00     0.167 HD
HETATM   40  C   UNK N   1      28.863  17.853   8.075  0.00  0.00     0.032 A 
HETATM   41  C   UNK N   1      28.827  16.203   6.326  0.00  0.00     0.061 A 
HETATM   42  C   UNK N   1      30.268  17.838   8.015  0.00  0.00     0.010 A 
HETATM   43  C   UNK N   1      30.954  16.985   7.106  0.00  0.00    -0.048 A 
HETATM   44  C   UNK N   1      30.208  16.150   6.240  0.00  0.00     0.039 A 
HETATM   45  N   UNK N   1      27.936  15.491   5.629  0.00  0.00    -0.344 N 
HETATM   46  H   UNK N   1      28.108  14.827   4.923  0.00  0.00     0.167 HD
BRANCH  43  47
HETATM   47  C   UNK N   1      32.468  16.976   7.080  0.00  0.00    -0.024 C 
HETATM   48  C   UNK N   1      32.976  15.560   7.285  0.00  0.00     0.019 C 
HETATM   49  C   UNK N   1      33.000  17.855   8.196  0.00  0.00     0.019 C 
HETATM   50  C   UNK N   1      33.039  17.489   5.765  0.00  0.00     0.019 C 
ENDBRANCH  43  47
ENDBRANCH  35  36
ENDBRANCH  34  35
ENDBRANCH  32  34
ENDBRANCH  26  30
ENDBRANCH   1  26
TORSDOF 12
ENDMDL
MODEL 2
REMARK VINA RESULT:      -8.5      4.271      7.114
REMARK  12 active torsions:
REMARK  status: ('A' for Active; 'I' for Inactive)
REMARK    1  A    between atoms: C_9  and  C_6 
REMARK    2  A    between atoms: C_17  and  C_6 
REMARK    3  A    between atoms: C_23  and  C_9 
REMARK    4  A    between atoms: C_22  and  C_13 
REMARK    5  A    between atoms: N_41  and  C_13 
REMARK    6  A    between atoms: N_41  and  C_16 
REMARK    7  A    between atoms: C_30  and  C_18 
REMARK    8  A    between atoms: C_19  and  N_41 
REMARK    9  A    between atoms: C_25  and  O_43 
REMARK   10  A    between atoms: C_26  and  O_44 
REMARK   11  A    between atoms: N_31  and  C_27 
REMARK   12  A    between atoms: C_29  and  N_42 
ROOT
HETATM    1  C   UNK N   1      27.673  18.647   6.571  0.00  0.00     0.307 C 
ENDROOT
BRANCH   1   2
HETATM    2  C   UNK N   1      27.232  18.426   5.120  0.00  0.00     0.183 C 
HETATM    3  C   UNK N   1      27.311  19.667   4.193  0.00  0.00     0.182 C 
HETATM    4  C   UNK N   1      26.011  19.497   3.419  0.00  0.00     0.198 C 
HETATM    5  C   UNK N   1      25.152  19.029   4.583  0.00  0.00     0.262 C 
HETATM    6  O   UNK N   1      25.896  17.986   5.146  0.00  0.00    -0.354 OA
BRANCH   3   7
HETATM    7  O   UNK N   1      27.260  20.852   4.942  0.00  0.00    -0.390 OA
HETATM    8  H   UNK N   1      26.756  21.542   5.400  0.00  0.00     0.210 HD
ENDBRANCH   3   7
BRANCH   4   9
HETATM    9  O   UNK N   1      25.569  20.690   2.841  0.00  0.00    -0.388 OA
HETATM   10  H   UNK N   1      25.421  21.648   2.864  0.00  0.00     0.210 HD
ENDBRANCH   4   9
BRANCH   5  11
HETATM   11  N   UNK N   1      23.798  18.548   4.345  0.00  0.00    -0.297 N 
HETATM   12  C   UNK N   1      23.378  17.340   4.806  0.00  0.00     0.188 A 
HETATM   13  N   UNK N   1      22.088  17.092   4.467  0.00  0.00    -0.346 N 
HETATM   14  C   UNK N   1      21.716  18.182   3.780  0.00  0.00     0.122 A 
ATOM     15  HN  UNK N   1      21.531  16.266   4.685  1.00  0.00     0.167 HD
HETATM   16  C   UNK N   1      20.503  18.470   3.193  0.00  0.00     0.131 A 
HETATM   17  C   UNK N   1      22.740  19.060   3.705  0.00  0.00     0.142 A 
HETATM   18  N   UNK N   1      20.378  19.663   2.541  0.00  0.00    -0.337 N 
HETATM   19  C   UNK N   1      21.431  20.547   2.475  0.00  0.00     0.183 A 
ATOM     20  HN  UNK N   1      19.491  19.903   2.097  1.00  0.00     0.168 HD
HETATM   21  N   UNK N   1      22.632  20.246   3.062  0.00  0.00    -0.336 N 
ATOM     22  HN  UNK N   1      23.419  20.894   3.018  1.00  0.00     0.168 HD
BRANCH  16  23
HETATM   23  N   UNK N   1      19.427  17.563   3.259  0.00  0.00    -0.383 N 
HETATM   24  H   UNK N   1      19.576  16.597   3.137  0.00  0.00     0.157 HD
HETATM   25  H   UNK N   1      18.517  17.897   3.429  0.00  0.00     0.157 HD
ENDBRANCH  16  23
ENDBRANCH   5  11
ENDBRANCH   1   2
BRANCH   1  26
HETATM   26  N   UNK N   1      29.028  18.101   6.835  0.00  0.00     0.099 N 
BRANCH  26  27
HETATM   27  C   UNK N   1      29.166  17.717   8.255  0.00  0.00     0.215 C 
HETATM   28  C   UNK N   1      27.814  17.460   8.901  0.00  0.00     0.042 C 
HETATM   29  C   UNK N   1      29.997  18.688   9.081  0.00  0.00     0.042 C 
ENDBRANCH  26  27
BRANCH  26  30
HETATM   30  C   UNK N   1      29.438  17.016   5.913  0.00  0.00     0.224 C 
HETATM   31  C   UNK N   1      30.484  17.438   4.896  0.00  0.00     0.040 C 
HETATM   32  C   UNK N   1      31.520  16.621   5.659  0.00  0.00    -0.010 C 
HETATM   33  C   UNK N   1      30.437  16.076   6.564  0.00  0.00     0.040 C 
BRANCH  32  34
HETATM   34  C   UNK N   1      32.487  17.476   6.495  0.00  0.00     0.012 C 
BRANCH  34  35
HETATM   35  C   UNK N   1      33.951  17.109   6.278  0.00  0.00     0.077 C 
BRANCH  35  36
HETATM   36  C   UNK N   1      34.520  16.623   7.552  0.00  0.00     0.082 A 
HETATM   37  N   UNK N   1      34.632  17.390   8.664  0.00  0.00    -0.344 N 
HETATM   38  C   UNK N   1      35.048  16.527   9.599  0.00  0.00     0.060 A 
ATOM     39  HN  UNK N   1      34.444  18.388   8.766  1.00  0.00     0.167 HD
HETATM   40  C   UNK N   1      35.312  16.779  10.937  0.00  0.00     0.032 A 
HETATM   41  C   UNK N   1      35.165  15.286   9.059  0.00  0.00     0.061 A 
HETATM   42  C   UNK N   1      35.706  15.687  11.733  0.00  0.00     0.010 A 
HETATM   43  C   UNK N   1      35.817  14.380  11.179  0.00  0.00    -0.048 A 
HETATM   44  C   UNK N   1      35.541  14.182   9.806  0.00  0.00     0.039 A 
HETATM   45  N   UNK N   1      34.838  15.323   7.763  0.00  0.00    -0.344 N 
HETATM   46  H   UNK N   1      34.828  14.581   7.117  0.00  0.00     0.167 HD
BRANCH  43  47
HETATM   47  C   UNK N   1      36.222  13.222  12.066  0.00  0.00    -0.024 C 
HETATM   48  C   UNK N   1      35.176  12.124  11.984  0.00  0.00     0.019 C 
HETATM   49  C   UNK N   1      36.327  13.695  13.503  0.00  0.00     0.019 C 
HETATM   50  C   UNK N   1      37.562  12.617  11.671  0.00  0.00     0.019 C 
ENDBRANCH  43  47
ENDBRANCH  35  36
ENDBRANCH  34  35
ENDBRANCH  32  34
ENDBRANCH  26  30
ENDBRANCH   1  26
TORSDOF 12
ENDMDL
MODEL 3
REMARK VINA RESULT:      -8.4      1.563      2.040
REMARK  12 active torsions:
REMARK  status: ('A' for Active; 'I' for Inactive)
REMARK    1  A    between atoms: C_9  and  C_6 
REMARK    2  A    between atoms: C_17  and  C_6 
REMARK    3  A    between atoms: C_23  and  C_9 
REMARK    4  A    between atoms: C_22  and  C_13 
REMARK    5  A    between atoms: N_41  and  C_13 
REMARK    6  A    between atoms: N_41  and  C_16 
REMARK    7  A    between atoms: C_30  and  C_18 
REMARK    8  A    between atoms: C_19  and  N_41 
REMARK    9  A    between atoms: C_25  and  O_43 
REMARK   10  A    between atoms: C_26  and  O_44 
REMARK   11  A    between atoms: N_31  and  C_27 
REMARK   12  A    between atoms: C_29  and  N_42 
ROOT
HETATM    1  C   UNK N   1      22.825  13.672   6.774  0.00  0.00     0.307 C 
ENDROOT
BRANCH   1   2
HETATM    2  C   UNK N   1      22.261  15.051   7.133  0.00  0.00     0.183 C 
HETATM    3  C   UNK N   1      20.907  15.052   7.889  0.00  0.00     0.182 C 
HETATM    4  C   UNK N   1      20.215  16.210   7.182  0.00  0.00     0.198 C 
HETATM    5  C   UNK N   1      20.706  15.902   5.777  0.00  0.00     0.262 C 
HETATM    6  O   UNK N   1      22.091  15.764   5.932  0.00  0.00    -0.354 OA
BRANCH   3   7
HETATM    7  O   UNK N   1      20.200  13.865   7.645  0.00  0.00    -0.390 OA
HETATM    8  H   UNK N   1      19.573  13.346   7.118  0.00  0.00     0.210 HD
ENDBRANCH   3   7
BRANCH   4   9
HETATM    9  O   UNK N   1      18.825  16.166   7.312  0.00  0.00    -0.388 OA
HETATM   10  H   UNK N   1      17.973  15.710   7.237  0.00  0.00     0.210 HD
ENDBRANCH   4   9
BRANCH   5  11
HETATM   11  N   UNK N   1      20.459  16.843   4.694  0.00  0.00    -0.297 N 
HETATM   12  C   UNK N   1      19.310  16.813   3.969  0.00  0.00     0.188 A 
HETATM   13  N   UNK N   1      19.293  17.773   3.011  0.00  0.00    -0.346 N 
HETATM   14  C   UNK N   1      20.467  18.403   3.160  0.00  0.00     0.122 A 
ATOM     15  HN  UNK N   1      18.556  17.969   2.334  1.00  0.00     0.167 HD
HETATM   16  C   UNK N   1      20.983  19.465   2.448  0.00  0.00     0.131 A 
HETATM   17  C   UNK N   1      21.171  17.850   4.171  0.00  0.00     0.142 A 
HETATM   18  N   UNK N   1      22.217  19.928   2.799  0.00  0.00    -0.337 N 
HETATM   19  C   UNK N   1      22.921  19.352   3.833  0.00  0.00     0.183 A 
ATOM     20  HN  UNK N   1      22.624  20.712   2.289  1.00  0.00     0.168 HD
HETATM   21  N   UNK N   1      22.396  18.296   4.531  0.00  0.00    -0.336 N 
ATOM     22  HN  UNK N   1      22.910  17.862   5.298  1.00  0.00     0.168 HD
BRANCH  16  23
HETATM   23  N   UNK N   1      20.262  20.051   1.388  0.00  0.00    -0.383 N 
HETATM   24  H   UNK N   1      20.725  20.574   0.694  0.00  0.00     0.157 HD
HETATM   25  H   UNK N   1      19.285  19.937   1.341  0.00  0.00     0.157 HD
ENDBRANCH  16  23
ENDBRANCH   5  11
ENDBRANCH   1   2
BRANCH   1  26
HETATM   26  N   UNK N   1      24.252  13.531   7.158  0.00  0.00     0.099 N 
BRANCH  26  27
HETATM   27  C   UNK N   1      24.405  12.526   8.230  0.00  0.00     0.215 C 
HETATM   28  C   UNK N   1      23.190  11.617   8.326  0.00  0.00     0.042 C 
HETATM   29  C   UNK N   1      24.761  13.118   9.586  0.00  0.00     0.042 C 
ENDBRANCH  26  27
BRANCH  26  30
HETATM   30  C   UNK N   1      25.167  13.287   6.019  0.00  0.00     0.224 C 
HETATM   31  C   UNK N   1      24.755  13.993   4.738  0.00  0.00     0.040 C 
HETATM   32  C   UNK N   1      25.915  14.964   4.929  0.00  0.00    -0.010 C 
HETATM   33  C   UNK N   1      26.412  14.153   6.106  0.00  0.00     0.040 C 
BRANCH  32  34
HETATM   34  C   UNK N   1      25.482  16.353   5.427  0.00  0.00     0.012 C 
BRANCH  34  35
HETATM   35  C   UNK N   1      26.305  17.487   4.826  0.00  0.00     0.077 C 
BRANCH  35  36
HETATM   36  C   UNK N   1      27.555  17.639   5.598  0.00  0.00     0.082 A 
HETATM   37  N   UNK N   1      27.590  18.008   6.902  0.00  0.00    -0.344 N 
HETATM   38  C   UNK N   1      28.881  17.874   7.230  0.00  0.00     0.060 A 
ATOM     39  HN  UNK N   1      26.818  18.316   7.493  1.00  0.00     0.167 HD
HETATM   40  C   UNK N   1      29.478  18.110   8.461  0.00  0.00     0.032 A 
HETATM   41  C   UNK N   1      29.584  17.425   6.158  0.00  0.00     0.061 A 
HETATM   42  C   UNK N   1      30.859  17.858   8.564  0.00  0.00     0.010 A 
HETATM   43  C   UNK N   1      31.601  17.373   7.450  0.00  0.00    -0.048 A 
HETATM   44  C   UNK N   1      30.940  17.156   6.218  0.00  0.00     0.039 A 
HETATM   45  N   UNK N   1      28.765  17.271   5.113  0.00  0.00    -0.344 N 
HETATM   46  H   UNK N   1      28.988  16.961   4.206  0.00  0.00     0.167 HD
BRANCH  43  47
HETATM   47  C   UNK N   1      33.081  17.090   7.600  0.00  0.00    -0.024 C 
HETATM   48  C   UNK N   1      33.292  15.986   8.619  0.00  0.00     0.019 C 
HETATM   49  C   UNK N   1      33.791  18.343   8.077  0.00  0.00     0.019 C 
HETATM   50  C   UNK N   1      33.732  16.650   6.295  0.00  0.00     0.019 C 
ENDBRANCH  43  47
ENDBRANCH  35  36
ENDBRANCH  34  35
ENDBRANCH  32  34
ENDBRANCH  26  30
ENDBRANCH   1  26
TORSDOF 12
ENDMDL
MODEL 4
REMARK VINA RESULT:      -8.4      2.788      3.856
REMARK  12 active torsions:
REMARK  status: ('A' for Active; 'I' for Inactive)
REMARK    1  A    between atoms: C_9  and  C_6 
REMARK    2  A    between atoms: C_17  and  C_6 
REMARK    3  A    between atoms: C_23  and  C_9 
REMARK    4  A    between atoms: C_22  and  C_13 
REMARK    5  A    between atoms: N_41  and  C_13 
REMARK    6  A    between atoms: N_41  and  C_16 
REMARK    7  A    between atoms: C_30  and  C_18 
REMARK    8  A    between atoms: C_19  and  N_41 
REMARK    9  A    between atoms: C_25  and  O_43 
REMARK   10  A    between atoms: C_26  and  O_44 
REMARK   11  A    between atoms: N_31  and  C_27 
REMARK   12  A    between atoms: C_29  and  N_42 
ROOT
HETATM    1  C   UNK N   1      22.510  13.185   4.256  0.00  0.00     0.307 C 
ENDROOT
BRANCH   1   2
HETATM    2  C   UNK N   1      21.143  13.877   4.294  0.00  0.00     0.183 C 
HETATM    3  C   UNK N   1      19.990  13.137   3.567  0.00  0.00     0.182 C 
HETATM    4  C   UNK N   1      19.302  14.320   2.901  0.00  0.00     0.198 C 
HETATM    5  C   UNK N   1      20.558  15.081   2.510  0.00  0.00     0.262 C 
HETATM    6  O   UNK N   1      21.293  15.142   3.700  0.00  0.00    -0.354 OA
BRANCH   3   7
HETATM    7  O   UNK N   1      20.495  12.273   2.585  0.00  0.00    -0.390 OA
HETATM    8  H   UNK N   1      21.219  11.970   2.016  0.00  0.00     0.210 HD
ENDBRANCH   3   7
BRANCH   4   9
HETATM    9  O   UNK N   1      18.514  13.939   1.811  0.00  0.00    -0.388 OA
HETATM   10  H   UNK N   1      18.151  14.090   0.924  0.00  0.00     0.210 HD
ENDBRANCH   4   9
BRANCH   5  11
HETATM   11  N   UNK N   1      20.457  16.428   1.965  0.00  0.00    -0.297 N 
HETATM   12  C   UNK N   1      20.122  16.650   0.666  0.00  0.00     0.188 A 
HETATM   13  N   UNK N   1      20.091  17.973   0.373  0.00  0.00    -0.346 N 
HETATM   14  C   UNK N   1      20.417  18.571   1.529  0.00  0.00     0.122 A 
ATOM     15  HN  UNK N   1      19.871  18.413  -0.521  1.00  0.00     0.167 HD
HETATM   16  C   UNK N   1      20.541  19.914   1.810  0.00  0.00     0.131 A 
HETATM   17  C   UNK N   1      20.636  17.647   2.488  0.00  0.00     0.142 A 
HETATM   18  N   UNK N   1      20.891  20.270   3.081  0.00  0.00    -0.337 N 
HETATM   19  C   UNK N   1      21.109  19.314   4.047  0.00  0.00     0.183 A 
ATOM     20  HN  UNK N   1      20.990  21.257   3.318  1.00  0.00     0.168 HD
HETATM   21  N   UNK N   1      20.983  17.982   3.752  0.00  0.00    -0.336 N 
ATOM     22  HN  UNK N   1      21.144  17.266   4.461  1.00  0.00     0.168 HD
BRANCH  16  23
HETATM   23  N   UNK N   1      20.320  20.891   0.818  0.00  0.00    -0.383 N 
HETATM   24  H   UNK N   1      20.526  21.838   0.991  0.00  0.00     0.157 HD
HETATM   25  H   UNK N   1      19.954  20.624  -0.056  0.00  0.00     0.157 HD
ENDBRANCH  16  23
ENDBRANCH   5  11
ENDBRANCH   1   2
BRANCH   1  26
HETATM   26  N   UNK N   1      23.621  14.117   4.571  0.00  0.00     0.099 N 
BRANCH  26  27
HETATM   27  C   UNK N   1      24.127  13.879   5.939  0.00  0.00     0.215 C 
HETATM   28  C   UNK N   1      24.043  12.410   6.321  0.00  0.00     0.042 C 
HETATM   29  C   UNK N   1      23.487  14.763   6.998  0.00  0.00     0.042 C 
ENDBRANCH  26  27
BRANCH  26  30
HETATM   30  C   UNK N   1      24.706  14.135   3.562  0.00  0.00     0.224 C 
HETATM   31  C   UNK N   1      24.476  15.124   2.432  0.00  0.00     0.040 C 
HETATM   32  C   UNK N   1      25.568  16.011   3.018  0.00  0.00    -0.010 C 
HETATM   33  C   UNK N   1      25.900  14.943   4.038  0.00  0.00     0.040 C 
BRANCH  32  34
HETATM   34  C   UNK N   1      25.030  17.250   3.752  0.00  0.00     0.012 C 
BRANCH  34  35
HETATM   35  C   UNK N   1      25.931  18.471   3.606  0.00  0.00     0.077 C 
BRANCH  35  36
HETATM   36  C   UNK N   1      27.124  18.295   4.459  0.00  0.00     0.082 A 
HETATM   37  N   UNK N   1      27.064  18.089   5.798  0.00  0.00    -0.344 N 
HETATM   38  C   UNK N   1      28.335  17.838   6.133  0.00  0.00     0.060 A 
ATOM     39  HN  UNK N   1      26.245  18.117   6.406  1.00  0.00     0.167 HD
HETATM   40  C   UNK N   1      28.846  17.544   7.389  0.00  0.00     0.032 A 
HETATM   41  C   UNK N   1      29.120  17.881   5.024  0.00  0.00     0.061 A 
HETATM   42  C   UNK N   1      30.225  17.281   7.478  0.00  0.00     0.010 A 
HETATM   43  C   UNK N   1      31.052  17.308   6.320  0.00  0.00    -0.048 A 
HETATM   44  C   UNK N   1      30.479  17.620   5.065  0.00  0.00     0.039 A 
HETATM   45  N   UNK N   1      28.374  18.171   3.953  0.00  0.00    -0.344 N 
HETATM   46  H   UNK N   1      28.665  18.268   3.018  0.00  0.00     0.167 HD
BRANCH  43  47
HETATM   47  C   UNK N   1      32.529  16.999   6.445  0.00  0.00    -0.024 C 
HETATM   48  C   UNK N   1      32.719  15.529   6.773  0.00  0.00     0.019 C 
HETATM   49  C   UNK N   1      33.130  17.833   7.560  0.00  0.00     0.019 C 
HETATM   50  C   UNK N   1      33.304  17.294   5.167  0.00  0.00     0.019 C 
ENDBRANCH  43  47
ENDBRANCH  35  36
ENDBRANCH  34  35
ENDBRANCH  32  34
ENDBRANCH  26  30
ENDBRANCH   1  26
TORSDOF 12
ENDMDL
MODEL 5
REMARK VINA RESULT:      -8.4      5.860     12.831
REMARK  12 active torsions:
REMARK  status: ('A' for Active; 'I' for Inactive)
REMARK    1  A    between atoms: C_9  and  C_6 
REMARK    2  A    between atoms: C_17  and  C_6 
REMARK    3  A    between atoms: C_23  and  C_9 
REMARK    4  A    between atoms: C_22  and  C_13 
REMARK    5  A    between atoms: N_41  and  C_13 
REMARK    6  A    between atoms: N_41  and  C_16 
REMARK    7  A    between atoms: C_30  and  C_18 
REMARK    8  A    between atoms: C_19  and  N_41 
REMARK    9  A    between atoms: C_25  and  O_43 
REMARK   10  A    between atoms: C_26  and  O_44 
REMARK   11  A    between atoms: N_31  and  C_27 
REMARK   12  A    between atoms: C_29  and  N_42 
ROOT
HETATM    1  C   UNK N   1      32.422  15.897   6.164  0.00  0.00     0.307 C 
ENDROOT
BRANCH   1   2
HETATM    2  C   UNK N   1      32.586  16.643   7.493  0.00  0.00     0.183 C 
HETATM    3  C   UNK N   1      33.317  18.009   7.416  0.00  0.00     0.182 C 
HETATM    4  C   UNK N   1      34.178  17.914   8.668  0.00  0.00     0.198 C 
HETATM    5  C   UNK N   1      34.547  16.444   8.540  0.00  0.00     0.262 C 
HETATM    6  O   UNK N   1      33.313  15.808   8.360  0.00  0.00    -0.354 OA
BRANCH   3   7
HETATM    7  O   UNK N   1      34.142  18.069   6.283  0.00  0.00    -0.390 OA
HETATM    8  H   UNK N   1      34.915  17.767   5.783  0.00  0.00     0.210 HD
ENDBRANCH   3   7
BRANCH   4   9
HETATM    9  O   UNK N   1      35.280  18.773   8.630  0.00  0.00    -0.388 OA
HETATM   10  H   UNK N   1      36.031  19.180   8.172  0.00  0.00     0.210 HD
ENDBRANCH   4   9
BRANCH   5  11
HETATM   11  N   UNK N   1      35.255  15.771   9.619  0.00  0.00    -0.297 N 
HETATM   12  C   UNK N   1      35.666  16.439  10.729  0.00  0.00     0.188 A 
HETATM   13  N   UNK N   1      36.308  15.622  11.601  0.00  0.00    -0.346 N 
HETATM   14  C   UNK N   1      36.285  14.423  11.001  0.00  0.00     0.122 A 
ATOM     15  HN  UNK N   1      36.714  15.865  12.505  1.00  0.00     0.167 HD
HETATM   16  C   UNK N   1      36.798  13.221  11.436  0.00  0.00     0.131 A 
HETATM   17  C   UNK N   1      35.652  14.507   9.811  0.00  0.00     0.142 A 
HETATM   18  N   UNK N   1      36.645  12.132  10.628  0.00  0.00    -0.337 N 
HETATM   19  C   UNK N   1      35.996  12.235   9.418  0.00  0.00     0.183 A 
ATOM     20  HN  UNK N   1      37.015  11.228  10.925  1.00  0.00     0.168 HD
HETATM   21  N   UNK N   1      35.492  13.438   8.997  0.00  0.00    -0.336 N 
ATOM     22  HN  UNK N   1      35.011  13.525   8.102  1.00  0.00     0.168 HD
BRANCH  16  23
HETATM   23  N   UNK N   1      37.464  13.118  12.674  0.00  0.00    -0.383 N 
HETATM   24  H   UNK N   1      38.299  13.614  12.838  0.00  0.00     0.157 HD
HETATM   25  H   UNK N   1      37.092  12.544  13.382  0.00  0.00     0.157 HD
ENDBRANCH  16  23
ENDBRANCH   5  11
ENDBRANCH   1   2
BRANCH   1  26
HETATM   26  N   UNK N   1      31.285  16.416   5.365  0.00  0.00     0.099 N 
BRANCH  26  27
HETATM   27  C   UNK N   1      31.416  16.013   3.950  0.00  0.00     0.215 C 
HETATM   28  C   UNK N   1      32.120  14.673   3.811  0.00  0.00     0.042 C 
HETATM   29  C   UNK N   1      32.059  17.069   3.063  0.00  0.00     0.042 C 
ENDBRANCH  26  27
BRANCH  26  30
HETATM   30  C   UNK N   1      29.951  16.093   5.923  0.00  0.00     0.224 C 
HETATM   31  C   UNK N   1      29.338  17.220   6.738  0.00  0.00     0.040 C 
HETATM   32  C   UNK N   1      28.348  17.467   5.606  0.00  0.00    -0.010 C 
HETATM   33  C   UNK N   1      28.857  16.240   4.880  0.00  0.00     0.040 C 
BRANCH  32  34
HETATM   34  C   UNK N   1      28.670  18.714   4.765  0.00  0.00     0.012 C 
BRANCH  34  35
HETATM   35  C   UNK N   1      27.764  19.899   5.079  0.00  0.00     0.077 C 
BRANCH  35  36
HETATM   36  C   UNK N   1      26.375  19.556   4.709  0.00  0.00     0.082 A 
HETATM   37  N   UNK N   1      25.606  18.686   5.409  0.00  0.00    -0.344 N 
HETATM   38  C   UNK N   1      24.407  18.789   4.825  0.00  0.00     0.060 A 
ATOM     39  HN  UNK N   1      25.877  18.093   6.195  1.00  0.00     0.167 HD
HETATM   40  C   UNK N   1      23.236  18.121   5.155  0.00  0.00     0.032 A 
HETATM   41  C   UNK N   1      24.462  19.702   3.820  0.00  0.00     0.061 A 
HETATM   42  C   UNK N   1      22.085  18.432   4.407  0.00  0.00     0.010 A 
HETATM   43  C   UNK N   1      22.129  19.398   3.363  0.00  0.00    -0.048 A 
HETATM   44  C   UNK N   1      23.353  20.044   3.065  0.00  0.00     0.039 A 
HETATM   45  N   UNK N   1      25.699  20.199   3.728  0.00  0.00    -0.344 N 
HETATM   46  H   UNK N   1      26.037  20.875   3.097  0.00  0.00     0.167 HD
BRANCH  43  47
HETATM   47  C   UNK N   1      20.869  19.726   2.590  0.00  0.00    -0.024 C 
HETATM   48  C   UNK N   1      21.234  20.348   1.254  0.00  0.00     0.019 C 
HETATM   49  C   UNK N   1      20.032  20.714   3.380  0.00  0.00     0.019 C 
HETATM   50  C   UNK N   1      20.010  18.500   2.313  0.00  0.00     0.019 C 
ENDBRANCH  43  47
ENDBRANCH  35  36
ENDBRANCH  34  35
ENDBRANCH  32  34
ENDBRANCH  26  30
ENDBRANCH   1  26
TORSDOF 12
ENDMDL
MODEL 6
REMARK VINA RESULT:      -8.3      5.961     13.002
REMARK  12 active torsions:
REMARK  status: ('A' for Active; 'I' for Inactive)
REMARK    1  A    between atoms: C_9  and  C_6 
REMARK    2  A    between atoms: C_17  and  C_6 
REMARK    3  A    between atoms: C_23  and  C_9 
REMARK    4  A    between atoms: C_22  and  C_13 
REMARK    5  A    between atoms: N_41  and  C_13 
REMARK    6  A    between atoms: N_41  and  C_16 
REMARK    7  A    between atoms: C_30  and  C_18 
REMARK    8  A    between atoms: C_19  and  N_41 
REMARK    9  A    between atoms: C_25  and  O_43 
REMARK   10  A    between atoms: C_26  and  O_44 
REMARK   11  A    between atoms: N_31  and  C_27 
REMARK   12  A    between atoms: C_29  and  N_42 
ROOT
HETATM    1  C   UNK N   1      33.142  16.298   6.082  0.00  0.00     0.307 C 
ENDROOT
BRANCH   1   2
HETATM    2  C   UNK N   1      33.151  16.363   7.613  0.00  0.00     0.183 C 
HETATM    3  C   UNK N   1      33.721  17.666   8.231  0.00  0.00     0.182 C 
HETATM    4  C   UNK N   1      34.522  17.077   9.384  0.00  0.00     0.198 C 
HETATM    5  C   UNK N   1      35.065  15.865   8.645  0.00  0.00     0.262 C 
HETATM    6  O   UNK N   1      33.925  15.284   8.078  0.00  0.00    -0.354 OA
BRANCH   3   7
HETATM    7  O   UNK N   1      34.590  18.304   7.334  0.00  0.00    -0.390 OA
HETATM    8  H   UNK N   1      34.742  18.860   6.555  0.00  0.00     0.210 HD
ENDBRANCH   3   7
BRANCH   4   9
HETATM    9  O   UNK N   1      35.517  17.944   9.846  0.00  0.00    -0.388 OA
HETATM   10  H   UNK N   1      35.871  18.571  10.495  0.00  0.00     0.210 HD
ENDBRANCH   4   9
BRANCH   5  11
HETATM   11  N   UNK N   1      35.791  14.831   9.371  0.00  0.00    -0.297 N 
HETATM   12  C   UNK N   1      36.363  13.777   8.731  0.00  0.00     0.188 A 
HETATM   13  N   UNK N   1      36.981  12.937   9.598  0.00  0.00    -0.346 N 
HETATM   14  C   UNK N   1      36.779  13.499  10.798  0.00  0.00     0.122 A 
ATOM     15  HN  UNK N   1      37.485  12.076   9.384  1.00  0.00     0.167 HD
HETATM   16  C   UNK N   1      37.187  13.069  12.042  0.00  0.00     0.131 A 
HETATM   17  C   UNK N   1      36.065  14.639  10.667  0.00  0.00     0.142 A 
HETATM   18  N   UNK N   1      36.846  13.829  13.123  0.00  0.00    -0.337 N 
HETATM   19  C   UNK N   1      36.119  14.989  12.971  0.00  0.00     0.183 A 
ATOM     20  HN  UNK N   1      37.134  13.535  14.056  1.00  0.00     0.168 HD
HETATM   21  N   UNK N   1      35.719  15.403  11.728  0.00  0.00    -0.336 N 
ATOM     22  HN  UNK N   1      35.179  16.260  11.605  1.00  0.00     0.168 HD
BRANCH  16  23
HETATM   23  N   UNK N   1      37.928  11.880  12.195  0.00  0.00    -0.383 N 
HETATM   24  H   UNK N   1      37.609  11.035  11.805  0.00  0.00     0.157 HD
HETATM   25  H   UNK N   1      38.775  11.895  12.698  0.00  0.00     0.157 HD
ENDBRANCH  16  23
ENDBRANCH   5  11
ENDBRANCH   1   2
BRANCH   1  26
HETATM   26  N   UNK N   1      31.799  16.575   5.515  0.00  0.00     0.099 N 
BRANCH  26  27
HETATM   27  C   UNK N   1      31.661  15.958   4.179  0.00  0.00     0.215 C 
HETATM   28  C   UNK N   1      32.489  14.688   4.059  0.00  0.00     0.042 C 
HETATM   29  C   UNK N   1      31.940  16.910   3.027  0.00  0.00     0.042 C 
ENDBRANCH  26  27
BRANCH  26  30
HETATM   30  C   UNK N   1      30.675  16.229   6.416  0.00  0.00     0.224 C 
HETATM   31  C   UNK N   1      30.014  17.435   7.061  0.00  0.00     0.040 C 
HETATM   32  C   UNK N   1      28.807  17.230   6.153  0.00  0.00    -0.010 C 
HETATM   33  C   UNK N   1      29.404  15.937   5.639  0.00  0.00     0.040 C 
BRANCH  32  34
HETATM   34  C   UNK N   1      28.727  18.238   4.995  0.00  0.00     0.012 C 
BRANCH  34  35
HETATM   35  C   UNK N   1      28.094  19.565   5.398  0.00  0.00     0.077 C 
BRANCH  35  36
HETATM   36  C   UNK N   1      26.677  19.570   4.980  0.00  0.00     0.082 A 
HETATM   37  N   UNK N   1      26.157  20.465   4.105  0.00  0.00    -0.344 N 
HETATM   38  C   UNK N   1      24.911  20.018   3.904  0.00  0.00     0.060 A 
ATOM     39  HN  UNK N   1      26.607  21.285   3.697  1.00  0.00     0.167 HD
HETATM   40  C   UNK N   1      23.933  20.557   3.080  0.00  0.00     0.032 A 
HETATM   41  C   UNK N   1      24.707  18.886   4.627  0.00  0.00     0.061 A 
HETATM   42  C   UNK N   1      22.704  19.876   3.011  0.00  0.00     0.010 A 
HETATM   43  C   UNK N   1      22.485  18.681   3.753  0.00  0.00    -0.048 A 
HETATM   44  C   UNK N   1      23.516  18.181   4.582  0.00  0.00     0.039 A 
HETATM   45  N   UNK N   1      25.811  18.585   5.318  0.00  0.00    -0.344 N 
HETATM   46  H   UNK N   1      25.959  17.825   5.926  0.00  0.00     0.167 HD
BRANCH  43  47
HETATM   47  C   UNK N   1      21.159  17.960   3.640  0.00  0.00    -0.024 C 
HETATM   48  C   UNK N   1      20.108  18.902   3.080  0.00  0.00     0.019 C 
HETATM   49  C   UNK N   1      20.718  17.492   5.014  0.00  0.00     0.019 C 
HETATM   50  C   UNK N   1      21.225  16.742   2.728  0.00  0.00     0.019 C 
ENDBRANCH  43  47
ENDBRANCH  35  36
ENDBRANCH  34  35
ENDBRANCH  32  34
ENDBRANCH  26  30
ENDBRANCH   1  26
TORSDOF 12
ENDMDL
MODEL 7
REMARK VINA RESULT:      -8.2      1.925      3.323
REMARK  12 active torsions:
REMARK  status: ('A' for Active; 'I' for Inactive)
REMARK    1  A    between atoms: C_9  and  C_6 
REMARK    2  A    between atoms: C_17  and  C_6 
REMARK    3  A    between atoms: C_23  and  C_9 
REMARK    4  A    between atoms: C_22  and  C_13 
REMARK    5  A    between atoms: N_41  and  C_13 
REMARK    6  A    between atoms: N_41  and  C_16 
REMARK    7  A    between atoms: C_30  and  C_18 
REMARK    8  A    between atoms: C_19  and  N_41 
REMARK    9  A    between atoms: C_25  and  O_43 
REMARK   10  A    between atoms: C_26  and  O_44 
REMARK   11  A    between atoms: N_31  and  C_27 
REMARK   12  A    between atoms: C_29  and  N_42 
ROOT
HETATM    1  C   UNK N   1      22.765  13.944   6.787  0.00  0.00     0.307 C 
ENDROOT
BRANCH   1   2
HETATM    2  C   UNK N   1      21.972  15.209   7.137  0.00  0.00     0.183 C 
HETATM    3  C   UNK N   1      20.457  15.005   7.402  0.00  0.00     0.182 C 
HETATM    4  C   UNK N   1      19.902  16.227   6.684  0.00  0.00     0.198 C 
HETATM    5  C   UNK N   1      20.838  16.192   5.487  0.00  0.00     0.262 C 
HETATM    6  O   UNK N   1      22.110  16.106   6.063  0.00  0.00    -0.354 OA
BRANCH   3   7
HETATM    7  O   UNK N   1      19.995  13.840   6.773  0.00  0.00    -0.390 OA
HETATM    8  H   UNK N   1      19.776  13.342   5.970  0.00  0.00     0.210 HD
ENDBRANCH   3   7
BRANCH   4   9
HETATM    9  O   UNK N   1      18.553  16.085   6.345  0.00  0.00    -0.388 OA
HETATM   10  H   UNK N   1      17.690  16.452   6.098  0.00  0.00     0.210 HD
ENDBRANCH   4   9
BRANCH   5  11
HETATM   11  N   UNK N   1      20.843  17.290   4.530  0.00  0.00    -0.297 N 
HETATM   12  C   UNK N   1      21.172  18.556   4.898  0.00  0.00     0.188 A 
HETATM   13  N   UNK N   1      21.106  19.418   3.853  0.00  0.00    -0.346 N 
HETATM   14  C   UNK N   1      20.725  18.651   2.821  0.00  0.00     0.122 A 
ATOM     15  HN  UNK N   1      21.301  20.419   3.853  1.00  0.00     0.167 HD
HETATM   16  C   UNK N   1      20.496  19.005   1.509  0.00  0.00     0.131 A 
HETATM   17  C   UNK N   1      20.566  17.371   3.223  0.00  0.00     0.142 A 
HETATM   18  N   UNK N   1      20.108  18.025   0.643  0.00  0.00    -0.337 N 
HETATM   19  C   UNK N   1      19.953  16.725   1.069  0.00  0.00     0.183 A 
ATOM     20  HN  UNK N   1      19.932  18.259  -0.335  1.00  0.00     0.168 HD
HETATM   21  N   UNK N   1      20.182  16.388   2.377  0.00  0.00    -0.336 N 
ATOM     22  HN  UNK N   1      20.068  15.427   2.703  1.00  0.00     0.168 HD
BRANCH  16  23
HETATM   23  N   UNK N   1      20.653  20.337   1.076  0.00  0.00    -0.383 N 
HETATM   24  H   UNK N   1      20.489  21.088   1.691  0.00  0.00     0.157 HD
HETATM   25  H   UNK N   1      20.929  20.519   0.149  0.00  0.00     0.157 HD
ENDBRANCH  16  23
ENDBRANCH   5  11
ENDBRANCH   1   2
BRANCH   1  26
HETATM   26  N   UNK N   1      23.991  14.248   6.008  0.00  0.00     0.099 N 
BRANCH  26  27
HETATM   27  C   UNK N   1      25.198  14.022   6.830  0.00  0.00     0.215 C 
HETATM   28  C   UNK N   1      24.884  13.216   8.080  0.00  0.00     0.042 C 
HETATM   29  C   UNK N   1      25.961  15.293   7.170  0.00  0.00     0.042 C 
ENDBRANCH  26  27
BRANCH  26  30
HETATM   30  C   UNK N   1      24.064  13.563   4.696  0.00  0.00     0.224 C 
HETATM   31  C   UNK N   1      23.824  14.482   3.511  0.00  0.00     0.040 C 
HETATM   32  C   UNK N   1      25.308  14.395   3.174  0.00  0.00    -0.010 C 
HETATM   33  C   UNK N   1      25.501  13.352   4.254  0.00  0.00     0.040 C 
BRANCH  32  34
HETATM   34  C   UNK N   1      26.102  15.657   3.552  0.00  0.00     0.012 C 
BRANCH  34  35
HETATM   35  C   UNK N   1      27.232  15.968   2.577  0.00  0.00     0.077 C 
BRANCH  35  36
HETATM   36  C   UNK N   1      28.485  16.162   3.337  0.00  0.00     0.082 A 
HETATM   37  N   UNK N   1      29.644  16.583   2.774  0.00  0.00    -0.344 N 
HETATM   38  C   UNK N   1      30.455  16.760   3.825  0.00  0.00     0.060 A 
ATOM     39  HN  UNK N   1      29.851  16.730   1.786  1.00  0.00     0.167 HD
HETATM   40  C   UNK N   1      31.771  17.200   3.824  0.00  0.00     0.032 A 
HETATM   41  C   UNK N   1      29.790  16.467   4.973  0.00  0.00     0.061 A 
HETATM   42  C   UNK N   1      32.403  17.341   5.073  0.00  0.00     0.010 A 
HETATM   43  C   UNK N   1      31.710  17.051   6.282  0.00  0.00    -0.048 A 
HETATM   44  C   UNK N   1      30.370  16.600   6.223  0.00  0.00     0.039 A 
HETATM   45  N   UNK N   1      28.541  16.084   4.688  0.00  0.00    -0.344 N 
HETATM   46  H   UNK N   1      27.831  15.812   5.312  0.00  0.00     0.167 HD
BRANCH  43  47
HETATM   47  C   UNK N   1      32.411  17.233   7.612  0.00  0.00    -0.024 C 
HETATM   48  C   UNK N   1      31.525  18.028   8.554  0.00  0.00     0.019 C 
HETATM   49  C   UNK N   1      33.709  17.989   7.402  0.00  0.00     0.019 C 
HETATM   50  C   UNK N   1      32.743  15.910   8.290  0.00  0.00     0.019 C 
ENDBRANCH  43  47
ENDBRANCH  35  36
ENDBRANCH  34  35
ENDBRANCH  32  34
ENDBRANCH  26  30
ENDBRANCH   1  26
TORSDOF 12
ENDMDL
MODEL 8
REMARK VINA RESULT:      -8.1      1.825      6.130
REMARK  12 active torsions:
REMARK  status: ('A' for Active; 'I' for Inactive)
REMARK    1  A    between atoms: C_9  and  C_6 
REMARK    2  A    between atoms: C_17  and  C_6 
REMARK    3  A    between atoms: C_23  and  C_9 
REMARK    4  A    between atoms: C_22  and  C_13 
REMARK    5  A    between atoms: N_41  and  C_13 
REMARK    6  A    between atoms: N_41  and  C_16 
REMARK    7  A    between atoms: C_30  and  C_18 
REMARK    8  A    between atoms: C_19  and  N_41 
REMARK    9  A    between atoms: C_25  and  O_43 
REMARK   10  A    between atoms: C_26  and  O_44 
REMARK   11  A    between atoms: N_31  and  C_27 
REMARK   12  A    between atoms: C_29  and  N_42 
ROOT
HETATM    1  C   UNK N   1      20.505  16.341   4.933  0.00  0.00     0.307 C 
ENDROOT
BRANCH   1   2
HETATM    2  C   UNK N   1      21.218  14.988   4.831  0.00  0.00     0.183 C 
HETATM    3  C   UNK N   1      20.298  13.740   4.790  0.00  0.00     0.182 C 
HETATM    4  C   UNK N   1      21.086  12.806   5.698  0.00  0.00     0.198 C 
HETATM    5  C   UNK N   1      21.510  13.844   6.724  0.00  0.00     0.262 C 
HETATM    6  O   UNK N   1      22.063  14.870   5.949  0.00  0.00    -0.354 OA
BRANCH   3   7
HETATM    7  O   UNK N   1      19.053  14.020   5.373  0.00  0.00    -0.390 OA
HETATM    8  H   UNK N   1      18.520  14.350   6.113  0.00  0.00     0.210 HD
ENDBRANCH   3   7
BRANCH   4   9
HETATM    9  O   UNK N   1      20.299  11.781   6.229  0.00  0.00    -0.388 OA
HETATM   10  H   UNK N   1      19.483  11.258   6.260  0.00  0.00     0.210 HD
ENDBRANCH   4   9
BRANCH   5  11
HETATM   11  N   UNK N   1      22.465  13.493   7.766  0.00  0.00    -0.297 N 
HETATM   12  C   UNK N   1      23.805  13.634   7.585  0.00  0.00     0.188 A 
HETATM   13  N   UNK N   1      24.505  13.245   8.679  0.00  0.00    -0.346 N 
HETATM   14  C   UNK N   1      23.562  12.856   9.549  0.00  0.00     0.122 A 
ATOM     15  HN  UNK N   1      25.517  13.248   8.809  1.00  0.00     0.167 HD
HETATM   16  C   UNK N   1      23.706  12.361  10.827  0.00  0.00     0.131 A 
HETATM   17  C   UNK N   1      22.335  13.004   9.006  0.00  0.00     0.142 A 
HETATM   18  N   UNK N   1      22.575  12.031  11.514  0.00  0.00    -0.337 N 
HETATM   19  C   UNK N   1      21.331  12.190  10.946  0.00  0.00     0.183 A 
ATOM     20  HN  UNK N   1      22.651  11.663  12.463  1.00  0.00     0.168 HD
HETATM   21  N   UNK N   1      21.203  12.681   9.673  0.00  0.00    -0.336 N 
ATOM     22  HN  UNK N   1      20.285  12.801   9.242  1.00  0.00     0.168 HD
BRANCH  16  23
HETATM   23  N   UNK N   1      24.981  12.197  11.406  0.00  0.00    -0.383 N 
HETATM   24  H   UNK N   1      25.352  11.298  11.556  0.00  0.00     0.157 HD
HETATM   25  H   UNK N   1      25.505  12.990  11.664  0.00  0.00     0.157 HD
ENDBRANCH  16  23
ENDBRANCH   5  11
ENDBRANCH   1   2
BRANCH   1  26
HETATM   26  N   UNK N   1      20.955  17.293   3.888  0.00  0.00     0.099 N 
BRANCH  26  27
HETATM   27  C   UNK N   1      19.885  17.519   2.894  0.00  0.00     0.215 C 
HETATM   28  C   UNK N   1      20.265  16.974   1.526  0.00  0.00     0.042 C 
HETATM   29  C   UNK N   1      19.421  18.965   2.803  0.00  0.00     0.042 C 
ENDBRANCH  26  27
BRANCH  26  30
HETATM   30  C   UNK N   1      21.511  18.560   4.418  0.00  0.00     0.224 C 
HETATM   31  C   UNK N   1      22.441  18.373   5.604  0.00  0.00     0.040 C 
HETATM   32  C   UNK N   1      23.622  18.713   4.702  0.00  0.00    -0.010 C 
HETATM   33  C   UNK N   1      22.672  19.058   3.575  0.00  0.00     0.040 C 
BRANCH  32  34
HETATM   34  C   UNK N   1      24.458  17.490   4.292  0.00  0.00     0.012 C 
BRANCH  34  35
HETATM   35  C   UNK N   1      25.757  17.862   3.585  0.00  0.00     0.077 C 
BRANCH  35  36
HETATM   36  C   UNK N   1      26.865  17.827   4.562  0.00  0.00     0.082 A 
HETATM   37  N   UNK N   1      26.680  17.729   5.902  0.00  0.00    -0.344 N 
HETATM   38  C   UNK N   1      27.922  17.582   6.378  0.00  0.00     0.060 A 
ATOM     39  HN  UNK N   1      25.804  17.760   6.423  1.00  0.00     0.167 HD
HETATM   40  C   UNK N   1      28.317  17.424   7.699  0.00  0.00     0.032 A 
HETATM   41  C   UNK N   1      28.811  17.580   5.351  0.00  0.00     0.061 A 
HETATM   42  C   UNK N   1      29.691  17.250   7.944  0.00  0.00     0.010 A 
HETATM   43  C   UNK N   1      30.629  17.230   6.873  0.00  0.00    -0.048 A 
HETATM   44  C   UNK N   1      30.171  17.403   5.546  0.00  0.00     0.039 A 
HETATM   45  N   UNK N   1      28.164  17.735   4.192  0.00  0.00    -0.344 N 
HETATM   46  H   UNK N   1      28.543  17.772   3.284  0.00  0.00     0.167 HD
BRANCH  43  47
HETATM   47  C   UNK N   1      32.100  17.020   7.166  0.00  0.00    -0.024 C 
HETATM   48  C   UNK N   1      32.344  15.571   7.550  0.00  0.00     0.019 C 
HETATM   49  C   UNK N   1      32.520  17.912   8.319  0.00  0.00     0.019 C 
HETATM   50  C   UNK N   1      32.991  17.342   5.975  0.00  0.00     0.019 C 
ENDBRANCH  43  47
ENDBRANCH  35  36
ENDBRANCH  34  35
ENDBRANCH  32  34
ENDBRANCH  26  30
ENDBRANCH   1  26
TORSDOF 12
ENDMDL
MODEL 9
REMARK VINA RESULT:      -8.1      6.291      9.108
REMARK  12 active torsions:
REMARK  status: ('A' for Active; 'I' for Inactive)
REMARK    1  A    between atoms: C_9  and  C_6 
REMARK    2  A    between atoms: C_17  and  C_6 
REMARK    3  A    between atoms: C_23  and  C_9 
REMARK    4  A    between atoms: C_22  and  C_13 
REMARK    5  A    between atoms: N_41  and  C_13 
REMARK    6  A    between atoms: N_41  and  C_16 
REMARK    7  A    between atoms: C_30  and  C_18 
REMARK    8  A    between atoms: C_19  and  N_41 
REMARK    9  A    between atoms: C_25  and  O_43 
REMARK   10  A    between atoms: C_26  and  O_44 
REMARK   11  A    between atoms: N_31  and  C_27 
REMARK   12  A    between atoms: C_29  and  N_42 
ROOT
HETATM    1  C   UNK N   1      31.113  15.516   3.063  0.00  0.00     0.307 C 
ENDROOT
BRANCH   1   2
HETATM    2  C   UNK N   1      29.859  15.349   3.930  0.00  0.00     0.183 C 
HETATM    3  C   UNK N   1      28.613  14.768   3.212  0.00  0.00     0.182 C 
HETATM    4  C   UNK N   1      27.530  15.650   3.817  0.00  0.00     0.198 C 
HETATM    5  C   UNK N   1      28.313  16.953   3.809  0.00  0.00     0.262 C 
HETATM    6  O   UNK N   1      29.521  16.618   4.433  0.00  0.00    -0.354 OA
BRANCH   3   7
HETATM    7  O   UNK N   1      28.685  14.993   1.830  0.00  0.00    -0.390 OA
HETATM    8  H   UNK N   1      29.200  15.163   1.026  0.00  0.00     0.210 HD
ENDBRANCH   3   7
BRANCH   4   9
HETATM    9  O   UNK N   1      26.370  15.688   3.038  0.00  0.00    -0.388 OA
HETATM   10  H   UNK N   1      25.442  15.929   2.899  0.00  0.00     0.210 HD
ENDBRANCH   4   9
BRANCH   5  11
HETATM   11  N   UNK N   1      27.772  18.135   4.466  0.00  0.00    -0.297 N 
HETATM   12  C   UNK N   1      27.112  19.099   3.771  0.00  0.00     0.188 A 
HETATM   13  N   UNK N   1      26.699  20.107   4.577  0.00  0.00    -0.346 N 
HETATM   14  C   UNK N   1      27.121  19.744   5.797  0.00  0.00     0.122 A 
ATOM     15  HN  UNK N   1      26.185  20.949   4.315  1.00  0.00     0.167 HD
HETATM   16  C   UNK N   1      26.979  20.401   7.000  0.00  0.00     0.131 A 
HETATM   17  C   UNK N   1      27.765  18.558   5.735  0.00  0.00     0.142 A 
HETATM   18  N   UNK N   1      27.508  19.814   8.113  0.00  0.00    -0.337 N 
HETATM   19  C   UNK N   1      28.160  18.604   8.032  0.00  0.00     0.183 A 
ATOM     20  HN  UNK N   1      27.417  20.278   9.018  1.00  0.00     0.168 HD
HETATM   21  N   UNK N   1      28.295  17.964   6.829  0.00  0.00    -0.336 N 
ATOM     22  HN  UNK N   1      28.778  17.067   6.758  1.00  0.00     0.168 HD
BRANCH  16  23
HETATM   23  N   UNK N   1      26.313  21.640   7.080  0.00  0.00    -0.383 N 
HETATM   24  H   UNK N   1      26.288  22.248   6.305  0.00  0.00     0.157 HD
HETATM   25  H   UNK N   1      25.867  21.902   7.918  0.00  0.00     0.157 HD
ENDBRANCH  16  23
ENDBRANCH   5  11
ENDBRANCH   1   2
BRANCH   1  26
HETATM   26  N   UNK N   1      32.340  15.051   3.754  0.00  0.00     0.099 N 
BRANCH  26  27
HETATM   27  C   UNK N   1      32.847  13.809   3.134  0.00  0.00     0.215 C 
HETATM   28  C   UNK N   1      33.047  12.709   4.164  0.00  0.00     0.042 C 
HETATM   29  C   UNK N   1      34.094  14.005   2.286  0.00  0.00     0.042 C 
ENDBRANCH  26  27
BRANCH  26  30
HETATM   30  C   UNK N   1      33.393  16.085   3.888  0.00  0.00     0.224 C 
HETATM   31  C   UNK N   1      32.850  17.487   4.107  0.00  0.00     0.040 C 
HETATM   32  C   UNK N   1      33.314  17.415   5.557  0.00  0.00    -0.010 C 
HETATM   33  C   UNK N   1      33.996  16.092   5.282  0.00  0.00     0.040 C 
BRANCH  32  34
HETATM   34  C   UNK N   1      32.171  17.188   6.561  0.00  0.00     0.012 C 
BRANCH  34  35
HETATM   35  C   UNK N   1      32.401  17.884   7.897  0.00  0.00     0.077 C 
BRANCH  35  36
HETATM   36  C   UNK N   1      33.295  17.051   8.728  0.00  0.00     0.082 A 
HETATM   37  N   UNK N   1      34.249  17.561   9.546  0.00  0.00    -0.344 N 
HETATM   38  C   UNK N   1      34.705  16.487  10.202  0.00  0.00     0.060 A 
ATOM     39  HN  UNK N   1      34.548  18.532   9.640  1.00  0.00     0.167 HD
HETATM   40  C   UNK N   1      35.689  16.437  11.179  0.00  0.00     0.032 A 
HETATM   41  C   UNK N   1      34.031  15.379   9.794  0.00  0.00     0.061 A 
HETATM   42  C   UNK N   1      35.966  15.181  11.749  0.00  0.00     0.010 A 
HETATM   43  C   UNK N   1      35.255  14.017  11.340  0.00  0.00    -0.048 A 
HETATM   44  C   UNK N   1      34.266  14.126  10.334  0.00  0.00     0.039 A 
HETATM   45  N   UNK N   1      33.135  15.713   8.860  0.00  0.00    -0.344 N 
HETATM   46  H   UNK N   1      32.507  15.124   8.383  0.00  0.00     0.167 HD
BRANCH  43  47
HETATM   47  C   UNK N   1      35.562  12.683  11.987  0.00  0.00    -0.024 C 
HETATM   48  C   UNK N   1      37.064  12.516  12.132  0.00  0.00     0.019 C 
HETATM   49  C   UNK N   1      35.023  11.562  11.120  0.00  0.00     0.019 C 
HETATM   50  C   UNK N   1      34.944  12.544  13.372  0.00  0.00     0.019 C 
ENDBRANCH  43  47
ENDBRANCH  35  36
ENDBRANCH  34  35
ENDBRANCH  32  34
ENDBRANCH  26  30
ENDBRANCH   1  26
TORSDOF 12
ENDMDL
