REMARK  5 active torsions:
REMARK  status: ('A' for Active; 'I' for Inactive)
REMARK    1  A    between atoms: N_4  and  O_24 
REMARK    2  A    between atoms: C_5  and  C_6 
REMARK    3  A    between atoms: C_6  and  O_7 
REMARK    4  A    between atoms: O_7  and  C_8 
REMARK       I    between atoms: C_8  and  N_9 
REMARK       I    between atoms: C_15  and  N_16 
REMARK    5  A    between atoms: C_21  and  O_23 
ROOT
HETATM    1  N   UNK N   1      -1.411  -0.942   0.712  0.00  0.00    -0.233 N 
ATOM      2  HN  UNK N   1      -1.492  -1.959   0.712  1.00  0.00     0.174 HD
HETATM    3  C   UNK N   1      -0.303  -0.415   0.324  0.00  0.00     0.698 C 
HETATM    4  N   UNK N   1      -0.338   0.777  -0.447  0.00  0.00    -0.082 N 
HETATM    5  C   UNK N   1       0.867   1.404  -0.943  0.00  0.00     0.185 C 
HETATM    6  C   UNK N   1       2.091   0.442  -1.035  0.00  0.00     0.183 C 
HETATM    7  C   UNK N   1       2.204  -0.596   0.141  0.00  0.00     0.217 C 
HETATM    8  N   UNK N   1       3.007   0.118   1.117  0.00  0.00    -0.191 N 
ATOM      9  HN  UNK N   1       3.065  -0.109   2.110  1.00  0.00     0.180 HD
HETATM   10  C   UNK N   1       3.626   1.070   0.545  0.00  0.00     0.670 C 
HETATM   11  N   UNK N   1       4.519   1.924   1.226  0.00  0.00    -0.235 N 
HETATM   12  N   UNK N   1       3.270   1.242  -0.795  0.00  0.00    -0.215 N 
HETATM   13  N   UNK N   1       0.936  -1.036   0.675  0.00  0.00    -0.181 N 
HETATM   14  C   UNK N   1       0.911  -2.435   0.973  0.00  0.00     0.150 C 
HETATM   15  C   UNK N   1       2.039  -3.027   0.159  0.00  0.00     0.093 C 
HETATM   16  C   UNK N   1       2.941  -1.901  -0.263  0.00  0.00     0.209 C 
HETATM   17  O   UNK N   1       3.126  -1.951  -1.598  0.00  0.00    -0.362 OA
HETATM   18  H   UNK N   1      -2.184  -0.410   1.009  0.00  0.00     0.174 HD
HETATM   19  H   UNK N   1       5.347   1.682   1.701  0.00  0.00     0.174 HD
HETATM   20  H   UNK N   1       4.286   2.880   1.226  0.00  0.00     0.174 HD
HETATM   21  H   UNK N   1       3.737   1.805  -1.455  0.00  0.00     0.178 HD
HETATM   22  H   UNK N   1       3.160  -2.081  -2.526  0.00  0.00     0.213 HD
ENDROOT
BRANCH  16  23
HETATM   23  O   UNK N   1       4.115  -2.031   0.394  0.00  0.00    -0.362 OA
HETATM   24  H   UNK N   1       4.443  -2.782   0.849  0.00  0.00     0.213 HD
ENDBRANCH  16  23
BRANCH   5  25
HETATM   25  C   UNK N   1       1.116   2.722  -0.193  0.00  0.00     0.211 C 
BRANCH  25  26
HETATM   26  O   UNK N   1       0.084   3.611  -0.384  0.00  0.00    -0.302 OA
BRANCH  26  27
HETATM   27  C   UNK N   1       0.151   4.892   0.051  0.00  0.00     0.358 C 
HETATM   28  N   UNK N   1      -0.921   5.696  -0.082  0.00  0.00    -0.346 N 
HETATM   29  H   UNK N   1      -0.803   6.669  -0.179  0.00  0.00     0.161 HD
HETATM   30  H   UNK N   1      -1.826   5.310  -0.082  0.00  0.00     0.161 HD
HETATM   31  O   UNK N   1       1.175   5.329   0.558  0.00  0.00    -0.239 OA
ENDBRANCH  26  27
ENDBRANCH  25  26
ENDBRANCH   5  25
BRANCH   4  32
HETATM   32  O   UNK N   1      -1.518   1.372  -0.677  0.00  0.00    -0.273 OA
HETATM   33  H   UNK N   1      -1.573   2.326  -0.843  0.00  0.00     0.245 HD
ENDBRANCH   4  32
TORSDOF 5
