MODEL 1
REMARK VINA RESULT:      -5.2      0.000      0.000
REMARK  6 active torsions:
REMARK  status: ('A' for Active; 'I' for Inactive)
REMARK    1  A    between atoms: C_2  and  C_3 
REMARK    2  A    between atoms: C_2  and  O_13 
REMARK    3  A    between atoms: C_4  and  C_3 
REMARK    4  A    between atoms: C_5  and  O_12 
REMARK    5  A    between atoms: C_6  and  O_11 
REMARK    6  A    between atoms: C_7  and  O_10 
ROOT
HETATM    1  C   UNK N   1      20.904  17.746   2.416  0.00  0.00     0.155 C 
HETATM    2  C   UNK N   1      20.202  18.647   1.388  0.00  0.00     0.178 C 
HETATM    3  C   UNK N   1      20.916  20.003   1.391  0.00  0.00     0.180 C 
HETATM    4  C   UNK N   1      21.041  20.544   2.814  0.00  0.00     0.173 C 
HETATM    5  C   UNK N   1      21.653  19.453   3.688  0.00  0.00     0.202 C 
HETATM    6  O   UNK N   1      20.800  18.336   3.688  0.00  0.00    -0.381 OA
ENDROOT
BRANCH   1   7
HETATM    7  C   UNK N   1      20.284  16.353   2.455  0.00  0.00     0.066 C 
BRANCH   7   8
HETATM    8  C   UNK N   1      19.855  15.974   3.868  0.00  0.00     0.116 C 
HETATM    9  C   UNK N   1      19.533  14.496   3.915  0.00  0.00     0.039 C 
BRANCH   8  10
HETATM   10  O   UNK N   1      18.724  16.695   4.254  0.00  0.00    -0.396 OA
HETATM   11  H   UNK N   1      18.491  17.552   3.863  0.00  0.00     0.210 HD
ENDBRANCH   8  10
ENDBRANCH   7   8
ENDBRANCH   1   7
BRANCH   2  12
HETATM   12  O   UNK N   1      20.276  18.087   0.113  0.00  0.00    -0.390 OA
HETATM   13  H   UNK N   1      19.748  17.344  -0.219  0.00  0.00     0.210 HD
ENDBRANCH   2  12
BRANCH   3  14
HETATM   14  O   UNK N   1      20.227  20.915   0.588  0.00  0.00    -0.390 OA
HETATM   15  H   UNK N   1      20.192  20.863  -0.381  0.00  0.00     0.210 HD
ENDBRANCH   3  14
BRANCH   4  16
HETATM   16  O   UNK N   1      21.868  21.668   2.825  0.00  0.00    -0.391 OA
HETATM   17  H   UNK N   1      22.761  21.726   3.201  0.00  0.00     0.210 HD
ENDBRANCH   4  16
TORSDOF 6
ENDMDL
MODEL 2
REMARK VINA RESULT:      -4.9     15.642     17.116
REMARK  6 active torsions:
REMARK  status: ('A' for Active; 'I' for Inactive)
REMARK    1  A    between atoms: C_2  and  C_3 
REMARK    2  A    between atoms: C_2  and  O_13 
REMARK    3  A    between atoms: C_4  and  C_3 
REMARK    4  A    between atoms: C_5  and  O_12 
REMARK    5  A    between atoms: C_6  and  O_11 
REMARK    6  A    between atoms: C_7  and  O_10 
ROOT
HETATM    1  C   UNK N   1      34.941  15.508   9.586  0.00  0.00     0.155 C 
HETATM    2  C   UNK N   1      34.142  14.559  10.493  0.00  0.00     0.178 C 
HETATM    3  C   UNK N   1      35.018  14.227  11.707  0.00  0.00     0.180 C 
HETATM    4  C   UNK N   1      36.402  13.759  11.262  0.00  0.00     0.173 C 
HETATM    5  C   UNK N   1      36.962  14.785  10.281  0.00  0.00     0.202 C 
HETATM    6  O   UNK N   1      36.113  14.858   9.163  0.00  0.00    -0.381 OA
ENDROOT
BRANCH   1   7
HETATM    7  C   UNK N   1      34.129  15.928   8.365  0.00  0.00     0.066 C 
BRANCH   7   8
HETATM    8  C   UNK N   1      34.070  17.447   8.230  0.00  0.00     0.116 C 
HETATM    9  C   UNK N   1      32.632  17.904   8.339  0.00  0.00     0.039 C 
BRANCH   8  10
HETATM   10  O   UNK N   1      34.584  17.856   6.999  0.00  0.00    -0.396 OA
HETATM   11  H   UNK N   1      34.756  18.787   6.787  0.00  0.00     0.210 HD
ENDBRANCH   8  10
ENDBRANCH   7   8
ENDBRANCH   1   7
BRANCH   2  12
HETATM   12  O   UNK N   1      32.964  15.167  10.924  0.00  0.00    -0.390 OA
HETATM   13  H   UNK N   1      32.773  15.475  11.824  0.00  0.00     0.210 HD
ENDBRANCH   2  12
BRANCH   3  14
HETATM   14  O   UNK N   1      34.407  13.247  12.492  0.00  0.00    -0.390 OA
HETATM   15  H   UNK N   1      33.959  13.430  13.333  0.00  0.00     0.210 HD
ENDBRANCH   3  14
BRANCH   4  16
HETATM   16  O   UNK N   1      37.249  13.659  12.366  0.00  0.00    -0.391 OA
HETATM   17  H   UNK N   1      37.409  12.867  12.903  0.00  0.00     0.210 HD
ENDBRANCH   4  16
TORSDOF 6
ENDMDL
MODEL 3
REMARK VINA RESULT:      -4.8     10.466     12.003
REMARK  6 active torsions:
REMARK  status: ('A' for Active; 'I' for Inactive)
REMARK    1  A    between atoms: C_2  and  C_3 
REMARK    2  A    between atoms: C_2  and  O_13 
REMARK    3  A    between atoms: C_4  and  C_3 
REMARK    4  A    between atoms: C_5  and  O_12 
REMARK    5  A    between atoms: C_6  and  O_11 
REMARK    6  A    between atoms: C_7  and  O_10 
ROOT
HETATM    1  C   UNK N   1      30.721  17.379   8.094  0.00  0.00     0.155 C 
HETATM    2  C   UNK N   1      29.717  18.190   8.927  0.00  0.00     0.178 C 
HETATM    3  C   UNK N   1      28.333  17.558   8.735  0.00  0.00     0.180 C 
HETATM    4  C   UNK N   1      28.020  17.384   7.251  0.00  0.00     0.173 C 
HETATM    5  C   UNK N   1      29.194  16.661   6.596  0.00  0.00     0.202 C 
HETATM    6  O   UNK N   1      30.351  17.446   6.739  0.00  0.00    -0.381 OA
ENDROOT
BRANCH   1   7
HETATM    7  C   UNK N   1      32.141  17.912   8.255  0.00  0.00     0.066 C 
BRANCH   7   8
HETATM    8  C   UNK N   1      33.113  16.801   8.641  0.00  0.00     0.116 C 
HETATM    9  C   UNK N   1      32.334  15.557   9.005  0.00  0.00     0.039 C 
BRANCH   8  10
HETATM   10  O   UNK N   1      33.894  17.182   9.732  0.00  0.00    -0.396 OA
HETATM   11  H   UNK N   1      33.781  18.032  10.187  0.00  0.00     0.210 HD
ENDBRANCH   8  10
ENDBRANCH   7   8
ENDBRANCH   1   7
BRANCH   2  12
HETATM   12  O   UNK N   1      30.059  18.155  10.279  0.00  0.00    -0.390 OA
HETATM   13  H   UNK N   1      30.151  18.920  10.868  0.00  0.00     0.210 HD
ENDBRANCH   2  12
BRANCH   3  14
HETATM   14  O   UNK N   1      27.354  18.343   9.346  0.00  0.00    -0.390 OA
HETATM   15  H   UNK N   1      27.342  19.313   9.317  0.00  0.00     0.210 HD
ENDBRANCH   3  14
BRANCH   4  16
HETATM   16  O   UNK N   1      26.860  16.626   7.094  0.00  0.00    -0.391 OA
HETATM   17  H   UNK N   1      26.779  15.784   6.618  0.00  0.00     0.210 HD
ENDBRANCH   4  16
TORSDOF 6
ENDMDL
MODEL 4
REMARK VINA RESULT:      -4.8     10.133     11.702
REMARK  6 active torsions:
REMARK  status: ('A' for Active; 'I' for Inactive)
REMARK    1  A    between atoms: C_2  and  C_3 
REMARK    2  A    between atoms: C_2  and  O_13 
REMARK    3  A    between atoms: C_4  and  C_3 
REMARK    4  A    between atoms: C_5  and  O_12 
REMARK    5  A    between atoms: C_6  and  O_11 
REMARK    6  A    between atoms: C_7  and  O_10 
ROOT
HETATM    1  C   UNK N   1      30.647  17.147   7.198  0.00  0.00     0.155 C 
HETATM    2  C   UNK N   1      30.943  17.979   8.456  0.00  0.00     0.178 C 
HETATM    3  C   UNK N   1      29.703  17.924   9.354  0.00  0.00     0.180 C 
HETATM    4  C   UNK N   1      28.447  18.287   8.564  0.00  0.00     0.173 C 
HETATM    5  C   UNK N   1      28.411  17.429   7.303  0.00  0.00     0.202 C 
HETATM    6  O   UNK N   1      29.548  17.710   6.526  0.00  0.00    -0.381 OA
ENDROOT
BRANCH   1   7
HETATM    7  C   UNK N   1      31.847  17.110   6.257  0.00  0.00     0.066 C 
BRANCH   7   8
HETATM    8  C   UNK N   1      31.416  16.868   4.814  0.00  0.00     0.116 C 
HETATM    9  C   UNK N   1      32.569  16.265   4.040  0.00  0.00     0.039 C 
BRANCH   8  10
HETATM   10  O   UNK N   1      31.037  18.064   4.202  0.00  0.00    -0.396 OA
HETATM   11  H   UNK N   1      30.356  18.107   3.513  0.00  0.00     0.210 HD
ENDBRANCH   8  10
ENDBRANCH   7   8
ENDBRANCH   1   7
BRANCH   2  12
HETATM   12  O   UNK N   1      32.038  17.454   9.144  0.00  0.00    -0.390 OA
HETATM   13  H   UNK N   1      32.030  17.090  10.043  0.00  0.00     0.210 HD
ENDBRANCH   2  12
BRANCH   3  14
HETATM   14  O   UNK N   1      29.854  18.786  10.442  0.00  0.00    -0.390 OA
HETATM   15  H   UNK N   1      30.707  18.982  10.862  0.00  0.00     0.210 HD
ENDBRANCH   3  14
BRANCH   4  16
HETATM   16  O   UNK N   1      27.311  18.035   9.333  0.00  0.00    -0.391 OA
HETATM   17  H   UNK N   1      26.411  17.881   9.003  0.00  0.00     0.210 HD
ENDBRANCH   4  16
TORSDOF 6
ENDMDL
MODEL 5
REMARK VINA RESULT:      -4.7      1.804      3.073
REMARK  6 active torsions:
REMARK  status: ('A' for Active; 'I' for Inactive)
REMARK    1  A    between atoms: C_2  and  C_3 
REMARK    2  A    between atoms: C_2  and  O_13 
REMARK    3  A    between atoms: C_4  and  C_3 
REMARK    4  A    between atoms: C_5  and  O_12 
REMARK    5  A    between atoms: C_6  and  O_11 
REMARK    6  A    between atoms: C_7  and  O_10 
ROOT
HETATM    1  C   UNK N   1      21.373  19.077   3.737  0.00  0.00     0.155 C 
HETATM    2  C   UNK N   1      20.569  18.189   2.775  0.00  0.00     0.178 C 
HETATM    3  C   UNK N   1      20.760  18.742   1.359  0.00  0.00     0.180 C 
HETATM    4  C   UNK N   1      20.471  20.242   1.322  0.00  0.00     0.173 C 
HETATM    5  C   UNK N   1      21.281  20.912   2.428  0.00  0.00     0.202 C 
HETATM    6  O   UNK N   1      20.877  20.391   3.670  0.00  0.00    -0.381 OA
ENDROOT
BRANCH   1   7
HETATM    7  C   UNK N   1      21.276  18.576   5.175  0.00  0.00     0.066 C 
BRANCH   7   8
HETATM    8  C   UNK N   1      22.577  17.920   5.626  0.00  0.00     0.116 C 
HETATM    9  C   UNK N   1      23.722  18.451   4.790  0.00  0.00     0.039 C 
BRANCH   8  10
HETATM   10  O   UNK N   1      22.513  16.535   5.478  0.00  0.00    -0.396 OA
HETATM   11  H   UNK N   1      21.676  16.060   5.353  0.00  0.00     0.210 HD
ENDBRANCH   8  10
ENDBRANCH   7   8
ENDBRANCH   1   7
BRANCH   2  12
HETATM   12  O   UNK N   1      21.028  16.873   2.825  0.00  0.00    -0.390 OA
HETATM   13  H   UNK N   1      21.893  16.578   3.149  0.00  0.00     0.210 HD
ENDBRANCH   2  12
BRANCH   3  14
HETATM   14  O   UNK N   1      19.931  18.069   0.460  0.00  0.00    -0.390 OA
HETATM   15  H   UNK N   1      19.639  18.439  -0.388  0.00  0.00     0.210 HD
ENDBRANCH   3  14
BRANCH   4  16
HETATM   16  O   UNK N   1      20.846  20.768   0.086  0.00  0.00    -0.391 OA
HETATM   17  H   UNK N   1      20.508  20.500  -0.784  0.00  0.00     0.210 HD
ENDBRANCH   4  16
TORSDOF 6
ENDMDL
MODEL 6
REMARK VINA RESULT:      -4.6      8.893     10.477
REMARK  6 active torsions:
REMARK  status: ('A' for Active; 'I' for Inactive)
REMARK    1  A    between atoms: C_2  and  C_3 
REMARK    2  A    between atoms: C_2  and  O_13 
REMARK    3  A    between atoms: C_4  and  C_3 
REMARK    4  A    between atoms: C_5  and  O_12 
REMARK    5  A    between atoms: C_6  and  O_11 
REMARK    6  A    between atoms: C_7  and  O_10 
ROOT
HETATM    1  C   UNK N   1      28.628  17.792   6.917  0.00  0.00     0.155 C 
HETATM    2  C   UNK N   1      28.421  18.061   8.416  0.00  0.00     0.178 C 
HETATM    3  C   UNK N   1      29.787  18.407   9.021  0.00  0.00     0.180 C 
HETATM    4  C   UNK N   1      30.826  17.354   8.644  0.00  0.00     0.173 C 
HETATM    5  C   UNK N   1      30.784  17.160   7.131  0.00  0.00     0.202 C 
HETATM    6  O   UNK N   1      29.505  16.704   6.765  0.00  0.00    -0.381 OA
ENDROOT
BRANCH   1   7
HETATM    7  C   UNK N   1      27.309  17.477   6.218  0.00  0.00     0.066 C 
BRANCH   7   8
HETATM    8  C   UNK N   1      26.882  18.615   5.296  0.00  0.00     0.116 C 
HETATM    9  C   UNK N   1      28.111  19.334   4.784  0.00  0.00     0.039 C 
BRANCH   8  10
HETATM   10  O   UNK N   1      26.074  19.528   5.976  0.00  0.00    -0.396 OA
HETATM   11  H   UNK N   1      26.385  20.409   6.237  0.00  0.00     0.210 HD
ENDBRANCH   8  10
ENDBRANCH   7   8
ENDBRANCH   1   7
BRANCH   2  12
HETATM   12  O   UNK N   1      27.546  19.130   8.606  0.00  0.00    -0.390 OA
HETATM   13  H   UNK N   1      26.907  19.227   9.329  0.00  0.00     0.210 HD
ENDBRANCH   2  12
BRANCH   3  14
HETATM   14  O   UNK N   1      29.688  18.512  10.409  0.00  0.00    -0.390 OA
HETATM   15  H   UNK N   1      28.978  18.108  10.933  0.00  0.00     0.210 HD
ENDBRANCH   3  14
BRANCH   4  16
HETATM   16  O   UNK N   1      32.099  17.783   9.023  0.00  0.00    -0.391 OA
HETATM   17  H   UNK N   1      32.307  18.537   9.598  0.00  0.00     0.210 HD
ENDBRANCH   4  16
TORSDOF 6
ENDMDL
MODEL 7
REMARK VINA RESULT:      -4.6     16.105     17.183
REMARK  6 active torsions:
REMARK  status: ('A' for Active; 'I' for Inactive)
REMARK    1  A    between atoms: C_2  and  C_3 
REMARK    2  A    between atoms: C_2  and  O_13 
REMARK    3  A    between atoms: C_4  and  C_3 
REMARK    4  A    between atoms: C_5  and  O_12 
REMARK    5  A    between atoms: C_6  and  O_11 
REMARK    6  A    between atoms: C_7  and  O_10 
ROOT
HETATM    1  C   UNK N   1      35.231  14.351  10.442  0.00  0.00     0.155 C 
HETATM    2  C   UNK N   1      35.896  15.678  10.041  0.00  0.00     0.178 C 
HETATM    3  C   UNK N   1      34.796  16.741   9.950  0.00  0.00     0.180 C 
HETATM    4  C   UNK N   1      33.643  16.252   9.075  0.00  0.00     0.173 C 
HETATM    5  C   UNK N   1      33.215  14.875   9.574  0.00  0.00     0.202 C 
HETATM    6  O   UNK N   1      34.300  13.989   9.453  0.00  0.00    -0.381 OA
ENDROOT
BRANCH   1   7
HETATM    7  C   UNK N   1      36.260  13.235  10.597  0.00  0.00     0.066 C 
BRANCH   7   8
HETATM    8  C   UNK N   1      36.395  12.801  12.054  0.00  0.00     0.116 C 
HETATM    9  C   UNK N   1      35.021  12.727  12.684  0.00  0.00     0.039 C 
BRANCH   8  10
HETATM   10  O   UNK N   1      37.174  13.707  12.772  0.00  0.00    -0.396 OA
HETATM   11  H   UNK N   1      37.398  14.588  12.434  0.00  0.00     0.210 HD
ENDBRANCH   8  10
ENDBRANCH   7   8
ENDBRANCH   1   7
BRANCH   2  12
HETATM   12  O   UNK N   1      36.836  16.063  10.996  0.00  0.00    -0.390 OA
HETATM   13  H   UNK N   1      36.853  16.906  11.477  0.00  0.00     0.210 HD
ENDBRANCH   2  12
BRANCH   3  14
HETATM   14  O   UNK N   1      35.315  17.933   9.441  0.00  0.00    -0.390 OA
HETATM   15  H   UNK N   1      34.776  18.625   9.028  0.00  0.00     0.210 HD
ENDBRANCH   3  14
BRANCH   4  16
HETATM   16  O   UNK N   1      32.567  17.136   9.168  0.00  0.00    -0.391 OA
HETATM   17  H   UNK N   1      32.612  18.083   9.377  0.00  0.00     0.210 HD
ENDBRANCH   4  16
TORSDOF 6
ENDMDL
MODEL 8
REMARK VINA RESULT:      -4.5     12.384     13.400
REMARK  6 active torsions:
REMARK  status: ('A' for Active; 'I' for Inactive)
REMARK    1  A    between atoms: C_2  and  C_3 
REMARK    2  A    between atoms: C_2  and  O_13 
REMARK    3  A    between atoms: C_4  and  C_3 
REMARK    4  A    between atoms: C_5  and  O_12 
REMARK    5  A    between atoms: C_6  and  O_11 
REMARK    6  A    between atoms: C_7  and  O_10 
ROOT
HETATM    1  C   UNK N   1      30.572  21.129  -5.149  0.00  0.00     0.155 C 
HETATM    2  C   UNK N   1      31.827  20.851  -4.307  0.00  0.00     0.178 C 
HETATM    3  C   UNK N   1      31.547  21.334  -2.880  0.00  0.00     0.180 C 
HETATM    4  C   UNK N   1      31.023  22.768  -2.888  0.00  0.00     0.173 C 
HETATM    5  C   UNK N   1      29.858  22.846  -3.871  0.00  0.00     0.202 C 
HETATM    6  O   UNK N   1      30.322  22.513  -5.155  0.00  0.00    -0.381 OA
ENDROOT
BRANCH   1   7
HETATM    7  C   UNK N   1      30.742  20.642  -6.585  0.00  0.00     0.066 C 
BRANCH   7   8
HETATM    8  C   UNK N   1      29.393  20.400  -7.255  0.00  0.00     0.116 C 
HETATM    9  C   UNK N   1      29.321  18.966  -7.733  0.00  0.00     0.039 C 
BRANCH   8  10
HETATM   10  O   UNK N   1      29.222  21.250  -8.347  0.00  0.00    -0.396 OA
HETATM   11  H   UNK N   1      29.782  22.027  -8.499  0.00  0.00     0.210 HD
ENDBRANCH   8  10
ENDBRANCH   7   8
ENDBRANCH   1   7
BRANCH   2  12
HETATM   12  O   UNK N   1      32.112  19.486  -4.288  0.00  0.00    -0.390 OA
HETATM   13  H   UNK N   1      32.041  18.896  -3.521  0.00  0.00     0.210 HD
ENDBRANCH   2  12
BRANCH   3  14
HETATM   14  O   UNK N   1      32.705  21.248  -2.104  0.00  0.00    -0.390 OA
HETATM   15  H   UNK N   1      33.459  21.853  -2.189  0.00  0.00     0.210 HD
ENDBRANCH   3  14
BRANCH   4  16
HETATM   16  O   UNK N   1      30.580  23.121  -1.612  0.00  0.00    -0.391 OA
HETATM   17  H   UNK N   1      30.792  22.667  -0.781  0.00  0.00     0.210 HD
ENDBRANCH   4  16
TORSDOF 6
ENDMDL
MODEL 9
REMARK VINA RESULT:      -4.4     10.810     12.506
REMARK  6 active torsions:
REMARK  status: ('A' for Active; 'I' for Inactive)
REMARK    1  A    between atoms: C_2  and  C_3 
REMARK    2  A    between atoms: C_2  and  O_13 
REMARK    3  A    between atoms: C_4  and  C_3 
REMARK    4  A    between atoms: C_5  and  O_12 
REMARK    5  A    between atoms: C_6  and  O_11 
REMARK    6  A    between atoms: C_7  and  O_10 
ROOT
HETATM    1  C   UNK N   1      29.041  23.257  -3.948  0.00  0.00     0.155 C 
HETATM    2  C   UNK N   1      29.985  22.584  -4.958  0.00  0.00     0.178 C 
HETATM    3  C   UNK N   1      30.885  21.617  -4.183  0.00  0.00     0.180 C 
HETATM    4  C   UNK N   1      31.534  22.319  -2.992  0.00  0.00     0.173 C 
HETATM    5  C   UNK N   1      30.436  23.015  -2.191  0.00  0.00     0.202 C 
HETATM    6  O   UNK N   1      29.809  23.969  -3.010  0.00  0.00    -0.381 OA
ENDROOT
BRANCH   1   7
HETATM    7  C   UNK N   1      28.074  24.214  -4.638  0.00  0.00     0.066 C 
BRANCH   7   8
HETATM    8  C   UNK N   1      26.797  24.397  -3.824  0.00  0.00     0.116 C 
HETATM    9  C   UNK N   1      26.468  25.871  -3.732  0.00  0.00     0.039 C 
BRANCH   8  10
HETATM   10  O   UNK N   1      26.952  23.886  -2.536  0.00  0.00    -0.396 OA
HETATM   11  H   UNK N   1      27.601  24.238  -1.907  0.00  0.00     0.210 HD
ENDBRANCH   8  10
ENDBRANCH   7   8
ENDBRANCH   1   7
BRANCH   2  12
HETATM   12  O   UNK N   1      29.255  21.876  -5.913  0.00  0.00    -0.390 OA
HETATM   13  H   UNK N   1      29.571  21.117  -6.429  0.00  0.00     0.210 HD
ENDBRANCH   2  12
BRANCH   3  14
HETATM   14  O   UNK N   1      31.866  21.089  -5.024  0.00  0.00    -0.390 OA
HETATM   15  H   UNK N   1      32.480  21.630  -5.546  0.00  0.00     0.210 HD
ENDBRANCH   3  14
BRANCH   4  16
HETATM   16  O   UNK N   1      32.181  21.385  -2.182  0.00  0.00    -0.391 OA
HETATM   17  H   UNK N   1      32.942  20.835  -2.428  0.00  0.00     0.210 HD
ENDBRANCH   4  16
TORSDOF 6
ENDMDL
