REMARK  9 active torsions:
REMARK  status: ('A' for Active; 'I' for Inactive)
REMARK    1  A    between atoms: O_31  and  C_9 
REMARK    2  A    between atoms: O_32  and  C_10 
REMARK    3  A    between atoms: O_33  and  C_11 
REMARK    4  A    between atoms: O_34  and  C_12 
REMARK    5  A    between atoms: O_35  and  C_13 
REMARK    6  A    between atoms: O_36  and  C_14 
REMARK    7  A    between atoms: C_16  and  C_15 
REMARK    8  A    between atoms: C_18  and  C_17 
REMARK    9  A    between atoms: C_28  and  C_27 
ROOT
HETATM    1  C   UNK N   1      -2.085   5.428   0.225  0.00  0.00     0.049 C 
HETATM    2  C   UNK N   1      -2.092   3.138   0.045  0.00  0.00     0.045 A 
HETATM    3  C   UNK N   1       3.320  -1.724  -0.002  0.00  0.00     0.075 A 
HETATM    4  C   UNK N   1      -1.259   4.221   0.095  0.00  0.00    -0.047 A 
HETATM    5  C   UNK N   1      -1.641   1.872  -0.024  0.00  0.00     0.081 A 
HETATM    6  C   UNK N   1       4.292  -0.760   0.034  0.00  0.00     0.080 A 
HETATM    7  C   UNK N   1       2.005  -1.411  -0.061  0.00  0.00     0.083 A 
HETATM    8  C   UNK N   1       0.200   4.066   0.056  0.00  0.00    -0.006 A 
HETATM    9  C   UNK N   1       3.963   0.656  -0.024  0.00  0.00     0.023 A 
HETATM   10  C   UNK N   1      -0.266   1.621  -0.027  0.00  0.00     0.060 A 
HETATM   11  C   UNK N   1       1.602  -0.066  -0.052  0.00  0.00     0.060 A 
HETATM   12  C   UNK N   1       0.687   2.692   0.010  0.00  0.00     0.005 A 
HETATM   13  C   UNK N   1       2.556   0.997  -0.027  0.00  0.00     0.007 A 
HETATM   14  C   UNK N   1       2.100   2.373   0.003  0.00  0.00     0.000 A 
HETATM   15  C   UNK N   1       0.178   0.232  -0.063  0.00  0.00     0.199 A 
HETATM   16  O   UNK N   1      -0.639  -0.678  -0.078  0.00  0.00    -0.286 OA
ENDROOT
BRANCH   5  17
HETATM   17  O   UNK N   1      -2.554   0.885  -0.076  0.00  0.00    -0.360 OA
HETATM   18  H   UNK N   1      -3.468   1.092  -0.112  0.00  0.00     0.217 HD
ENDBRANCH   5  17
BRANCH   8  19
HETATM   19  C   UNK N   1       1.190   5.153   0.068  0.00  0.00    -0.006 A 
HETATM   20  C   UNK N   1       0.897   6.592   0.059  0.00  0.00    -0.047 A 
HETATM   21  C   UNK N   1      -0.386   7.303   0.004  0.00  0.00     0.049 C 
HETATM   22  C   UNK N   1       1.899   7.523   0.060  0.00  0.00     0.045 A 
HETATM   23  C   UNK N   1       3.204   7.192   0.076  0.00  0.00     0.081 A 
HETATM   24  C   UNK N   1       3.581   5.846   0.087  0.00  0.00     0.060 A 
HETATM   25  C   UNK N   1       2.604   4.797   0.069  0.00  0.00     0.005 A 
HETATM   26  C   UNK N   1       5.006   5.534   0.107  0.00  0.00     0.199 A 
HETATM   27  C   UNK N   1       3.054   3.421   0.040  0.00  0.00     0.000 A 
HETATM   28  C   UNK N   1       4.468   3.097   0.019  0.00  0.00     0.007 A 
HETATM   29  C   UNK N   1       4.938   1.730  -0.044  0.00  0.00     0.023 A 
HETATM   30  C   UNK N   1       5.436   4.147   0.047  0.00  0.00     0.060 A 
HETATM   31  C   UNK N   1       6.377   1.540  -0.159  0.00  0.00     0.080 A 
HETATM   32  C   UNK N   1       7.246   2.597  -0.112  0.00  0.00     0.075 A 
HETATM   33  C   UNK N   1       6.813   3.873   0.007  0.00  0.00     0.083 A 
HETATM   34  O   UNK N   1       5.835   6.433   0.161  0.00  0.00    -0.286 OA
BRANCH  23  35
HETATM   35  O   UNK N   1       4.102   8.194   0.064  0.00  0.00    -0.360 OA
HETATM   36  H   UNK N   1       5.019   8.000   0.056  0.00  0.00     0.217 HD
ENDBRANCH  23  35
BRANCH  27  37
ENDBRANCH  27  37
BRANCH  29  37
ENDBRANCH  29  37
BRANCH  31  37
HETATM   37  O   UNK N   1       6.976   0.374  -0.381  0.00  0.00    -0.360 OA
HETATM   38  H   UNK N   1       6.476  -0.403  -0.538  0.00  0.00     0.217 HD
ENDBRANCH  31  37
BRANCH  33  39
HETATM   39  O   UNK N   1       7.741   4.847   0.052  0.00  0.00    -0.360 OA
HETATM   40  H   UNK N   1       8.651   4.627   0.083  0.00  0.00     0.217 HD
ENDBRANCH  33  39
ENDBRANCH   8  19
BRANCH   7  41
HETATM   41  O   UNK N   1       1.122  -2.426  -0.101  0.00  0.00    -0.360 OA
HETATM   42  H   UNK N   1       0.202  -2.246  -0.129  0.00  0.00     0.217 HD
ENDBRANCH   7  41
BRANCH   6  43
HETATM   43  O   UNK N   1       5.517  -1.253   0.187  0.00  0.00    -0.360 OA
HETATM   44  H   UNK N   1       5.648  -2.174   0.295  0.00  0.00     0.217 HD
ENDBRANCH   6  43
TORSDOF 9
