MODEL 1
REMARK VINA RESULT:      -5.8      0.000      0.000
REMARK  1 active torsions:
REMARK  status: ('A' for Active; 'I' for Inactive)
REMARK       I    between atoms: C_2  and  N_11 
REMARK       I    between atoms: N_11  and  C_12 
REMARK    1  A    between atoms: C_12  and  O_14 
ROOT
HETATM    1  N   UNK N   1      35.505  17.137  10.365  0.00  0.00    -0.189 N 
HETATM    2  C   UNK N   1      35.178  16.016  11.059  0.00  0.00     0.687 A 
HETATM    3  N   UNK N   1      34.124  15.351  10.522  0.00  0.00    -0.189 N 
ATOM      4  HN  UNK N   1      33.699  14.483  10.844  1.00  0.00     0.184 HD
HETATM    5  C   UNK N   1      33.775  16.102   9.468  0.00  0.00     0.076 A 
HETATM    6  C   UNK N   1      32.740  15.883   8.564  0.00  0.00     0.032 A 
HETATM    7  C   UNK N   1      32.583  16.816   7.521  0.00  0.00     0.002 A 
HETATM    8  C   UNK N   1      33.458  17.924   7.412  0.00  0.00     0.002 A 
HETATM    9  C   UNK N   1      34.490  18.111   8.351  0.00  0.00     0.032 A 
HETATM   10  C   UNK N   1      34.608  17.171   9.369  0.00  0.00     0.076 A 
HETATM   11  N   UNK N   1      35.943  15.581  12.179  0.00  0.00    -0.135 N 
HETATM   12  C   UNK N   1      35.811  14.485  12.987  0.00  0.00     0.378 C 
HETATM   13  O   UNK N   1      36.696  14.265  13.796  0.00  0.00    -0.238 OA
HETATM   14  H   UNK N   1      36.232  17.775  10.550  0.00  0.00     0.184 HD
HETATM   15  H   UNK N   1      36.697  16.171  12.413  0.00  0.00     0.189 HD
ENDROOT
BRANCH  12  16
HETATM   16  O   UNK N   1      34.777  13.603  12.925  0.00  0.00    -0.308 OA
HETATM   17  C   UNK N   1      34.888  12.259  12.676  0.00  0.00     0.215 C 
ENDBRANCH  12  16
TORSDOF 1
ENDMDL
MODEL 2
REMARK VINA RESULT:      -5.7     13.073     14.744
REMARK  1 active torsions:
REMARK  status: ('A' for Active; 'I' for Inactive)
REMARK       I    between atoms: C_2  and  N_11 
REMARK       I    between atoms: N_11  and  C_12 
REMARK    1  A    between atoms: C_12  and  O_14 
ROOT
HETATM    1  N   UNK N   1      44.073  21.845   3.258  0.00  0.00    -0.189 N 
HETATM    2  C   UNK N   1      44.191  23.063   2.669  0.00  0.00     0.687 A 
HETATM    3  N   UNK N   1      43.035  23.486   2.097  0.00  0.00    -0.189 N 
ATOM      4  HN  UNK N   1      42.860  24.364   1.610  1.00  0.00     0.184 HD
HETATM    5  C   UNK N   1      42.178  22.481   2.324  0.00  0.00     0.076 A 
HETATM    6  C   UNK N   1      40.843  22.389   1.941  0.00  0.00     0.032 A 
HETATM    7  C   UNK N   1      40.141  21.227   2.316  0.00  0.00     0.002 A 
HETATM    8  C   UNK N   1      40.785  20.208   3.058  0.00  0.00     0.002 A 
HETATM    9  C   UNK N   1      42.139  20.339   3.422  0.00  0.00     0.032 A 
HETATM   10  C   UNK N   1      42.799  21.498   3.028  0.00  0.00     0.076 A 
HETATM   11  N   UNK N   1      45.398  23.815   2.743  0.00  0.00    -0.135 N 
HETATM   12  C   UNK N   1      45.717  25.053   2.257  0.00  0.00     0.378 C 
HETATM   13  O   UNK N   1      46.786  25.536   2.586  0.00  0.00    -0.238 OA
HETATM   14  H   UNK N   1      44.762  21.336   3.743  0.00  0.00     0.184 HD
HETATM   15  H   UNK N   1      46.129  23.367   3.226  0.00  0.00     0.189 HD
ENDROOT
BRANCH  12  16
HETATM   16  O   UNK N   1      44.905  25.800   1.459  0.00  0.00    -0.308 OA
HETATM   17  C   UNK N   1      45.275  26.404   0.285  0.00  0.00     0.215 C 
ENDBRANCH  12  16
TORSDOF 1
ENDMDL
MODEL 3
REMARK VINA RESULT:      -5.6      2.473      5.962
REMARK  1 active torsions:
REMARK  status: ('A' for Active; 'I' for Inactive)
REMARK       I    between atoms: C_2  and  N_11 
REMARK       I    between atoms: N_11  and  C_12 
REMARK    1  A    between atoms: C_12  and  O_14 
ROOT
HETATM    1  N   UNK N   1      36.762  14.550  13.579  0.00  0.00    -0.189 N 
HETATM    2  C   UNK N   1      35.954  14.782  12.513  0.00  0.00     0.687 A 
HETATM    3  N   UNK N   1      34.990  13.839  12.366  0.00  0.00    -0.189 N 
ATOM      4  HN  UNK N   1      34.257  13.794  11.660  1.00  0.00     0.184 HD
HETATM    5  C   UNK N   1      35.226  12.981  13.369  0.00  0.00     0.076 A 
HETATM    6  C   UNK N   1      34.532  11.816  13.682  0.00  0.00     0.032 A 
HETATM    7  C   UNK N   1      34.966  11.085  14.806  0.00  0.00     0.002 A 
HETATM    8  C   UNK N   1      36.064  11.540  15.575  0.00  0.00     0.002 A 
HETATM    9  C   UNK N   1      36.742  12.723  15.221  0.00  0.00     0.032 A 
HETATM   10  C   UNK N   1      36.286  13.412  14.102  0.00  0.00     0.076 A 
HETATM   11  N   UNK N   1      36.093  15.951  11.710  0.00  0.00    -0.135 N 
HETATM   12  C   UNK N   1      35.378  16.389  10.630  0.00  0.00     0.378 C 
HETATM   13  O   UNK N   1      35.612  17.509  10.209  0.00  0.00    -0.238 OA
HETATM   14  H   UNK N   1      37.521  15.092  13.895  0.00  0.00     0.184 HD
HETATM   15  H   UNK N   1      36.829  16.546  11.980  0.00  0.00     0.189 HD
ENDROOT
BRANCH  12  16
HETATM   16  O   UNK N   1      34.398  15.673  10.013  0.00  0.00    -0.308 OA
HETATM   17  C   UNK N   1      34.549  14.936   8.867  0.00  0.00     0.215 C 
ENDBRANCH  12  16
TORSDOF 1
ENDMDL
MODEL 4
REMARK VINA RESULT:      -5.4     19.695     21.302
REMARK  1 active torsions:
REMARK  status: ('A' for Active; 'I' for Inactive)
REMARK       I    between atoms: C_2  and  N_11 
REMARK       I    between atoms: N_11  and  C_12 
REMARK    1  A    between atoms: C_12  and  O_14 
ROOT
HETATM    1  N   UNK N   1      26.352  24.162  -4.653  0.00  0.00    -0.189 N 
HETATM    2  C   UNK N   1      25.808  24.034  -5.890  0.00  0.00     0.687 A 
HETATM    3  N   UNK N   1      25.308  25.200  -6.371  0.00  0.00    -0.189 N 
ATOM      4  HN  UNK N   1      24.865  25.369  -7.273  1.00  0.00     0.184 HD
HETATM    5  C   UNK N   1      25.532  26.076  -5.382  0.00  0.00     0.076 A 
HETATM    6  C   UNK N   1      25.207  27.429  -5.345  0.00  0.00     0.032 A 
HETATM    7  C   UNK N   1      25.566  28.150  -4.189  0.00  0.00     0.002 A 
HETATM    8  C   UNK N   1      26.235  27.505  -3.121  0.00  0.00     0.002 A 
HETATM    9  C   UNK N   1      26.542  26.132  -3.198  0.00  0.00     0.032 A 
HETATM   10  C   UNK N   1      26.166  25.456  -4.353  0.00  0.00     0.076 A 
HETATM   11  N   UNK N   1      25.857  22.801  -6.603  0.00  0.00    -0.135 N 
HETATM   12  C   UNK N   1      25.409  22.467  -7.851  0.00  0.00     0.378 C 
HETATM   13  O   UNK N   1      25.708  21.369  -8.288  0.00  0.00    -0.238 OA
HETATM   14  H   UNK N   1      26.782  23.468  -4.103  0.00  0.00     0.184 HD
HETATM   15  H   UNK N   1      26.287  22.063  -6.114  0.00  0.00     0.189 HD
ENDROOT
BRANCH  12  16
HETATM   16  O   UNK N   1      24.681  23.290  -8.654  0.00  0.00    -0.308 OA
HETATM   17  C   UNK N   1      25.194  24.156  -9.585  0.00  0.00     0.215 C 
ENDBRANCH  12  16
TORSDOF 1
ENDMDL
MODEL 5
REMARK VINA RESULT:      -5.3     14.989     16.569
REMARK  1 active torsions:
REMARK  status: ('A' for Active; 'I' for Inactive)
REMARK       I    between atoms: C_2  and  N_11 
REMARK       I    between atoms: N_11  and  C_12 
REMARK    1  A    between atoms: C_12  and  O_14 
ROOT
HETATM    1  N   UNK N   1      19.489  17.394   2.995  0.00  0.00    -0.189 N 
HETATM    2  C   UNK N   1      20.323  18.466   2.976  0.00  0.00     0.687 A 
HETATM    3  N   UNK N   1      21.078  18.567   4.099  0.00  0.00    -0.189 N 
ATOM      4  HN  UNK N   1      21.784  19.268   4.321  1.00  0.00     0.184 HD
HETATM    5  C   UNK N   1      20.678  17.530   4.849  0.00  0.00     0.076 A 
HETATM    6  C   UNK N   1      21.125  17.164   6.115  0.00  0.00     0.032 A 
HETATM    7  C   UNK N   1      20.557  16.012   6.694  0.00  0.00     0.002 A 
HETATM    8  C   UNK N   1      19.576  15.268   5.995  0.00  0.00     0.002 A 
HETATM    9  C   UNK N   1      19.149  15.675   4.717  0.00  0.00     0.032 A 
HETATM   10  C   UNK N   1      19.730  16.821   4.182  0.00  0.00     0.076 A 
HETATM   11  N   UNK N   1      20.419  19.318   1.838  0.00  0.00    -0.135 N 
HETATM   12  C   UNK N   1      21.203  20.413   1.600  0.00  0.00     0.378 C 
HETATM   13  O   UNK N   1      21.198  20.882   0.475  0.00  0.00    -0.238 OA
HETATM   14  H   UNK N   1      18.857  17.105   2.298  0.00  0.00     0.184 HD
HETATM   15  H   UNK N   1      19.819  19.077   1.096  0.00  0.00     0.189 HD
ENDROOT
BRANCH  12  16
HETATM   16  O   UNK N   1      22.016  20.994   2.523  0.00  0.00    -0.308 OA
HETATM   17  C   UNK N   1      23.341  20.697   2.720  0.00  0.00     0.215 C 
ENDBRANCH  12  16
TORSDOF 1
ENDMDL
MODEL 6
REMARK VINA RESULT:      -5.2      4.432      8.197
REMARK  1 active torsions:
REMARK  status: ('A' for Active; 'I' for Inactive)
REMARK       I    between atoms: C_2  and  N_11 
REMARK       I    between atoms: N_11  and  C_12 
REMARK    1  A    between atoms: C_12  and  O_14 
ROOT
HETATM    1  N   UNK N   1      35.176  10.834  15.934  0.00  0.00    -0.189 N 
HETATM    2  C   UNK N   1      35.053  11.845  15.037  0.00  0.00     0.687 A 
HETATM    3  N   UNK N   1      35.024  13.069  15.622  0.00  0.00    -0.189 N 
ATOM      4  HN  UNK N   1      34.953  13.980  15.170  1.00  0.00     0.184 HD
HETATM    5  C   UNK N   1      35.112  12.801  16.932  0.00  0.00     0.076 A 
HETATM    6  C   UNK N   1      35.118  13.701  17.993  0.00  0.00     0.032 A 
HETATM    7  C   UNK N   1      35.238  13.169  19.293  0.00  0.00     0.002 A 
HETATM    8  C   UNK N   1      35.352  11.772  19.487  0.00  0.00     0.002 A 
HETATM    9  C   UNK N   1      35.337  10.895  18.385  0.00  0.00     0.032 A 
HETATM   10  C   UNK N   1      35.211  11.459  17.120  0.00  0.00     0.076 A 
HETATM   11  N   UNK N   1      35.041  11.602  13.633  0.00  0.00    -0.135 N 
HETATM   12  C   UNK N   1      34.960  12.461  12.573  0.00  0.00     0.378 C 
HETATM   13  O   UNK N   1      35.119  12.002  11.455  0.00  0.00    -0.238 OA
HETATM   14  H   UNK N   1      35.229   9.867  15.756  0.00  0.00     0.184 HD
HETATM   15  H   UNK N   1      35.103  10.651  13.384  0.00  0.00     0.189 HD
ENDROOT
BRANCH  12  16
HETATM   16  O   UNK N   1      34.747  13.801  12.682  0.00  0.00    -0.308 OA
HETATM   17  C   UNK N   1      35.574  14.782  12.198  0.00  0.00     0.215 C 
ENDBRANCH  12  16
TORSDOF 1
ENDMDL
MODEL 7
REMARK VINA RESULT:      -5.2      3.120      4.162
REMARK  1 active torsions:
REMARK  status: ('A' for Active; 'I' for Inactive)
REMARK       I    between atoms: C_2  and  N_11 
REMARK       I    between atoms: N_11  and  C_12 
REMARK    1  A    between atoms: C_12  and  O_14 
ROOT
HETATM    1  N   UNK N   1      31.380  17.830   8.768  0.00  0.00    -0.189 N 
HETATM    2  C   UNK N   1      32.518  17.092   8.710  0.00  0.00     0.687 A 
HETATM    3  N   UNK N   1      32.477  16.132   7.751  0.00  0.00    -0.189 N 
ATOM      4  HN  UNK N   1      33.203  15.464   7.499  1.00  0.00     0.184 HD
HETATM    5  C   UNK N   1      31.257  16.270   7.212  0.00  0.00     0.076 A 
HETATM    6  C   UNK N   1      30.685  15.528   6.183  0.00  0.00     0.032 A 
HETATM    7  C   UNK N   1      29.382  15.880   5.777  0.00  0.00     0.002 A 
HETATM    8  C   UNK N   1      28.703  16.954   6.402  0.00  0.00     0.002 A 
HETATM    9  C   UNK N   1      29.317  17.677   7.443  0.00  0.00     0.032 A 
HETATM   10  C   UNK N   1      30.601  17.295   7.817  0.00  0.00     0.076 A 
HETATM   11  N   UNK N   1      33.643  17.385   9.533  0.00  0.00    -0.135 N 
HETATM   12  C   UNK N   1      34.876  16.801   9.612  0.00  0.00     0.378 C 
HETATM   13  O   UNK N   1      35.719  17.342  10.306  0.00  0.00    -0.238 OA
HETATM   14  H   UNK N   1      31.175  18.583   9.368  0.00  0.00     0.184 HD
HETATM   15  H   UNK N   1      33.509  18.139  10.153  0.00  0.00     0.189 HD
ENDROOT
BRANCH  12  16
HETATM   16  O   UNK N   1      35.239  15.675   8.939  0.00  0.00    -0.308 OA
HETATM   17  C   UNK N   1      35.266  14.406   9.461  0.00  0.00     0.215 C 
ENDBRANCH  12  16
TORSDOF 1
ENDMDL
MODEL 8
REMARK VINA RESULT:      -5.2      3.378      4.628
REMARK  1 active torsions:
REMARK  status: ('A' for Active; 'I' for Inactive)
REMARK       I    between atoms: C_2  and  N_11 
REMARK       I    between atoms: N_11  and  C_12 
REMARK    1  A    between atoms: C_12  and  O_14 
ROOT
HETATM    1  N   UNK N   1      31.384  16.261   7.124  0.00  0.00    -0.189 N 
HETATM    2  C   UNK N   1      32.361  16.490   8.039  0.00  0.00     0.687 A 
HETATM    3  N   UNK N   1      31.973  17.337   9.025  0.00  0.00    -0.189 N 
ATOM      4  HN  UNK N   1      32.511  17.653   9.830  1.00  0.00     0.184 HD
HETATM    5  C   UNK N   1      30.715  17.659   8.694  0.00  0.00     0.076 A 
HETATM    6  C   UNK N   1      29.842  18.512   9.364  0.00  0.00     0.032 A 
HETATM    7  C   UNK N   1      28.553  18.678   8.821  0.00  0.00     0.002 A 
HETATM    8  C   UNK N   1      28.179  17.991   7.641  0.00  0.00     0.002 A 
HETATM    9  C   UNK N   1      29.094  17.140   6.991  0.00  0.00     0.032 A 
HETATM   10  C   UNK N   1      30.358  17.008   7.556  0.00  0.00     0.076 A 
HETATM   11  N   UNK N   1      33.618  15.822   7.973  0.00  0.00    -0.135 N 
HETATM   12  C   UNK N   1      34.710  15.880   8.793  0.00  0.00     0.378 C 
HETATM   13  O   UNK N   1      35.615  15.089   8.592  0.00  0.00    -0.238 OA
HETATM   14  H   UNK N   1      31.420  15.681   6.329  0.00  0.00     0.184 HD
HETATM   15  H   UNK N   1      33.718  15.215   7.204  0.00  0.00     0.189 HD
ENDROOT
BRANCH  12  16
HETATM   16  O   UNK N   1      34.841  16.737   9.842  0.00  0.00    -0.308 OA
HETATM   17  C   UNK N   1      35.419  16.439  11.050  0.00  0.00     0.215 C 
ENDBRANCH  12  16
TORSDOF 1
ENDMDL
MODEL 9
REMARK VINA RESULT:      -5.1      3.094      5.514
REMARK  1 active torsions:
REMARK  status: ('A' for Active; 'I' for Inactive)
REMARK       I    between atoms: C_2  and  N_11 
REMARK       I    between atoms: N_11  and  C_12 
REMARK    1  A    between atoms: C_12  and  O_14 
ROOT
HETATM    1  N   UNK N   1      34.944  16.062  11.517  0.00  0.00    -0.189 N 
HETATM    2  C   UNK N   1      34.972  16.261  10.174  0.00  0.00     0.687 A 
HETATM    3  N   UNK N   1      35.707  15.329   9.517  0.00  0.00    -0.189 N 
ATOM      4  HN  UNK N   1      35.870  15.250   8.514  1.00  0.00     0.184 HD
HETATM    5  C   UNK N   1      36.168  14.537  10.495  0.00  0.00     0.076 A 
HETATM    6  C   UNK N   1      36.989  13.419  10.379  0.00  0.00     0.032 A 
HETATM    7  C   UNK N   1      37.326  12.737  11.564  0.00  0.00     0.002 A 
HETATM    8  C   UNK N   1      36.834  13.185  12.814  0.00  0.00     0.002 A 
HETATM    9  C   UNK N   1      36.009  14.324  12.888  0.00  0.00     0.032 A 
HETATM   10  C   UNK N   1      35.704  14.972  11.696  0.00  0.00     0.076 A 
HETATM   11  N   UNK N   1      34.223  17.305   9.558  0.00  0.00    -0.135 N 
HETATM   12  C   UNK N   1      34.085  17.657   8.243  0.00  0.00     0.378 C 
HETATM   13  O   UNK N   1      33.260  18.510   7.966  0.00  0.00    -0.238 OA
HETATM   14  H   UNK N   1      34.474  16.593  12.200  0.00  0.00     0.184 HD
HETATM   15  H   UNK N   1      33.718  17.870  10.186  0.00  0.00     0.189 HD
ENDROOT
BRANCH  12  16
HETATM   16  O   UNK N   1      34.782  17.094   7.219  0.00  0.00    -0.308 OA
HETATM   17  C   UNK N   1      34.257  16.273   6.253  0.00  0.00     0.215 C 
ENDBRANCH  12  16
TORSDOF 1
ENDMDL
