MODEL 1
REMARK VINA RESULT:      -5.5      0.000      0.000
REMARK  15 active torsions:
REMARK  status: ('A' for Active; 'I' for Inactive)
REMARK    1  A    between atoms: C_1  and  C_2 
REMARK    2  A    between atoms: C_1  and  C_7 
REMARK    3  A    between atoms: C_2  and  S_3 
REMARK    4  A    between atoms: S_3  and  O_6 
REMARK    5  A    between atoms: C_7  and  C_8 
REMARK    6  A    between atoms: C_7  and  N_20 
REMARK    7  A    between atoms: C_8  and  S_9 
REMARK    8  A    between atoms: S_9  and  S_10 
REMARK    9  A    between atoms: S_10  and  C_11 
REMARK   10  A    between atoms: C_11  and  C_12 
REMARK   11  A    between atoms: C_12  and  C_13 
REMARK   12  A    between atoms: C_12  and  N_19 
REMARK   13  A    between atoms: C_13  and  C_14 
REMARK   14  A    between atoms: C_14  and  S_15 
REMARK   15  A    between atoms: S_15  and  O_18 
ROOT
HETATM    1  S   UNK N   1      25.520  17.782   4.441  0.00  0.00    -0.096 SA
ENDROOT
BRANCH   1   2
HETATM    2  C   UNK N   1      23.801  17.361   4.067  0.00  0.00     0.110 C 
BRANCH   2   3
HETATM    3  C   UNK N   1      22.791  18.383   4.581  0.00  0.00     0.085 C 
BRANCH   3   4
HETATM    4  C   UNK N   1      21.538  18.315   3.721  0.00  0.00     0.042 C 
BRANCH   4   5
HETATM    5  C   UNK N   1      20.963  19.702   3.447  0.00  0.00     0.157 C 
BRANCH   5   6
HETATM    6  S   UNK N   1      21.356  20.212   1.743  0.00  0.00     0.094 S 
HETATM    7  O   UNK N   1      20.603  21.441   1.216  0.00  0.00    -0.601 OA
HETATM    8  O   UNK N   1      21.919  21.249   2.725  0.00  0.00    -0.601 OA
BRANCH   6   9
HETATM    9  O   UNK N   1      19.731  19.909   2.208  0.00  0.00    -0.296 OA
HETATM   10  H   UNK N   1      19.255  20.424   2.879  0.00  0.00     0.232 HD
ENDBRANCH   6   9
ENDBRANCH   5   6
ENDBRANCH   4   5
ENDBRANCH   3   4
BRANCH   3  11
HETATM   11  N   UNK N   1      22.416  18.098   5.957  0.00  0.00    -0.425 N 
HETATM   12  H   UNK N   1      22.449  18.717   6.767  0.00  0.00     0.150 HD
HETATM   13  H   UNK N   1      22.076  17.154   6.136  0.00  0.00     0.150 HD
ENDBRANCH   3  11
ENDBRANCH   2   3
ENDBRANCH   1   2
BRANCH   1  14
HETATM   14  S   UNK N   1      25.095  19.811   3.957  0.00  0.00    -0.096 SA
BRANCH  14  15
HETATM   15  C   UNK N   1      26.140  20.362   5.326  0.00  0.00     0.110 C 
BRANCH  15  16
HETATM   16  C   UNK N   1      27.389  19.498   5.471  0.00  0.00     0.085 C 
BRANCH  16  17
HETATM   17  C   UNK N   1      27.956  19.684   6.864  0.00  0.00     0.042 C 
BRANCH  17  18
HETATM   18  C   UNK N   1      27.979  18.374   7.639  0.00  0.00     0.157 C 
BRANCH  18  19
HETATM   19  S   UNK N   1      29.103  18.531   9.055  0.00  0.00     0.094 S 
HETATM   20  O   UNK N   1      29.174  17.315   9.986  0.00  0.00    -0.601 OA
HETATM   21  O   UNK N   1      29.648  17.516   8.041  0.00  0.00    -0.601 OA
BRANCH  19  22
HETATM   22  O   UNK N   1      27.447  18.158   9.322  0.00  0.00    -0.296 OA
HETATM   23  H   UNK N   1      27.032  17.287   9.218  0.00  0.00     0.232 HD
ENDBRANCH  19  22
ENDBRANCH  18  19
ENDBRANCH  17  18
ENDBRANCH  16  17
BRANCH  16  24
HETATM   24  N   UNK N   1      28.405  19.898   4.511  0.00  0.00    -0.425 N 
HETATM   25  H   UNK N   1      29.098  20.645   4.549  0.00  0.00     0.150 HD
HETATM   26  H   UNK N   1      28.429  19.338   3.658  0.00  0.00     0.150 HD
ENDBRANCH  16  24
ENDBRANCH  15  16
ENDBRANCH  14  15
ENDBRANCH   1  14
TORSDOF 15
ENDMDL
MODEL 2
REMARK VINA RESULT:      -5.5     13.067     15.219
REMARK  15 active torsions:
REMARK  status: ('A' for Active; 'I' for Inactive)
REMARK    1  A    between atoms: C_1  and  C_2 
REMARK    2  A    between atoms: C_1  and  C_7 
REMARK    3  A    between atoms: C_2  and  S_3 
REMARK    4  A    between atoms: S_3  and  O_6 
REMARK    5  A    between atoms: C_7  and  C_8 
REMARK    6  A    between atoms: C_7  and  N_20 
REMARK    7  A    between atoms: C_8  and  S_9 
REMARK    8  A    between atoms: S_9  and  S_10 
REMARK    9  A    between atoms: S_10  and  C_11 
REMARK   10  A    between atoms: C_11  and  C_12 
REMARK   11  A    between atoms: C_12  and  C_13 
REMARK   12  A    between atoms: C_12  and  N_19 
REMARK   13  A    between atoms: C_13  and  C_14 
REMARK   14  A    between atoms: C_14  and  S_15 
REMARK   15  A    between atoms: S_15  and  O_18 
ROOT
HETATM    1  S   UNK N   1      37.204   9.821  11.381  0.00  0.00    -0.096 SA
ENDROOT
BRANCH   1   2
HETATM    2  C   UNK N   1      35.650   9.186  10.708  0.00  0.00     0.110 C 
BRANCH   2   3
HETATM    3  C   UNK N   1      34.445   9.424  11.615  0.00  0.00     0.085 C 
BRANCH   3   4
HETATM    4  C   UNK N   1      34.939   9.741  13.019  0.00  0.00     0.042 C 
BRANCH   4   5
HETATM    5  C   UNK N   1      34.030  10.741  13.727  0.00  0.00     0.157 C 
BRANCH   5   6
HETATM    6  S   UNK N   1      34.998  11.733  14.909  0.00  0.00     0.094 S 
HETATM    7  O   UNK N   1      34.258  12.900  15.576  0.00  0.00    -0.601 OA
HETATM    8  O   UNK N   1      33.948  10.915  15.674  0.00  0.00    -0.601 OA
BRANCH   6   9
HETATM    9  O   UNK N   1      34.188  12.489  13.597  0.00  0.00    -0.296 OA
HETATM   10  H   UNK N   1      33.813  13.383  13.635  0.00  0.00     0.232 HD
ENDBRANCH   6   9
ENDBRANCH   5   6
ENDBRANCH   4   5
ENDBRANCH   3   4
BRANCH   3  11
HETATM   11  N   UNK N   1      33.654  10.550  11.145  0.00  0.00    -0.425 N 
HETATM   12  H   UNK N   1      32.668  10.570  10.884  0.00  0.00     0.150 HD
HETATM   13  H   UNK N   1      34.150  11.437  11.065  0.00  0.00     0.150 HD
ENDBRANCH   3  11
ENDBRANCH   2   3
ENDBRANCH   1   2
BRANCH   1  14
HETATM   14  S   UNK N   1      37.562  10.813   9.531  0.00  0.00    -0.096 SA
BRANCH  14  15
HETATM   15  C   UNK N   1      37.832  12.368  10.414  0.00  0.00     0.110 C 
BRANCH  15  16
HETATM   16  C   UNK N   1      36.654  12.722  11.317  0.00  0.00     0.085 C 
BRANCH  16  17
HETATM   17  C   UNK N   1      35.643  13.519  10.516  0.00  0.00     0.042 C 
BRANCH  17  18
HETATM   18  C   UNK N   1      36.232  14.832  10.019  0.00  0.00     0.157 C 
BRANCH  18  19
HETATM   19  S   UNK N   1      35.217  16.212  10.617  0.00  0.00     0.094 S 
HETATM   20  O   UNK N   1      35.671  17.610  10.179  0.00  0.00    -0.601 OA
HETATM   21  O   UNK N   1      35.044  16.029   9.103  0.00  0.00    -0.601 OA
BRANCH  19  22
HETATM   22  O   UNK N   1      36.902  16.189  10.952  0.00  0.00    -0.296 OA
HETATM   23  H   UNK N   1      37.490  16.959  10.983  0.00  0.00     0.232 HD
ENDBRANCH  19  22
ENDBRANCH  18  19
ENDBRANCH  17  18
ENDBRANCH  16  17
BRANCH  16  24
HETATM   24  N   UNK N   1      37.090  13.538  12.438  0.00  0.00    -0.425 N 
HETATM   25  H   UNK N   1      37.680  13.309  13.237  0.00  0.00     0.150 HD
HETATM   26  H   UNK N   1      36.750  14.500  12.422  0.00  0.00     0.150 HD
ENDBRANCH  16  24
ENDBRANCH  15  16
ENDBRANCH  14  15
ENDBRANCH   1  14
TORSDOF 15
ENDMDL
MODEL 3
REMARK VINA RESULT:      -5.4     10.193     12.801
REMARK  15 active torsions:
REMARK  status: ('A' for Active; 'I' for Inactive)
REMARK    1  A    between atoms: C_1  and  C_2 
REMARK    2  A    between atoms: C_1  and  C_7 
REMARK    3  A    between atoms: C_2  and  S_3 
REMARK    4  A    between atoms: S_3  and  O_6 
REMARK    5  A    between atoms: C_7  and  C_8 
REMARK    6  A    between atoms: C_7  and  N_20 
REMARK    7  A    between atoms: C_8  and  S_9 
REMARK    8  A    between atoms: S_9  and  S_10 
REMARK    9  A    between atoms: S_10  and  C_11 
REMARK   10  A    between atoms: C_11  and  C_12 
REMARK   11  A    between atoms: C_12  and  C_13 
REMARK   12  A    between atoms: C_12  and  N_19 
REMARK   13  A    between atoms: C_13  and  C_14 
REMARK   14  A    between atoms: C_14  and  S_15 
REMARK   15  A    between atoms: S_15  and  O_18 
ROOT
HETATM    1  S   UNK N   1      34.318  12.384   8.944  0.00  0.00    -0.096 SA
ENDROOT
BRANCH   1   2
HETATM    2  C   UNK N   1      33.760  14.065   9.314  0.00  0.00     0.110 C 
BRANCH   2   3
HETATM    3  C   UNK N   1      32.481  14.463   8.581  0.00  0.00     0.085 C 
BRANCH   3   4
HETATM    4  C   UNK N   1      32.491  15.968   8.354  0.00  0.00     0.042 C 
BRANCH   4   5
HETATM    5  C   UNK N   1      33.911  16.510   8.214  0.00  0.00     0.157 C 
BRANCH   5   6
HETATM    6  S   UNK N   1      33.878  18.330   8.157  0.00  0.00     0.094 S 
HETATM    7  O   UNK N   1      35.226  19.036   8.356  0.00  0.00    -0.601 OA
HETATM    8  O   UNK N   1      34.589  17.797   6.905  0.00  0.00    -0.601 OA
BRANCH   6   9
HETATM    9  O   UNK N   1      34.556  17.514   9.507  0.00  0.00    -0.296 OA
HETATM   10  H   UNK N   1      34.055  17.277  10.304  0.00  0.00     0.232 HD
ENDBRANCH   6   9
ENDBRANCH   5   6
ENDBRANCH   4   5
ENDBRANCH   3   4
BRANCH   3  11
HETATM   11  N   UNK N   1      32.397  13.807   7.286  0.00  0.00    -0.425 N 
HETATM   12  H   UNK N   1      33.057  13.158   6.857  0.00  0.00     0.150 HD
HETATM   13  H   UNK N   1      31.568  14.025   6.733  0.00  0.00     0.150 HD
ENDBRANCH   3  11
ENDBRANCH   2   3
ENDBRANCH   1   2
BRANCH   1  14
HETATM   14  S   UNK N   1      36.329  13.024   9.224  0.00  0.00    -0.096 SA
BRANCH  14  15
HETATM   15  C   UNK N   1      36.506  11.874  10.607  0.00  0.00     0.110 C 
BRANCH  15  16
HETATM   16  C   UNK N   1      37.431  12.423  11.689  0.00  0.00     0.085 C 
BRANCH  16  17
HETATM   17  C   UNK N   1      37.090  11.760  13.010  0.00  0.00     0.042 C 
BRANCH  17  18
HETATM   18  C   UNK N   1      35.636  11.993  13.395  0.00  0.00     0.157 C 
BRANCH  18  19
HETATM   19  S   UNK N   1      35.565  12.776  15.031  0.00  0.00     0.094 S 
HETATM   20  O   UNK N   1      34.158  13.030  15.586  0.00  0.00    -0.601 OA
HETATM   21  O   UNK N   1      35.099  11.316  15.108  0.00  0.00    -0.601 OA
BRANCH  19  22
HETATM   22  O   UNK N   1      34.756  13.508  13.703  0.00  0.00    -0.296 OA
HETATM   23  H   UNK N   1      34.927  13.337  12.764  0.00  0.00     0.232 HD
ENDBRANCH  19  22
ENDBRANCH  18  19
ENDBRANCH  17  18
ENDBRANCH  16  17
BRANCH  16  24
HETATM   24  N   UNK N   1      37.249  13.858  11.842  0.00  0.00    -0.425 N 
HETATM   25  H   UNK N   1      36.897  14.403  12.629  0.00  0.00     0.150 HD
HETATM   26  H   UNK N   1      37.518  14.410  11.028  0.00  0.00     0.150 HD
ENDBRANCH  16  24
ENDBRANCH  15  16
ENDBRANCH  14  15
ENDBRANCH   1  14
TORSDOF 15
ENDMDL
MODEL 4
REMARK VINA RESULT:      -5.4     10.185     14.681
REMARK  15 active torsions:
REMARK  status: ('A' for Active; 'I' for Inactive)
REMARK    1  A    between atoms: C_1  and  C_2 
REMARK    2  A    between atoms: C_1  and  C_7 
REMARK    3  A    between atoms: C_2  and  S_3 
REMARK    4  A    between atoms: S_3  and  O_6 
REMARK    5  A    between atoms: C_7  and  C_8 
REMARK    6  A    between atoms: C_7  and  N_20 
REMARK    7  A    between atoms: C_8  and  S_9 
REMARK    8  A    between atoms: S_9  and  S_10 
REMARK    9  A    between atoms: S_10  and  C_11 
REMARK   10  A    between atoms: C_11  and  C_12 
REMARK   11  A    between atoms: C_12  and  C_13 
REMARK   12  A    between atoms: C_12  and  N_19 
REMARK   13  A    between atoms: C_13  and  C_14 
REMARK   14  A    between atoms: C_14  and  S_15 
REMARK   15  A    between atoms: S_15  and  O_18 
ROOT
HETATM    1  S   UNK N   1      36.452  13.702   9.963  0.00  0.00    -0.096 SA
ENDROOT
BRANCH   1   2
HETATM    2  C   UNK N   1      36.811  12.662  11.399  0.00  0.00     0.110 C 
BRANCH   2   3
HETATM    3  C   UNK N   1      36.097  13.107  12.673  0.00  0.00     0.085 C 
BRANCH   3   4
HETATM    4  C   UNK N   1      35.875  11.892  13.563  0.00  0.00     0.042 C 
BRANCH   4   5
HETATM    5  C   UNK N   1      35.026  12.234  14.785  0.00  0.00     0.157 C 
BRANCH   5   6
HETATM    6  S   UNK N   1      35.862  11.666  16.300  0.00  0.00     0.094 S 
HETATM    7  O   UNK N   1      35.163  12.003  17.624  0.00  0.00    -0.601 OA
HETATM    8  O   UNK N   1      34.584  10.842  16.086  0.00  0.00    -0.601 OA
BRANCH   6   9
HETATM    9  O   UNK N   1      35.434  13.317  16.110  0.00  0.00    -0.296 OA
HETATM   10  H   UNK N   1      36.014  14.058  16.349  0.00  0.00     0.232 HD
ENDBRANCH   6   9
ENDBRANCH   5   6
ENDBRANCH   4   5
ENDBRANCH   3   4
BRANCH   3  11
HETATM   11  N   UNK N   1      36.898  14.072  13.409  0.00  0.00    -0.425 N 
HETATM   12  H   UNK N   1      37.902  14.238  13.356  0.00  0.00     0.150 HD
HETATM   13  H   UNK N   1      36.386  14.660  14.066  0.00  0.00     0.150 HD
ENDBRANCH   3  11
ENDBRANCH   2   3
ENDBRANCH   1   2
BRANCH   1  14
HETATM   14  S   UNK N   1      34.486  14.012  10.719  0.00  0.00    -0.096 SA
BRANCH  14  15
HETATM   15  C   UNK N   1      33.821  13.912   9.040  0.00  0.00     0.110 C 
BRANCH  15  16
HETATM   16  C   UNK N   1      32.487  14.642   8.913  0.00  0.00     0.085 C 
BRANCH  16  17
HETATM   17  C   UNK N   1      32.639  15.772   7.913  0.00  0.00     0.042 C 
BRANCH  17  18
HETATM   18  C   UNK N   1      33.985  16.468   8.055  0.00  0.00     0.157 C 
BRANCH  18  19
HETATM   19  S   UNK N   1      33.737  18.266   8.042  0.00  0.00     0.094 S 
HETATM   20  O   UNK N   1      34.965  19.110   8.405  0.00  0.00    -0.601 OA
HETATM   21  O   UNK N   1      34.644  17.836   6.881  0.00  0.00    -0.601 OA
BRANCH  19  22
HETATM   22  O   UNK N   1      34.320  17.499   9.465  0.00  0.00    -0.296 OA
HETATM   23  H   UNK N   1      33.823  16.888  10.030  0.00  0.00     0.232 HD
ENDBRANCH  19  22
ENDBRANCH  18  19
ENDBRANCH  17  18
ENDBRANCH  16  17
BRANCH  16  24
HETATM   24  N   UNK N   1      32.089  15.216  10.188  0.00  0.00    -0.425 N 
HETATM   25  H   UNK N   1      31.806  16.165  10.430  0.00  0.00     0.150 HD
HETATM   26  H   UNK N   1      32.095  14.561  10.970  0.00  0.00     0.150 HD
ENDBRANCH  16  24
ENDBRANCH  15  16
ENDBRANCH  14  15
ENDBRANCH   1  14
TORSDOF 15
ENDMDL
MODEL 5
REMARK VINA RESULT:      -5.4      5.379      9.110
REMARK  15 active torsions:
REMARK  status: ('A' for Active; 'I' for Inactive)
REMARK    1  A    between atoms: C_1  and  C_2 
REMARK    2  A    between atoms: C_1  and  C_7 
REMARK    3  A    between atoms: C_2  and  S_3 
REMARK    4  A    between atoms: S_3  and  O_6 
REMARK    5  A    between atoms: C_7  and  C_8 
REMARK    6  A    between atoms: C_7  and  N_20 
REMARK    7  A    between atoms: C_8  and  S_9 
REMARK    8  A    between atoms: S_9  and  S_10 
REMARK    9  A    between atoms: S_10  and  C_11 
REMARK   10  A    between atoms: C_11  and  C_12 
REMARK   11  A    between atoms: C_12  and  C_13 
REMARK   12  A    between atoms: C_12  and  N_19 
REMARK   13  A    between atoms: C_13  and  C_14 
REMARK   14  A    between atoms: C_14  and  S_15 
REMARK   15  A    between atoms: S_15  and  O_18 
ROOT
HETATM    1  S   UNK N   1      19.882  16.163   7.250  0.00  0.00    -0.096 SA
ENDROOT
BRANCH   1   2
HETATM    2  C   UNK N   1      20.987  15.389   8.455  0.00  0.00     0.110 C 
BRANCH   2   3
HETATM    3  C   UNK N   1      20.675  13.918   8.719  0.00  0.00     0.085 C 
BRANCH   3   4
HETATM    4  C   UNK N   1      21.883  13.080   8.326  0.00  0.00     0.042 C 
BRANCH   4   5
HETATM    5  C   UNK N   1      22.473  12.341   9.524  0.00  0.00     0.157 C 
BRANCH   5   6
HETATM    6  S   UNK N   1      24.197  12.867   9.789  0.00  0.00     0.094 S 
HETATM    7  O   UNK N   1      24.974  12.110  10.875  0.00  0.00    -0.601 OA
HETATM    8  O   UNK N   1      24.186  11.477   9.136  0.00  0.00    -0.601 OA
BRANCH   6   9
HETATM    9  O   UNK N   1      23.092  12.816  11.101  0.00  0.00    -0.296 OA
HETATM   10  H   UNK N   1      23.005  12.062  11.707  0.00  0.00     0.232 HD
ENDBRANCH   6   9
ENDBRANCH   5   6
ENDBRANCH   4   5
ENDBRANCH   3   4
BRANCH   3  11
HETATM   11  N   UNK N   1      20.399  13.688  10.128  0.00  0.00    -0.425 N 
HETATM   12  H   UNK N   1      21.025  13.329  10.848  0.00  0.00     0.150 HD
HETATM   13  H   UNK N   1      19.455  13.917  10.436  0.00  0.00     0.150 HD
ENDBRANCH   3  11
ENDBRANCH   2   3
ENDBRANCH   1   2
BRANCH   1  14
HETATM   14  S   UNK N   1      21.232  15.604   5.701  0.00  0.00    -0.096 SA
BRANCH  14  15
HETATM   15  C   UNK N   1      21.011  17.221   4.921  0.00  0.00     0.110 C 
BRANCH  15  16
HETATM   16  C   UNK N   1      20.439  17.099   3.512  0.00  0.00     0.085 C 
BRANCH  16  17
HETATM   17  C   UNK N   1      20.057  18.480   3.017  0.00  0.00     0.042 C 
BRANCH  17  18
HETATM   18  C   UNK N   1      20.911  19.563   3.660  0.00  0.00     0.157 C 
BRANCH  18  19
HETATM   19  S   UNK N   1      21.836  20.445   2.372  0.00  0.00     0.094 S 
HETATM   20  O   UNK N   1      22.628  21.671   2.842  0.00  0.00    -0.601 OA
HETATM   21  O   UNK N   1      22.795  19.726   3.330  0.00  0.00    -0.601 OA
BRANCH  19  22
HETATM   22  O   UNK N   1      20.689  21.296   3.327  0.00  0.00    -0.296 OA
HETATM   23  H   UNK N   1      20.890  21.936   4.027  0.00  0.00     0.232 HD
ENDBRANCH  19  22
ENDBRANCH  18  19
ENDBRANCH  17  18
ENDBRANCH  16  17
BRANCH  16  24
HETATM   24  N   UNK N   1      19.244  16.270   3.511  0.00  0.00    -0.425 N 
HETATM   25  H   UNK N   1      19.014  15.437   2.970  0.00  0.00     0.150 HD
HETATM   26  H   UNK N   1      18.515  16.572   4.158  0.00  0.00     0.150 HD
ENDBRANCH  16  24
ENDBRANCH  15  16
ENDBRANCH  14  15
ENDBRANCH   1  14
TORSDOF 15
ENDMDL
MODEL 6
REMARK VINA RESULT:      -5.4      5.144      5.820
REMARK  15 active torsions:
REMARK  status: ('A' for Active; 'I' for Inactive)
REMARK    1  A    between atoms: C_1  and  C_2 
REMARK    2  A    between atoms: C_1  and  C_7 
REMARK    3  A    between atoms: C_2  and  S_3 
REMARK    4  A    between atoms: S_3  and  O_6 
REMARK    5  A    between atoms: C_7  and  C_8 
REMARK    6  A    between atoms: C_7  and  N_20 
REMARK    7  A    between atoms: C_8  and  S_9 
REMARK    8  A    between atoms: S_9  and  S_10 
REMARK    9  A    between atoms: S_10  and  C_11 
REMARK   10  A    between atoms: C_11  and  C_12 
REMARK   11  A    between atoms: C_12  and  C_13 
REMARK   12  A    between atoms: C_12  and  N_19 
REMARK   13  A    between atoms: C_13  and  C_14 
REMARK   14  A    between atoms: C_14  and  S_15 
REMARK   15  A    between atoms: S_15  and  O_18 
ROOT
HETATM    1  S   UNK N   1      19.986  14.826   3.008  0.00  0.00    -0.096 SA
ENDROOT
BRANCH   1   2
HETATM    2  C   UNK N   1      20.634  15.975   1.771  0.00  0.00     0.110 C 
BRANCH   2   3
HETATM    3  C   UNK N   1      19.679  17.116   1.431  0.00  0.00     0.085 C 
BRANCH   3   4
HETATM    4  C   UNK N   1      19.695  18.128   2.568  0.00  0.00     0.042 C 
BRANCH   4   5
HETATM    5  C   UNK N   1      21.061  18.793   2.714  0.00  0.00     0.157 C 
BRANCH   5   6
HETATM    6  S   UNK N   1      20.862  20.600   2.826  0.00  0.00     0.094 S 
HETATM    7  O   UNK N   1      22.158  21.422   2.831  0.00  0.00    -0.601 OA
HETATM    8  O   UNK N   1      21.359  20.231   1.421  0.00  0.00    -0.601 OA
BRANCH   6   9
HETATM    9  O   UNK N   1      21.856  19.763   3.948  0.00  0.00    -0.296 OA
HETATM   10  H   UNK N   1      22.044  18.812   3.900  0.00  0.00     0.232 HD
ENDBRANCH   6   9
ENDBRANCH   5   6
ENDBRANCH   4   5
ENDBRANCH   3   4
BRANCH   3  11
HETATM   11  N   UNK N   1      20.088  17.793   0.212  0.00  0.00    -0.425 N 
HETATM   12  H   UNK N   1      20.498  17.393  -0.632  0.00  0.00     0.150 HD
HETATM   13  H   UNK N   1      19.947  18.803   0.198  0.00  0.00     0.150 HD
ENDBRANCH   3  11
ENDBRANCH   2   3
ENDBRANCH   1   2
BRANCH   1  14
HETATM   14  S   UNK N   1      21.913  13.930   3.139  0.00  0.00    -0.096 SA
BRANCH  14  15
HETATM   15  C   UNK N   1      22.584  15.465   3.818  0.00  0.00     0.110 C 
BRANCH  15  16
HETATM   16  C   UNK N   1      22.880  15.346   5.310  0.00  0.00     0.085 C 
BRANCH  16  17
HETATM   17  C   UNK N   1      21.586  15.510   6.082  0.00  0.00     0.042 C 
BRANCH  17  18
HETATM   18  C   UNK N   1      21.728  16.529   7.203  0.00  0.00     0.157 C 
BRANCH  18  19
HETATM   19  S   UNK N   1      20.353  17.711   7.119  0.00  0.00     0.094 S 
HETATM   20  O   UNK N   1      20.424  18.885   8.103  0.00  0.00    -0.601 OA
HETATM   21  O   UNK N   1      21.648  18.349   6.599  0.00  0.00    -0.601 OA
BRANCH  19  22
HETATM   22  O   UNK N   1      20.719  16.939   8.609  0.00  0.00    -0.296 OA
HETATM   23  H   UNK N   1      21.410  17.201   9.236  0.00  0.00     0.232 HD
ENDBRANCH  19  22
ENDBRANCH  18  19
ENDBRANCH  17  18
ENDBRANCH  16  17
BRANCH  16  24
HETATM   24  N   UNK N   1      23.799  16.388   5.738  0.00  0.00    -0.425 N 
HETATM   25  H   UNK N   1      23.667  17.396   5.824  0.00  0.00     0.150 HD
HETATM   26  H   UNK N   1      24.729  16.058   5.994  0.00  0.00     0.150 HD
ENDBRANCH  16  24
ENDBRANCH  15  16
ENDBRANCH  14  15
ENDBRANCH   1  14
TORSDOF 15
ENDMDL
MODEL 7
REMARK VINA RESULT:      -5.3     11.233     13.731
REMARK  15 active torsions:
REMARK  status: ('A' for Active; 'I' for Inactive)
REMARK    1  A    between atoms: C_1  and  C_2 
REMARK    2  A    between atoms: C_1  and  C_7 
REMARK    3  A    between atoms: C_2  and  S_3 
REMARK    4  A    between atoms: S_3  and  O_6 
REMARK    5  A    between atoms: C_7  and  C_8 
REMARK    6  A    between atoms: C_7  and  N_20 
REMARK    7  A    between atoms: C_8  and  S_9 
REMARK    8  A    between atoms: S_9  and  S_10 
REMARK    9  A    between atoms: S_10  and  C_11 
REMARK   10  A    between atoms: C_11  and  C_12 
REMARK   11  A    between atoms: C_12  and  C_13 
REMARK   12  A    between atoms: C_12  and  N_19 
REMARK   13  A    between atoms: C_13  and  C_14 
REMARK   14  A    between atoms: C_14  and  S_15 
REMARK   15  A    between atoms: S_15  and  O_18 
ROOT
HETATM    1  S   UNK N   1      28.127  23.940  -5.368  0.00  0.00    -0.096 SA
ENDROOT
BRANCH   1   2
HETATM    2  C   UNK N   1      28.637  24.103  -3.640  0.00  0.00     0.110 C 
BRANCH   2   3
HETATM    3  C   UNK N   1      29.212  22.821  -3.045  0.00  0.00     0.085 C 
BRANCH   3   4
HETATM    4  C   UNK N   1      30.167  22.195  -4.051  0.00  0.00     0.042 C 
BRANCH   4   5
HETATM    5  C   UNK N   1      31.068  21.148  -3.401  0.00  0.00     0.157 C 
BRANCH   5   6
HETATM    6  S   UNK N   1      32.812  21.507  -3.781  0.00  0.00     0.094 S 
HETATM    7  O   UNK N   1      33.846  20.544  -3.181  0.00  0.00    -0.601 OA
HETATM    8  O   UNK N   1      32.383  20.237  -4.527  0.00  0.00    -0.601 OA
BRANCH   6   9
HETATM    9  O   UNK N   1      32.294  21.335  -2.153  0.00  0.00    -0.296 OA
HETATM   10  H   UNK N   1      32.109  20.480  -1.731  0.00  0.00     0.232 HD
ENDBRANCH   6   9
ENDBRANCH   5   6
ENDBRANCH   4   5
ENDBRANCH   3   4
BRANCH   3  11
HETATM   11  N   UNK N   1      29.952  23.098  -1.825  0.00  0.00    -0.425 N 
HETATM   12  H   UNK N   1      30.915  23.420  -1.724  0.00  0.00     0.150 HD
HETATM   13  H   UNK N   1      29.441  22.952  -0.955  0.00  0.00     0.150 HD
ENDBRANCH   3  11
ENDBRANCH   2   3
ENDBRANCH   1   2
BRANCH   1  14
HETATM   14  S   UNK N   1      26.193  24.650  -4.831  0.00  0.00    -0.096 SA
BRANCH  14  15
HETATM   15  C   UNK N   1      25.963  25.297  -6.504  0.00  0.00     0.110 C 
BRANCH  15  16
HETATM   16  C   UNK N   1      25.602  26.779  -6.495  0.00  0.00     0.085 C 
BRANCH  16  17
HETATM   17  C   UNK N   1      26.795  27.573  -6.000  0.00  0.00     0.042 C 
BRANCH  17  18
HETATM   18  C   UNK N   1      26.401  28.550  -4.902  0.00  0.00     0.157 C 
BRANCH  18  19
HETATM   19  S   UNK N   1      27.327  28.164  -3.390  0.00  0.00     0.094 S 
HETATM   20  O   UNK N   1      27.218  29.195  -2.260  0.00  0.00    -0.601 OA
HETATM   21  O   UNK N   1      25.817  28.051  -3.143  0.00  0.00    -0.601 OA
BRANCH  19  22
HETATM   22  O   UNK N   1      27.610  29.651  -4.202  0.00  0.00    -0.296 OA
HETATM   23  H   UNK N   1      28.391  30.218  -4.104  0.00  0.00     0.232 HD
ENDBRANCH  19  22
ENDBRANCH  18  19
ENDBRANCH  17  18
ENDBRANCH  16  17
BRANCH  16  24
HETATM   24  N   UNK N   1      24.485  27.033  -5.599  0.00  0.00    -0.425 N 
HETATM   25  H   UNK N   1      24.424  26.982  -4.582  0.00  0.00     0.150 HD
HETATM   26  H   UNK N   1      23.619  27.306  -6.064  0.00  0.00     0.150 HD
ENDBRANCH  16  24
ENDBRANCH  15  16
ENDBRANCH  14  15
ENDBRANCH   1  14
TORSDOF 15
ENDMDL
MODEL 8
REMARK VINA RESULT:      -5.3     10.840     13.965
REMARK  15 active torsions:
REMARK  status: ('A' for Active; 'I' for Inactive)
REMARK    1  A    between atoms: C_1  and  C_2 
REMARK    2  A    between atoms: C_1  and  C_7 
REMARK    3  A    between atoms: C_2  and  S_3 
REMARK    4  A    between atoms: S_3  and  O_6 
REMARK    5  A    between atoms: C_7  and  C_8 
REMARK    6  A    between atoms: C_7  and  N_20 
REMARK    7  A    between atoms: C_8  and  S_9 
REMARK    8  A    between atoms: S_9  and  S_10 
REMARK    9  A    between atoms: S_10  and  C_11 
REMARK   10  A    between atoms: C_11  and  C_12 
REMARK   11  A    between atoms: C_12  and  C_13 
REMARK   12  A    between atoms: C_12  and  N_19 
REMARK   13  A    between atoms: C_13  and  C_14 
REMARK   14  A    between atoms: C_14  and  S_15 
REMARK   15  A    between atoms: S_15  and  O_18 
ROOT
HETATM    1  S   UNK N   1      36.260  11.778   7.272  0.00  0.00    -0.096 SA
ENDROOT
BRANCH   1   2
HETATM    2  C   UNK N   1      36.771  12.815   8.663  0.00  0.00     0.110 C 
BRANCH   2   3
HETATM    3  C   UNK N   1      38.031  12.321   9.368  0.00  0.00     0.085 C 
BRANCH   3   4
HETATM    4  C   UNK N   1      38.172  13.052  10.696  0.00  0.00     0.042 C 
BRANCH   4   5
HETATM    5  C   UNK N   1      36.931  13.877  11.022  0.00  0.00     0.157 C 
BRANCH   5   6
HETATM    6  S   UNK N   1      36.457  13.624  12.763  0.00  0.00     0.094 S 
HETATM    7  O   UNK N   1      35.090  14.184  13.178  0.00  0.00    -0.601 OA
HETATM    8  O   UNK N   1      35.579  12.741  11.864  0.00  0.00    -0.601 OA
BRANCH   6   9
HETATM    9  O   UNK N   1      36.452  15.199  12.081  0.00  0.00    -0.296 OA
HETATM   10  H   UNK N   1      37.101  15.887  12.300  0.00  0.00     0.232 HD
ENDBRANCH   6   9
ENDBRANCH   5   6
ENDBRANCH   4   5
ENDBRANCH   3   4
BRANCH   3  11
HETATM   11  N   UNK N   1      37.951  10.895   9.639  0.00  0.00    -0.425 N 
HETATM   12  H   UNK N   1      38.352  10.371  10.417  0.00  0.00     0.150 HD
HETATM   13  H   UNK N   1      37.425  10.345   8.960  0.00  0.00     0.150 HD
ENDBRANCH   3  11
ENDBRANCH   2   3
ENDBRANCH   1   2
BRANCH   1  14
HETATM   14  S   UNK N   1      34.617  13.090   6.938  0.00  0.00    -0.096 SA
BRANCH  14  15
HETATM   15  C   UNK N   1      34.338  13.201   8.721  0.00  0.00     0.110 C 
BRANCH  15  16
HETATM   16  C   UNK N   1      33.389  14.341   9.078  0.00  0.00     0.085 C 
BRANCH  16  17
HETATM   17  C   UNK N   1      33.535  15.444   8.048  0.00  0.00     0.042 C 
BRANCH  17  18
HETATM   18  C   UNK N   1      34.692  16.374   8.384  0.00  0.00     0.157 C 
BRANCH  18  19
HETATM   19  S   UNK N   1      34.101  18.089   8.401  0.00  0.00     0.094 S 
HETATM   20  O   UNK N   1      35.190  19.169   8.412  0.00  0.00    -0.601 OA
HETATM   21  O   UNK N   1      34.749  17.753   7.051  0.00  0.00    -0.601 OA
BRANCH  19  22
HETATM   22  O   UNK N   1      35.165  17.546   9.636  0.00  0.00    -0.296 OA
HETATM   23  H   UNK N   1      34.920  17.015  10.409  0.00  0.00     0.232 HD
ENDBRANCH  19  22
ENDBRANCH  18  19
ENDBRANCH  17  18
ENDBRANCH  16  17
BRANCH  16  24
HETATM   24  N   UNK N   1      33.714  14.893  10.383  0.00  0.00    -0.425 N 
HETATM   25  H   UNK N   1      33.761  14.449  11.300  0.00  0.00     0.150 HD
HETATM   26  H   UNK N   1      33.931  15.890  10.382  0.00  0.00     0.150 HD
ENDBRANCH  16  24
ENDBRANCH  15  16
ENDBRANCH  14  15
ENDBRANCH   1  14
TORSDOF 15
ENDMDL
MODEL 9
REMARK VINA RESULT:      -5.3      5.497     11.268
REMARK  15 active torsions:
REMARK  status: ('A' for Active; 'I' for Inactive)
REMARK    1  A    between atoms: C_1  and  C_2 
REMARK    2  A    between atoms: C_1  and  C_7 
REMARK    3  A    between atoms: C_2  and  S_3 
REMARK    4  A    between atoms: S_3  and  O_6 
REMARK    5  A    between atoms: C_7  and  C_8 
REMARK    6  A    between atoms: C_7  and  N_20 
REMARK    7  A    between atoms: C_8  and  S_9 
REMARK    8  A    between atoms: S_9  and  S_10 
REMARK    9  A    between atoms: S_10  and  C_11 
REMARK   10  A    between atoms: C_11  and  C_12 
REMARK   11  A    between atoms: C_12  and  C_13 
REMARK   12  A    between atoms: C_12  and  N_19 
REMARK   13  A    between atoms: C_13  and  C_14 
REMARK   14  A    between atoms: C_14  and  S_15 
REMARK   15  A    between atoms: S_15  and  O_18 
ROOT
HETATM    1  S   UNK N   1      32.400  17.240   7.244  0.00  0.00    -0.096 SA
ENDROOT
BRANCH   1   2
HETATM    2  C   UNK N   1      32.872  15.494   7.236  0.00  0.00     0.110 C 
BRANCH   2   3
HETATM    3  C   UNK N   1      33.304  14.968   8.602  0.00  0.00     0.085 C 
BRANCH   3   4
HETATM    4  C   UNK N   1      34.773  15.300   8.818  0.00  0.00     0.042 C 
BRANCH   4   5
HETATM    5  C   UNK N   1      35.027  15.867  10.212  0.00  0.00     0.157 C 
BRANCH   5   6
HETATM    6  S   UNK N   1      35.916  14.644  11.227  0.00  0.00     0.094 S 
HETATM    7  O   UNK N   1      36.286  15.087  12.649  0.00  0.00    -0.601 OA
HETATM    8  O   UNK N   1      34.494  14.819  11.776  0.00  0.00    -0.601 OA
BRANCH   6   9
HETATM    9  O   UNK N   1      36.564  16.217  10.994  0.00  0.00    -0.296 OA
HETATM   10  H   UNK N   1      37.432  16.392  10.597  0.00  0.00     0.232 HD
ENDBRANCH   6   9
ENDBRANCH   5   6
ENDBRANCH   4   5
ENDBRANCH   3   4
BRANCH   3  11
HETATM   11  N   UNK N   1      32.534  15.591   9.667  0.00  0.00    -0.425 N 
HETATM   12  H   UNK N   1      32.874  16.087  10.491  0.00  0.00     0.150 HD
HETATM   13  H   UNK N   1      31.521  15.523   9.579  0.00  0.00     0.150 HD
ENDBRANCH   3  11
ENDBRANCH   2   3
ENDBRANCH   1   2
BRANCH   1  14
HETATM   14  S   UNK N   1      30.395  16.667   6.812  0.00  0.00    -0.096 SA
BRANCH  14  15
HETATM   15  C   UNK N   1      29.790  17.836   8.053  0.00  0.00     0.110 C 
BRANCH  15  16
HETATM   16  C   UNK N   1      28.301  18.120   7.888  0.00  0.00     0.085 C 
BRANCH  16  17
HETATM   17  C   UNK N   1      28.129  19.391   7.081  0.00  0.00     0.042 C 
BRANCH  17  18
HETATM   18  C   UNK N   1      27.742  19.092   5.639  0.00  0.00     0.157 C 
BRANCH  18  19
HETATM   19  S   UNK N   1      26.946  20.552   4.913  0.00  0.00     0.094 S 
HETATM   20  O   UNK N   1      26.457  20.394   3.468  0.00  0.00    -0.601 OA
HETATM   21  O   UNK N   1      25.918  19.439   5.156  0.00  0.00    -0.601 OA
BRANCH  19  22
HETATM   22  O   UNK N   1      28.300  19.844   4.127  0.00  0.00    -0.296 OA
HETATM   23  H   UNK N   1      29.078  19.460   4.560  0.00  0.00     0.232 HD
ENDBRANCH  19  22
ENDBRANCH  18  19
ENDBRANCH  17  18
ENDBRANCH  16  17
BRANCH  16  24
HETATM   24  N   UNK N   1      27.667  18.315   9.182  0.00  0.00    -0.425 N 
HETATM   25  H   UNK N   1      27.721  19.094   9.837  0.00  0.00     0.150 HD
HETATM   26  H   UNK N   1      27.070  17.545   9.485  0.00  0.00     0.150 HD
ENDBRANCH  16  24
ENDBRANCH  15  16
ENDBRANCH  14  15
ENDBRANCH   1  14
TORSDOF 15
ENDMDL
