MODEL 1
REMARK VINA RESULT:      -6.7      0.000      0.000
REMARK  0 active torsions:
REMARK  status: ('A' for Active; 'I' for Inactive)
ROOT
HETATM    1  C   UNK N   1      37.284   9.562  15.181  0.00  0.00     0.043 C 
HETATM    2  C   UNK N   1      35.847   9.220  15.419  0.00  0.00    -0.087 C 
HETATM    3  C   UNK N   1      34.896   9.496  14.516  0.00  0.00    -0.024 C 
HETATM    4  C   UNK N   1      35.194  10.210  13.233  0.00  0.00     0.030 C 
HETATM    5  C   UNK N   1      34.662  11.644  13.341  0.00  0.00     0.044 C 
HETATM    6  C   UNK N   1      35.307  12.367  14.524  0.00  0.00     0.087 A 
HETATM    7  C   UNK N   1      34.614  12.179  15.835  0.00  0.00     0.187 A 
HETATM    8  O   UNK N   1      34.499  13.371  15.084  0.00  0.00    -0.367 OA
HETATM    9  C   UNK N   1      35.573  12.311  17.023  0.00  0.00     0.172 A 
HETATM   10  C   UNK N   1      35.726  10.993  17.892  0.00  0.00     0.056 A 
HETATM   11  C   UNK N   1      34.749   9.854  17.545  0.00  0.00     0.016 C 
HETATM   12  C   UNK N   1      35.446   8.734  16.769  0.00  0.00     0.034 C 
HETATM   13  C   UNK N   1      35.411  11.508  19.250  0.00  0.00     0.015 A 
HETATM   14  C   UNK N   1      35.443  10.797  20.379  0.00  0.00     0.025 C 
HETATM   15  C   UNK N   1      35.078  12.894  19.145  0.00  0.00     0.289 A 
HETATM   16  O   UNK N   1      34.762  13.615  20.075  0.00  0.00    -0.260 OA
HETATM   17  O   UNK N   1      35.165  13.319  17.883  0.00  0.00    -0.309 OA
HETATM   18  C   UNK N   1      36.742  12.861  14.408  0.00  0.00     0.049 C 
ENDROOT
TORSDOF 0
ENDMDL
MODEL 2
REMARK VINA RESULT:      -6.3     24.563     27.082
REMARK  0 active torsions:
REMARK  status: ('A' for Active; 'I' for Inactive)
ROOT
HETATM    1  C   UNK N   1      26.326  25.991  -7.482  0.00  0.00     0.043 C 
HETATM    2  C   UNK N   1      25.694  25.320  -6.304  0.00  0.00    -0.087 C 
HETATM    3  C   UNK N   1      24.919  25.989  -5.439  0.00  0.00    -0.024 C 
HETATM    4  C   UNK N   1      24.672  27.461  -5.562  0.00  0.00     0.030 C 
HETATM    5  C   UNK N   1      25.472  28.180  -4.469  0.00  0.00     0.044 C 
HETATM    6  C   UNK N   1      26.963  27.869  -4.605  0.00  0.00     0.087 A 
HETATM    7  C   UNK N   1      27.418  26.630  -3.904  0.00  0.00     0.187 A 
HETATM    8  O   UNK N   1      27.667  27.923  -3.391  0.00  0.00    -0.367 OA
HETATM    9  C   UNK N   1      28.648  26.004  -4.569  0.00  0.00     0.172 A 
HETATM   10  C   UNK N   1      28.408  24.550  -5.156  0.00  0.00     0.056 A 
HETATM   11  C   UNK N   1      27.056  23.905  -4.795  0.00  0.00     0.016 C 
HETATM   12  C   UNK N   1      26.094  23.919  -5.984  0.00  0.00     0.034 C 
HETATM   13  C   UNK N   1      29.501  23.791  -4.494  0.00  0.00     0.015 A 
HETATM   14  C   UNK N   1      29.779  22.499  -4.685  0.00  0.00     0.025 C 
HETATM   15  C   UNK N   1      30.210  24.678  -3.626  0.00  0.00     0.289 A 
HETATM   16  O   UNK N   1      31.161  24.370  -2.928  0.00  0.00    -0.260 OA
HETATM   17  O   UNK N   1      29.705  25.912  -3.677  0.00  0.00    -0.309 OA
HETATM   18  C   UNK N   1      27.772  28.544  -5.704  0.00  0.00     0.049 C 
ENDROOT
TORSDOF 0
ENDMDL
MODEL 3
REMARK VINA RESULT:      -6.3      2.182      2.952
REMARK  0 active torsions:
REMARK  status: ('A' for Active; 'I' for Inactive)
ROOT
HETATM    1  C   UNK N   1      35.714   9.394  14.029  0.00  0.00     0.043 C 
HETATM    2  C   UNK N   1      34.484  10.236  13.906  0.00  0.00    -0.087 C 
HETATM    3  C   UNK N   1      34.073  10.721  12.727  0.00  0.00    -0.024 C 
HETATM    4  C   UNK N   1      34.839  10.496  11.459  0.00  0.00     0.030 C 
HETATM    5  C   UNK N   1      35.533  11.808  11.073  0.00  0.00     0.044 C 
HETATM    6  C   UNK N   1      36.465  12.270  12.193  0.00  0.00     0.087 A 
HETATM    7  C   UNK N   1      35.819  13.106  13.250  0.00  0.00     0.187 A 
HETATM    8  O   UNK N   1      36.642  13.663  12.245  0.00  0.00    -0.367 OA
HETATM    9  C   UNK N   1      36.527  12.983  14.603  0.00  0.00     0.172 A 
HETATM   10  C   UNK N   1      35.633  12.364  15.758  0.00  0.00     0.056 A 
HETATM   11  C   UNK N   1      34.144  12.173  15.412  0.00  0.00     0.016 C 
HETATM   12  C   UNK N   1      33.814  10.701  15.154  0.00  0.00     0.034 C 
HETATM   13  C   UNK N   1      35.759  13.409  16.807  0.00  0.00     0.015 A 
HETATM   14  C   UNK N   1      35.222  13.355  18.028  0.00  0.00     0.025 C 
HETATM   15  C   UNK N   1      36.558  14.477  16.293  0.00  0.00     0.289 A 
HETATM   16  O   UNK N   1      36.848  15.494  16.898  0.00  0.00    -0.260 OA
HETATM   17  O   UNK N   1      36.968  14.220  15.050  0.00  0.00    -0.309 OA
HETATM   18  C   UNK N   1      37.802  11.570  12.393  0.00  0.00     0.049 C 
ENDROOT
TORSDOF 0
ENDMDL
MODEL 4
REMARK VINA RESULT:      -6.2      2.492      5.492
REMARK  0 active torsions:
REMARK  status: ('A' for Active; 'I' for Inactive)
ROOT
HETATM    1  C   UNK N   1      33.356  10.775  14.437  0.00  0.00     0.043 C 
HETATM    2  C   UNK N   1      34.512  10.282  13.627  0.00  0.00    -0.087 C 
HETATM    3  C   UNK N   1      35.641   9.840  14.199  0.00  0.00    -0.024 C 
HETATM    4  C   UNK N   1      35.842   9.854  15.683  0.00  0.00     0.030 C 
HETATM    5  C   UNK N   1      36.823  10.982  16.028  0.00  0.00     0.044 C 
HETATM    6  C   UNK N   1      36.284  12.328  15.543  0.00  0.00     0.087 A 
HETATM    7  C   UNK N   1      36.626  12.675  14.130  0.00  0.00     0.187 A 
HETATM    8  O   UNK N   1      37.287  13.262  15.234  0.00  0.00    -0.367 OA
HETATM    9  C   UNK N   1      35.588  13.603  13.492  0.00  0.00     0.172 A 
HETATM   10  C   UNK N   1      34.827  12.978  12.247  0.00  0.00     0.056 A 
HETATM   11  C   UNK N   1      35.379  11.633  11.741  0.00  0.00     0.016 C 
HETATM   12  C   UNK N   1      34.474  10.468  12.148  0.00  0.00     0.034 C 
HETATM   13  C   UNK N   1      35.065  14.021  11.215  0.00  0.00     0.015 A 
HETATM   14  C   UNK N   1      34.588  14.006   9.969  0.00  0.00     0.025 C 
HETATM   15  C   UNK N   1      35.883  15.047  11.784  0.00  0.00     0.289 A 
HETATM   16  O   UNK N   1      36.269  16.045  11.201  0.00  0.00    -0.260 OA
HETATM   17  O   UNK N   1      36.173  14.784  13.059  0.00  0.00    -0.309 OA
HETATM   18  C   UNK N   1      35.162  13.008  16.315  0.00  0.00     0.049 C 
ENDROOT
TORSDOF 0
ENDMDL
MODEL 5
REMARK VINA RESULT:      -6.2      1.918      3.671
REMARK  0 active torsions:
REMARK  status: ('A' for Active; 'I' for Inactive)
ROOT
HETATM    1  C   UNK N   1      34.823  13.283  12.534  0.00  0.00     0.043 C 
HETATM    2  C   UNK N   1      36.233  13.425  13.013  0.00  0.00    -0.087 C 
HETATM    3  C   UNK N   1      37.206  12.602  12.600  0.00  0.00    -0.024 C 
HETATM    4  C   UNK N   1      36.944  11.455  11.673  0.00  0.00     0.030 C 
HETATM    5  C   UNK N   1      37.013  10.153  12.480  0.00  0.00     0.044 C 
HETATM    6  C   UNK N   1      35.991  10.174  13.618  0.00  0.00     0.087 A 
HETATM    7  C   UNK N   1      36.468  10.802  14.887  0.00  0.00     0.187 A 
HETATM    8  O   UNK N   1      36.364   9.401  14.730  0.00  0.00    -0.367 OA
HETATM    9  C   UNK N   1      35.321  11.398  15.708  0.00  0.00     0.172 A 
HETATM   10  C   UNK N   1      35.405  12.970  15.908  0.00  0.00     0.056 A 
HETATM   11  C   UNK N   1      36.713  13.629  15.433  0.00  0.00     0.016 C 
HETATM   12  C   UNK N   1      36.515  14.385  14.118  0.00  0.00     0.034 C 
HETATM   13  C   UNK N   1      35.316  13.074  17.388  0.00  0.00     0.015 A 
HETATM   14  C   UNK N   1      35.294  14.210  18.088  0.00  0.00     0.025 C 
HETATM   15  C   UNK N   1      35.248  11.755  17.934  0.00  0.00     0.289 A 
HETATM   16  O   UNK N   1      35.176  11.486  19.121  0.00  0.00    -0.260 OA
HETATM   17  O   UNK N   1      35.264  10.831  16.972  0.00  0.00    -0.309 OA
HETATM   18  C   UNK N   1      34.517   9.954  13.305  0.00  0.00     0.049 C 
ENDROOT
TORSDOF 0
ENDMDL
MODEL 6
REMARK VINA RESULT:      -6.0     25.645     28.635
REMARK  0 active torsions:
REMARK  status: ('A' for Active; 'I' for Inactive)
ROOT
HETATM    1  C   UNK N   1      29.173  26.561  -6.176  0.00  0.00     0.043 C 
HETATM    2  C   UNK N   1      27.901  27.311  -6.413  0.00  0.00    -0.087 C 
HETATM    3  C   UNK N   1      27.176  27.811  -5.402  0.00  0.00    -0.024 C 
HETATM    4  C   UNK N   1      27.560  27.612  -3.968  0.00  0.00     0.030 C 
HETATM    5  C   UNK N   1      26.604  26.586  -3.348  0.00  0.00     0.044 C 
HETATM    6  C   UNK N   1      26.669  25.264  -4.114  0.00  0.00     0.087 A 
HETATM    7  C   UNK N   1      25.755  25.169  -5.292  0.00  0.00     0.187 A 
HETATM    8  O   UNK N   1      25.477  24.522  -4.066  0.00  0.00    -0.367 OA
HETATM    9  C   UNK N   1      26.288  24.213  -6.365  0.00  0.00     0.172 A 
HETATM   10  C   UNK N   1      26.609  24.903  -7.757  0.00  0.00     0.056 A 
HETATM   11  C   UNK N   1      26.152  26.368  -7.891  0.00  0.00     0.016 C 
HETATM   12  C   UNK N   1      27.335  27.334  -7.791  0.00  0.00     0.034 C 
HETATM   13  C   UNK N   1      25.813  24.058  -8.684  0.00  0.00     0.015 A 
HETATM   14  C   UNK N   1      25.770  24.187 -10.012  0.00  0.00     0.025 C 
HETATM   15  C   UNK N   1      25.109  23.078  -7.918  0.00  0.00     0.289 A 
HETATM   16  O   UNK N   1      24.359  22.233  -8.373  0.00  0.00    -0.260 OA
HETATM   17  O   UNK N   1      25.383  23.193  -6.617  0.00  0.00    -0.309 OA
HETATM   18  C   UNK N   1      27.863  24.340  -3.914  0.00  0.00     0.049 C 
ENDROOT
TORSDOF 0
ENDMDL
MODEL 7
REMARK VINA RESULT:      -6.0      7.923     10.740
REMARK  0 active torsions:
REMARK  status: ('A' for Active; 'I' for Inactive)
ROOT
HETATM    1  C   UNK N   1      31.445  16.544   7.106  0.00  0.00     0.043 C 
HETATM    2  C   UNK N   1      32.579  17.480   6.829  0.00  0.00    -0.087 C 
HETATM    3  C   UNK N   1      33.133  17.580   5.612  0.00  0.00    -0.024 C 
HETATM    4  C   UNK N   1      32.691  16.729   4.461  0.00  0.00     0.030 C 
HETATM    5  C   UNK N   1      33.768  15.668   4.202  0.00  0.00     0.044 C 
HETATM    6  C   UNK N   1      33.990  14.814   5.452  0.00  0.00     0.087 A 
HETATM    7  C   UNK N   1      34.985  15.361   6.423  0.00  0.00     0.187 A 
HETATM    8  O   UNK N   1      35.288  14.287   5.555  0.00  0.00    -0.367 OA
HETATM    9  C   UNK N   1      34.705  14.908   7.859  0.00  0.00     0.172 A 
HETATM   10  C   UNK N   1      34.364  16.087   8.864  0.00  0.00     0.056 A 
HETATM   11  C   UNK N   1      34.564  17.509   8.309  0.00  0.00     0.016 C 
HETATM   12  C   UNK N   1      33.226  18.174   7.978  0.00  0.00     0.034 C 
HETATM   13  C   UNK N   1      35.358  15.840   9.941  0.00  0.00     0.015 A 
HETATM   14  C   UNK N   1      35.470  16.539  11.073  0.00  0.00     0.025 C 
HETATM   15  C   UNK N   1      36.169  14.725   9.566  0.00  0.00     0.289 A 
HETATM   16  O   UNK N   1      37.086  14.267  10.225  0.00  0.00    -0.260 OA
HETATM   17  O   UNK N   1      35.791  14.225   8.388  0.00  0.00    -0.309 OA
HETATM   18  C   UNK N   1      32.967  13.750   5.824  0.00  0.00     0.049 C 
ENDROOT
TORSDOF 0
ENDMDL
MODEL 8
REMARK VINA RESULT:      -6.0      2.274      5.410
REMARK  0 active torsions:
REMARK  status: ('A' for Active; 'I' for Inactive)
ROOT
HETATM    1  C   UNK N   1      35.976   8.999  13.587  0.00  0.00     0.043 C 
HETATM    2  C   UNK N   1      37.076   9.917  14.019  0.00  0.00    -0.087 C 
HETATM    3  C   UNK N   1      37.191  10.336  15.286  0.00  0.00    -0.024 C 
HETATM    4  C   UNK N   1      36.203   9.957  16.347  0.00  0.00     0.030 C 
HETATM    5  C   UNK N   1      35.333  11.180  16.657  0.00  0.00     0.044 C 
HETATM    6  C   UNK N   1      34.615  11.661  15.395  0.00  0.00     0.087 A 
HETATM    7  C   UNK N   1      35.390  12.622  14.553  0.00  0.00     0.187 A 
HETATM    8  O   UNK N   1      34.331  13.037  15.394  0.00  0.00    -0.367 OA
HETATM    9  C   UNK N   1      34.989  12.554  13.076  0.00  0.00     0.172 A 
HETATM   10  C   UNK N   1      36.152  12.094  12.101  0.00  0.00     0.056 A 
HETATM   11  C   UNK N   1      37.549  11.985  12.742  0.00  0.00     0.016 C 
HETATM   12  C   UNK N   1      37.946  10.525  12.972  0.00  0.00     0.034 C 
HETATM   13  C   UNK N   1      36.155  13.207  11.116  0.00  0.00     0.015 A 
HETATM   14  C   UNK N   1      36.935  13.288  10.035  0.00  0.00     0.025 C 
HETATM   15  C   UNK N   1      35.177  14.170  11.513  0.00  0.00     0.289 A 
HETATM   16  O   UNK N   1      34.930  15.209  10.925  0.00  0.00    -0.260 OA
HETATM   17  O   UNK N   1      34.543  13.787  12.623  0.00  0.00    -0.309 OA
HETATM   18  C   UNK N   1      33.414  10.884  14.874  0.00  0.00     0.049 C 
ENDROOT
TORSDOF 0
ENDMDL
MODEL 9
REMARK VINA RESULT:      -5.9      2.146      3.276
REMARK  0 active torsions:
REMARK  status: ('A' for Active; 'I' for Inactive)
ROOT
HETATM    1  C   UNK N   1      33.519  10.776  14.644  0.00  0.00     0.043 C 
HETATM    2  C   UNK N   1      34.533  11.873  14.713  0.00  0.00    -0.087 C 
HETATM    3  C   UNK N   1      35.595  11.908  13.896  0.00  0.00    -0.024 C 
HETATM    4  C   UNK N   1      35.868  10.829  12.893  0.00  0.00     0.030 C 
HETATM    5  C   UNK N   1      37.043   9.983  13.399  0.00  0.00     0.044 C 
HETATM    6  C   UNK N   1      36.720   9.381  14.767  0.00  0.00     0.087 A 
HETATM    7  C   UNK N   1      37.048  10.253  15.936  0.00  0.00     0.187 A 
HETATM    8  O   UNK N   1      37.852   9.150  15.566  0.00  0.00    -0.367 OA
HETATM    9  C   UNK N   1      36.155   9.963  17.146  0.00  0.00     0.172 A 
HETATM   10  C   UNK N   1      35.239  11.179  17.592  0.00  0.00     0.056 A 
HETATM   11  C   UNK N   1      35.527  12.518  16.887  0.00  0.00     0.016 C 
HETATM   12  C   UNK N   1      34.456  12.842  15.843  0.00  0.00     0.034 C 
HETATM   13  C   UNK N   1      35.603  11.297  19.029  0.00  0.00     0.015 A 
HETATM   14  C   UNK N   1      35.070  12.159  19.898  0.00  0.00     0.025 C 
HETATM   15  C   UNK N   1      36.611  10.328  19.325  0.00  0.00     0.289 A 
HETATM   16  O   UNK N   1      37.134  10.166  20.414  0.00  0.00    -0.260 OA
HETATM   17  O   UNK N   1      36.912   9.599  18.249  0.00  0.00    -0.309 OA
HETATM   18  C   UNK N   1      35.770   8.195  14.858  0.00  0.00     0.049 C 
ENDROOT
TORSDOF 0
ENDMDL
