MODEL 1
REMARK VINA RESULT:      -5.7      0.000      0.000
REMARK  4 active torsions:
REMARK  status: ('A' for Active; 'I' for Inactive)
REMARK    1  A    between atoms: C_9  and  N_3 
REMARK    2  A    between atoms: C_11  and  O_16 
REMARK    3  A    between atoms: C_12  and  C_14 
REMARK    4  A    between atoms: C_14  and  O_15 
ROOT
HETATM    1  C   UNK N   1      21.945  14.156   8.925  0.00  0.00     0.269 C 
HETATM    2  C   UNK N   1      21.340  13.012   9.714  0.00  0.00     0.250 C 
HETATM    3  C   UNK N   1      22.557  12.578  10.442  0.00  0.00     0.187 C 
HETATM    4  C   UNK N   1      23.609  12.706   9.356  0.00  0.00     0.179 C 
HETATM    5  O   UNK N   1      23.166  13.666   8.418  0.00  0.00    -0.353 OA
HETATM    6  F   UNK N   1      20.347  13.424  10.582  0.00  0.00    -0.242 F 
ENDROOT
BRANCH   1   7
HETATM    7  N   UNK N   1      21.074  14.684   7.852  0.00  0.00    -0.279 N 
HETATM    8  C   UNK N   1      20.801  13.926   6.749  0.00  0.00     0.104 A 
HETATM    9  C   UNK N   1      19.943  14.388   5.755  0.00  0.00     0.092 A 
HETATM   10  C   UNK N   1      19.367  15.644   5.897  0.00  0.00     0.250 A 
HETATM   11  N   UNK N   1      19.649  16.400   6.999  0.00  0.00    -0.275 N 
HETATM   12  O   UNK N   1      18.612  16.069   5.043  0.00  0.00    -0.268 OA
HETATM   13  C   UNK N   1      20.488  15.934   7.978  0.00  0.00     0.331 A 
HETATM   14  H   UNK N   1      19.244  17.293   7.092  0.00  0.00     0.173 HD
HETATM   15  O   UNK N   1      20.713  16.631   8.952  0.00  0.00    -0.246 OA
ENDBRANCH   1   7
BRANCH   3  16
HETATM   16  O   UNK N   1      22.443  11.257  10.879  0.00  0.00    -0.390 OA
HETATM   17  H   UNK N   1      21.653  10.734  11.088  0.00  0.00     0.210 HD
ENDBRANCH   3  16
BRANCH   4  18
HETATM   18  C   UNK N   1      24.940  13.134   9.959  0.00  0.00     0.198 C 
BRANCH  18  19
HETATM   19  O   UNK N   1      25.080  12.616  11.248  0.00  0.00    -0.398 OA
HETATM   20  H   UNK N   1      25.578  11.799  11.408  0.00  0.00     0.209 HD
ENDBRANCH  18  19
ENDBRANCH   4  18
TORSDOF 4
ENDMDL
MODEL 2
REMARK VINA RESULT:      -5.6     12.332     13.011
REMARK  4 active torsions:
REMARK  status: ('A' for Active; 'I' for Inactive)
REMARK    1  A    between atoms: C_9  and  N_3 
REMARK    2  A    between atoms: C_11  and  O_16 
REMARK    3  A    between atoms: C_12  and  C_14 
REMARK    4  A    between atoms: C_14  and  O_15 
ROOT
HETATM    1  C   UNK N   1      34.646  15.813   7.879  0.00  0.00     0.269 C 
HETATM    2  C   UNK N   1      33.535  15.760   8.909  0.00  0.00     0.250 C 
HETATM    3  C   UNK N   1      34.369  15.579  10.123  0.00  0.00     0.187 C 
HETATM    4  C   UNK N   1      35.421  14.612   9.614  0.00  0.00     0.179 C 
HETATM    5  O   UNK N   1      35.527  14.766   8.213  0.00  0.00    -0.353 OA
HETATM    6  F   UNK N   1      32.798  16.927   8.966  0.00  0.00    -0.242 F 
ENDROOT
BRANCH   1   7
HETATM    7  N   UNK N   1      34.181  15.719   6.477  0.00  0.00    -0.279 N 
HETATM    8  C   UNK N   1      33.941  14.500   5.911  0.00  0.00     0.104 A 
HETATM    9  C   UNK N   1      33.455  14.395   4.610  0.00  0.00     0.092 A 
HETATM   10  C   UNK N   1      33.221  15.556   3.887  0.00  0.00     0.250 A 
HETATM   11  N   UNK N   1      33.470  16.773   4.456  0.00  0.00    -0.275 N 
HETATM   12  O   UNK N   1      32.795  15.491   2.749  0.00  0.00    -0.268 OA
HETATM   13  C   UNK N   1      33.939  16.868   5.741  0.00  0.00     0.331 A 
HETATM   14  H   UNK N   1      33.309  17.594   3.937  0.00  0.00     0.173 HD
HETATM   15  O   UNK N   1      34.143  17.969   6.221  0.00  0.00    -0.246 OA
ENDBRANCH   1   7
BRANCH   3  16
HETATM   16  O   UNK N   1      33.631  15.018  11.166  0.00  0.00    -0.390 OA
HETATM   17  H   UNK N   1      33.314  15.416  11.992  0.00  0.00     0.210 HD
ENDBRANCH   3  16
BRANCH   4  18
HETATM   18  C   UNK N   1      36.762  14.893  10.278  0.00  0.00     0.198 C 
BRANCH  18  19
HETATM   19  O   UNK N   1      36.741  16.138  10.910  0.00  0.00    -0.398 OA
HETATM   20  H   UNK N   1      35.918  16.646  10.987  0.00  0.00     0.209 HD
ENDBRANCH  18  19
ENDBRANCH   4  18
TORSDOF 4
ENDMDL
MODEL 3
REMARK VINA RESULT:      -5.6     13.452     16.045
REMARK  4 active torsions:
REMARK  status: ('A' for Active; 'I' for Inactive)
REMARK    1  A    between atoms: C_9  and  N_3 
REMARK    2  A    between atoms: C_11  and  O_16 
REMARK    3  A    between atoms: C_12  and  C_14 
REMARK    4  A    between atoms: C_14  and  O_15 
ROOT
HETATM    1  C   UNK N   1      35.397  13.586  13.201  0.00  0.00     0.269 C 
HETATM    2  C   UNK N   1      36.450  14.653  12.977  0.00  0.00     0.250 C 
HETATM    3  C   UNK N   1      35.859  15.298  11.780  0.00  0.00     0.187 C 
HETATM    4  C   UNK N   1      35.363  14.089  11.010  0.00  0.00     0.179 C 
HETATM    5  O   UNK N   1      35.129  13.041  11.930  0.00  0.00    -0.353 OA
HETATM    6  F   UNK N   1      36.553  15.537  14.034  0.00  0.00    -0.242 F 
ENDROOT
BRANCH   1   7
HETATM    7  N   UNK N   1      35.783  12.544  14.179  0.00  0.00    -0.279 N 
HETATM    8  C   UNK N   1      36.870  11.750  13.947  0.00  0.00     0.104 A 
HETATM    9  C   UNK N   1      37.277  10.799  14.879  0.00  0.00     0.092 A 
HETATM   10  C   UNK N   1      36.555  10.664  16.057  0.00  0.00     0.250 A 
HETATM   11  N   UNK N   1      35.465  11.457  16.281  0.00  0.00    -0.275 N 
HETATM   12  O   UNK N   1      36.892   9.843  16.889  0.00  0.00    -0.268 OA
HETATM   13  C   UNK N   1      35.076  12.397  15.361  0.00  0.00     0.331 A 
HETATM   14  H   UNK N   1      34.951  11.353  17.114  0.00  0.00     0.173 HD
HETATM   15  O   UNK N   1      34.103  13.093  15.595  0.00  0.00    -0.246 OA
ENDBRANCH   1   7
BRANCH   3  16
HETATM   16  O   UNK N   1      36.823  15.998  11.052  0.00  0.00    -0.390 OA
HETATM   17  H   UNK N   1      37.360  16.765  11.303  0.00  0.00     0.210 HD
ENDBRANCH   3  16
BRANCH   4  18
HETATM   18  C   UNK N   1      34.081  14.428  10.262  0.00  0.00     0.198 C 
BRANCH  18  19
HETATM   19  O   UNK N   1      33.169  15.051  11.117  0.00  0.00    -0.398 OA
HETATM   20  H   UNK N   1      32.363  14.596  11.407  0.00  0.00     0.209 HD
ENDBRANCH  18  19
ENDBRANCH   4  18
TORSDOF 4
ENDMDL
MODEL 4
REMARK VINA RESULT:      -5.4      7.387      9.655
REMARK  4 active torsions:
REMARK  status: ('A' for Active; 'I' for Inactive)
REMARK    1  A    between atoms: C_9  and  N_3 
REMARK    2  A    between atoms: C_11  and  O_16 
REMARK    3  A    between atoms: C_12  and  C_14 
REMARK    4  A    between atoms: C_14  and  O_15 
ROOT
HETATM    1  C   UNK N   1      22.852  19.728   2.698  0.00  0.00     0.269 C 
HETATM    2  C   UNK N   1      21.753  18.846   3.253  0.00  0.00     0.250 C 
HETATM    3  C   UNK N   1      20.630  19.342   2.421  0.00  0.00     0.187 C 
HETATM    4  C   UNK N   1      20.915  20.832   2.402  0.00  0.00     0.179 C 
HETATM    5  O   UNK N   1      22.300  21.022   2.618  0.00  0.00    -0.353 OA
HETATM    6  F   UNK N   1      21.986  17.500   3.044  0.00  0.00    -0.242 F 
ENDROOT
BRANCH   1   7
HETATM    7  N   UNK N   1      24.105  19.710   3.485  0.00  0.00    -0.279 N 
HETATM    8  C   UNK N   1      24.155  19.062   4.686  0.00  0.00     0.104 A 
HETATM    9  C   UNK N   1      25.339  18.992   5.416  0.00  0.00     0.092 A 
HETATM   10  C   UNK N   1      26.477  19.600   4.905  0.00  0.00     0.250 A 
HETATM   11  N   UNK N   1      26.420  20.252   3.706  0.00  0.00    -0.275 N 
HETATM   12  O   UNK N   1      27.524  19.551   5.523  0.00  0.00    -0.268 OA
HETATM   13  C   UNK N   1      25.252  20.308   2.989  0.00  0.00     0.331 A 
HETATM   14  H   UNK N   1      27.228  20.688   3.351  0.00  0.00     0.173 HD
HETATM   15  O   UNK N   1      25.237  20.892   1.920  0.00  0.00    -0.246 OA
ENDBRANCH   1   7
BRANCH   3  16
HETATM   16  O   UNK N   1      19.397  19.073   3.019  0.00  0.00    -0.390 OA
HETATM   17  H   UNK N   1      18.886  18.250   3.054  0.00  0.00     0.210 HD
ENDBRANCH   3  16
BRANCH   4  18
HETATM   18  C   UNK N   1      20.504  21.431   1.064  0.00  0.00     0.198 C 
BRANCH  18  19
HETATM   19  O   UNK N   1      20.666  20.495   0.041  0.00  0.00    -0.398 OA
HETATM   20  H   UNK N   1      19.905  20.168  -0.463  0.00  0.00     0.209 HD
ENDBRANCH  18  19
ENDBRANCH   4  18
TORSDOF 4
ENDMDL
MODEL 5
REMARK VINA RESULT:      -5.4     10.680     12.519
REMARK  4 active torsions:
REMARK  status: ('A' for Active; 'I' for Inactive)
REMARK    1  A    between atoms: C_9  and  N_3 
REMARK    2  A    between atoms: C_11  and  O_16 
REMARK    3  A    between atoms: C_12  and  C_14 
REMARK    4  A    between atoms: C_14  and  O_15 
ROOT
HETATM    1  C   UNK N   1      34.232  16.236   7.862  0.00  0.00     0.269 C 
HETATM    2  C   UNK N   1      34.033  17.210   9.006  0.00  0.00     0.250 C 
HETATM    3  C   UNK N   1      35.145  16.756   9.877  0.00  0.00     0.187 C 
HETATM    4  C   UNK N   1      35.054  15.251   9.709  0.00  0.00     0.179 C 
HETATM    5  O   UNK N   1      34.444  14.979   8.462  0.00  0.00    -0.353 OA
HETATM    6  F   UNK N   1      34.190  18.528   8.624  0.00  0.00    -0.242 F 
ENDROOT
BRANCH   1   7
HETATM    7  N   UNK N   1      33.117  16.202   6.890  0.00  0.00    -0.279 N 
HETATM    8  C   UNK N   1      32.065  15.351   7.076  0.00  0.00     0.104 A 
HETATM    9  C   UNK N   1      30.984  15.342   6.198  0.00  0.00     0.092 A 
HETATM   10  C   UNK N   1      30.990  16.215   5.119  0.00  0.00     0.250 A 
HETATM   11  N   UNK N   1      32.048  17.060   4.934  0.00  0.00    -0.275 N 
HETATM   12  O   UNK N   1      30.056  16.228   4.339  0.00  0.00    -0.268 OA
HETATM   13  C   UNK N   1      33.104  17.069   5.809  0.00  0.00     0.331 A 
HETATM   14  H   UNK N   1      32.052  17.673   4.163  0.00  0.00     0.173 HD
HETATM   15  O   UNK N   1      34.028  17.841   5.619  0.00  0.00    -0.246 OA
ENDBRANCH   1   7
BRANCH   3  16
HETATM   16  O   UNK N   1      34.932  17.128  11.206  0.00  0.00    -0.390 OA
HETATM   17  H   UNK N   1      34.557  17.942  11.574  0.00  0.00     0.210 HD
ENDBRANCH   3  16
BRANCH   4  18
HETATM   18  C   UNK N   1      36.442  14.629   9.763  0.00  0.00     0.198 C 
BRANCH  18  19
HETATM   19  O   UNK N   1      37.309  15.435  10.503  0.00  0.00    -0.398 OA
HETATM   20  H   UNK N   1      37.902  16.065  10.066  0.00  0.00     0.209 HD
ENDBRANCH  18  19
ENDBRANCH   4  18
TORSDOF 4
ENDMDL
MODEL 6
REMARK VINA RESULT:      -5.4      9.215     11.010
REMARK  4 active torsions:
REMARK  status: ('A' for Active; 'I' for Inactive)
REMARK    1  A    between atoms: C_9  and  N_3 
REMARK    2  A    between atoms: C_11  and  O_16 
REMARK    3  A    between atoms: C_12  and  C_14 
REMARK    4  A    between atoms: C_14  and  O_15 
ROOT
HETATM    1  C   UNK N   1      30.685  16.481   6.815  0.00  0.00     0.269 C 
HETATM    2  C   UNK N   1      31.410  17.289   7.872  0.00  0.00     0.250 C 
HETATM    3  C   UNK N   1      30.261  17.554   8.772  0.00  0.00     0.187 C 
HETATM    4  C   UNK N   1      29.159  17.829   7.768  0.00  0.00     0.179 C 
HETATM    5  O   UNK N   1      29.487  17.176   6.557  0.00  0.00    -0.353 OA
HETATM    6  F   UNK N   1      32.403  16.571   8.511  0.00  0.00    -0.242 F 
ENDROOT
BRANCH   1   7
HETATM    7  N   UNK N   1      31.467  16.252   5.580  0.00  0.00    -0.279 N 
HETATM    8  C   UNK N   1      31.927  17.311   4.849  0.00  0.00     0.104 A 
HETATM    9  C   UNK N   1      32.707  17.114   3.712  0.00  0.00     0.092 A 
HETATM   10  C   UNK N   1      33.011  15.816   3.325  0.00  0.00     0.250 A 
HETATM   11  N   UNK N   1      32.544  14.761   4.056  0.00  0.00    -0.275 N 
HETATM   12  O   UNK N   1      33.693  15.618   2.337  0.00  0.00    -0.268 OA
HETATM   13  C   UNK N   1      31.783  14.964   5.180  0.00  0.00     0.331 A 
HETATM   14  H   UNK N   1      32.755  13.842   3.774  0.00  0.00     0.173 HD
HETATM   15  O   UNK N   1      31.388  14.001   5.813  0.00  0.00    -0.246 OA
ENDBRANCH   1   7
BRANCH   3  16
HETATM   16  O   UNK N   1      30.497  18.669   9.579  0.00  0.00    -0.390 OA
HETATM   17  H   UNK N   1      30.321  19.608   9.415  0.00  0.00     0.210 HD
ENDBRANCH   3  16
BRANCH   4  18
HETATM   18  C   UNK N   1      27.825  17.320   8.296  0.00  0.00     0.198 C 
BRANCH  18  19
HETATM   19  O   UNK N   1      27.460  18.017   9.450  0.00  0.00    -0.398 OA
HETATM   20  H   UNK N   1      27.315  17.553  10.289  0.00  0.00     0.209 HD
ENDBRANCH  18  19
ENDBRANCH   4  18
TORSDOF 4
ENDMDL
MODEL 7
REMARK VINA RESULT:      -5.4      9.851     12.254
REMARK  4 active torsions:
REMARK  status: ('A' for Active; 'I' for Inactive)
REMARK    1  A    between atoms: C_9  and  N_3 
REMARK    2  A    between atoms: C_11  and  O_16 
REMARK    3  A    between atoms: C_12  and  C_14 
REMARK    4  A    between atoms: C_14  and  O_15 
ROOT
HETATM    1  C   UNK N   1      31.673  16.675   6.548  0.00  0.00     0.269 C 
HETATM    2  C   UNK N   1      30.393  17.421   6.865  0.00  0.00     0.250 C 
HETATM    3  C   UNK N   1      29.702  17.235   5.565  0.00  0.00     0.187 C 
HETATM    4  C   UNK N   1      30.851  17.422   4.593  0.00  0.00     0.179 C 
HETATM    5  O   UNK N   1      32.056  17.102   5.261  0.00  0.00    -0.353 OA
HETATM    6  F   UNK N   1      29.683  16.853   7.906  0.00  0.00    -0.242 F 
ENDROOT
BRANCH   1   7
HETATM    7  N   UNK N   1      32.754  16.872   7.539  0.00  0.00    -0.279 N 
HETATM    8  C   UNK N   1      33.613  17.928   7.422  0.00  0.00     0.104 A 
HETATM    9  C   UNK N   1      34.604  18.157   8.373  0.00  0.00     0.092 A 
HETATM   10  C   UNK N   1      34.712  17.287   9.450  0.00  0.00     0.250 A 
HETATM   11  N   UNK N   1      33.855  16.229   9.558  0.00  0.00    -0.275 N 
HETATM   12  O   UNK N   1      35.568  17.467  10.296  0.00  0.00    -0.268 OA
HETATM   13  C   UNK N   1      32.876  16.016   8.622  0.00  0.00     0.331 A 
HETATM   14  H   UNK N   1      33.940  15.610  10.320  0.00  0.00     0.173 HD
HETATM   15  O   UNK N   1      32.123  15.067   8.753  0.00  0.00    -0.246 OA
ENDBRANCH   1   7
BRANCH   3  16
HETATM   16  O   UNK N   1      28.715  18.203   5.372  0.00  0.00    -0.390 OA
HETATM   17  H   UNK N   1      28.118  18.346   4.622  0.00  0.00     0.210 HD
ENDBRANCH   3  16
BRANCH   4  18
HETATM   18  C   UNK N   1      30.667  16.523   3.378  0.00  0.00     0.198 C 
BRANCH  18  19
HETATM   19  O   UNK N   1      29.472  16.827   2.724  0.00  0.00    -0.398 OA
HETATM   20  H   UNK N   1      28.640  16.915   3.216  0.00  0.00     0.209 HD
ENDBRANCH  18  19
ENDBRANCH   4  18
TORSDOF 4
ENDMDL
MODEL 8
REMARK VINA RESULT:      -5.4     12.505     14.931
REMARK  4 active torsions:
REMARK  status: ('A' for Active; 'I' for Inactive)
REMARK    1  A    between atoms: C_9  and  N_3 
REMARK    2  A    between atoms: C_11  and  O_16 
REMARK    3  A    between atoms: C_12  and  C_14 
REMARK    4  A    between atoms: C_14  and  O_15 
ROOT
HETATM    1  C   UNK N   1      35.162  15.523   9.470  0.00  0.00     0.269 C 
HETATM    2  C   UNK N   1      33.830  15.018   8.952  0.00  0.00     0.250 C 
HETATM    3  C   UNK N   1      33.501  16.150   8.052  0.00  0.00     0.187 C 
HETATM    4  C   UNK N   1      33.960  17.331   8.885  0.00  0.00     0.179 C 
HETATM    5  O   UNK N   1      34.962  16.884   9.777  0.00  0.00    -0.353 OA
HETATM    6  F   UNK N   1      33.939  13.829   8.257  0.00  0.00    -0.242 F 
ENDROOT
BRANCH   1   7
HETATM    7  N   UNK N   1      35.692  14.768  10.627  0.00  0.00    -0.279 N 
HETATM    8  C   UNK N   1      34.896  14.513  11.707  0.00  0.00     0.104 A 
HETATM    9  C   UNK N   1      35.363  13.761  12.782  0.00  0.00     0.092 A 
HETATM   10  C   UNK N   1      36.662  13.272  12.743  0.00  0.00     0.250 A 
HETATM   11  N   UNK N   1      37.455  13.534  11.663  0.00  0.00    -0.275 N 
HETATM   12  O   UNK N   1      37.092  12.610  13.669  0.00  0.00    -0.268 OA
HETATM   13  C   UNK N   1      36.985  14.269  10.604  0.00  0.00     0.331 A 
HETATM   14  H   UNK N   1      38.378  13.192  11.643  0.00  0.00     0.173 HD
HETATM   15  O   UNK N   1      37.717  14.478   9.653  0.00  0.00    -0.246 OA
ENDBRANCH   1   7
BRANCH   3  16
HETATM   16  O   UNK N   1      32.129  16.215   7.800  0.00  0.00    -0.390 OA
HETATM   17  H   UNK N   1      31.616  16.869   7.301  0.00  0.00     0.210 HD
ENDBRANCH   3  16
BRANCH   4  18
HETATM   18  C   UNK N   1      34.509  18.430   7.986  0.00  0.00     0.198 C 
BRANCH  18  19
HETATM   19  O   UNK N   1      35.410  19.231   8.691  0.00  0.00    -0.398 OA
HETATM   20  H   UNK N   1      36.018  19.828   8.227  0.00  0.00     0.209 HD
ENDBRANCH  18  19
ENDBRANCH   4  18
TORSDOF 4
ENDMDL
MODEL 9
REMARK VINA RESULT:      -5.4      9.756     11.575
REMARK  4 active torsions:
REMARK  status: ('A' for Active; 'I' for Inactive)
REMARK    1  A    between atoms: C_9  and  N_3 
REMARK    2  A    between atoms: C_11  and  O_16 
REMARK    3  A    between atoms: C_12  and  C_14 
REMARK    4  A    between atoms: C_14  and  O_15 
ROOT
HETATM    1  C   UNK N   1      32.836  16.383   7.383  0.00  0.00     0.269 C 
HETATM    2  C   UNK N   1      33.421  17.722   6.980  0.00  0.00     0.250 C 
HETATM    3  C   UNK N   1      34.537  17.777   7.956  0.00  0.00     0.187 C 
HETATM    4  C   UNK N   1      33.869  17.218   9.198  0.00  0.00     0.179 C 
HETATM    5  O   UNK N   1      32.795  16.392   8.791  0.00  0.00    -0.353 OA
HETATM    6  F   UNK N   1      33.882  17.737   5.677  0.00  0.00    -0.242 F 
ENDROOT
BRANCH   1   7
HETATM    7  N   UNK N   1      31.510  16.095   6.793  0.00  0.00    -0.279 N 
HETATM    8  C   UNK N   1      30.472  16.964   6.974  0.00  0.00     0.104 A 
HETATM    9  C   UNK N   1      29.231  16.735   6.385  0.00  0.00     0.092 A 
HETATM   10  C   UNK N   1      29.060  15.597   5.607  0.00  0.00     0.250 A 
HETATM   11  N   UNK N   1      30.100  14.728   5.435  0.00  0.00    -0.275 N 
HETATM   12  O   UNK N   1      27.987  15.375   5.079  0.00  0.00    -0.268 OA
HETATM   13  C   UNK N   1      31.321  14.967   6.012  0.00  0.00     0.331 A 
HETATM   14  H   UNK N   1      29.972  13.919   4.889  0.00  0.00     0.173 HD
HETATM   15  O   UNK N   1      32.230  14.175   5.832  0.00  0.00    -0.246 OA
ENDBRANCH   1   7
BRANCH   3  16
HETATM   16  O   UNK N   1      34.966  19.089   8.162  0.00  0.00    -0.390 OA
HETATM   17  H   UNK N   1      34.456  19.913   8.212  0.00  0.00     0.210 HD
ENDBRANCH   3  16
BRANCH   4  18
HETATM   18  C   UNK N   1      34.868  16.416  10.020  0.00  0.00     0.198 C 
BRANCH  18  19
HETATM   19  O   UNK N   1      35.863  17.253  10.528  0.00  0.00    -0.398 OA
HETATM   20  H   UNK N   1      36.589  16.899  11.064  0.00  0.00     0.209 HD
ENDBRANCH  18  19
ENDBRANCH   4  18
TORSDOF 4
ENDMDL
