MODEL 1
REMARK VINA RESULT:      -5.5      0.000      0.000
REMARK  9 active torsions:
REMARK  status: ('A' for Active; 'I' for Inactive)
REMARK    1  A    between atoms: C_3  and  C_2 
REMARK    2  A    between atoms: N_20  and  C_3 
REMARK    3  A    between atoms: C_7  and  C_5 
REMARK    4  A    between atoms: N_15  and  C_5 
REMARK    5  A    between atoms: N_11  and  C_8 
REMARK    6  A    between atoms: N_20  and  C_9 
REMARK    7  A    between atoms: O_21  and  C_9 
REMARK    8  A    between atoms: N_20  and  N_18 
REMARK    9  A    between atoms: O_22  and  N_18 
ROOT
HETATM    1  C   UNK N   1      29.052  16.996   7.075  0.00  0.00     0.167 C 
ENDROOT
BRANCH   1   2
HETATM    2  C   UNK N   1      30.495  17.316   7.420  0.00  0.00     0.018 A 
HETATM    3  C   UNK N   1      31.439  17.203   6.399  0.00  0.00     0.102 A 
HETATM    4  N   UNK N   1      32.750  17.467   6.639  0.00  0.00    -0.355 N 
HETATM    5  C   UNK N   1      33.173  17.847   7.871  0.00  0.00     0.078 A 
ATOM      6  HN  UNK N   1      33.426  17.380   5.880  1.00  0.00     0.166 HD
HETATM    7  C   UNK N   1      34.611  18.128   8.113  0.00  0.00     0.089 C 
HETATM    8  N   UNK N   1      32.285  17.969   8.887  0.00  0.00    -0.332 N 
HETATM    9  C   UNK N   1      30.965  17.718   8.704  0.00  0.00     0.109 A 
HETATM   10  H   UNK N   1      32.605  18.246   9.776  0.00  0.00     0.168 HD
BRANCH   9  11
HETATM   11  N   UNK N   1      30.175  17.851   9.701  0.00  0.00    -0.385 N 
HETATM   12  H   UNK N   1      30.311  18.585  10.343  0.00  0.00     0.157 HD
ATOM     13  HN  UNK N   1      29.403  17.197   9.832  1.00  0.00     0.157 HD
ENDBRANCH   9  11
ENDBRANCH   1   2
BRANCH   1  14
HETATM   14  N   UNK N   1      28.381  18.143   6.531  0.00  0.00    -0.351 N 
HETATM   15  C   UNK N   1      27.739  19.031   7.202  0.00  0.00     0.236 C 
ATOM     16  HN  UNK N   1      28.418  18.264   5.519  1.00  0.00     0.163 HD
BRANCH  15  17
HETATM   17  N   UNK N   1      27.124  20.111   6.488  0.00  0.00    -0.236 N 
BRANCH  17  18
HETATM   18  C   UNK N   1      27.674  20.449   5.185  0.00  0.00     0.169 C 
BRANCH  18  19
HETATM   19  C   UNK N   1      26.673  20.436   4.049  0.00  0.00     0.136 C 
HETATM   20 Cl   UNK N   1      26.196  18.743   3.778  0.00  0.00    -0.129 Cl
ENDBRANCH  18  19
ENDBRANCH  17  18
BRANCH  17  21
HETATM   21  N   UNK N   1      26.045  20.812   6.989  0.00  0.00    -0.205 N 
ATOM     22  HN  UNK N   1      25.336  21.162   6.345  1.00  0.00     0.216 HD
BRANCH  21  23
HETATM   23  O   UNK N   1      25.922  21.019   8.159  0.00  0.00    -0.274 OA
ATOM     24  HO  UNK N   1      26.572  20.725   8.787  1.00  0.00     0.246 HD
ENDBRANCH  21  23
ENDBRANCH  17  21
ENDBRANCH  15  17
BRANCH  15  25
HETATM   25  O   UNK N   1      27.647  18.938   8.547  0.00  0.00    -0.331 OA
HETATM   26  H   UNK N   1      27.404  18.125   8.946  0.00  0.00     0.221 HD
ENDBRANCH  15  25
ENDBRANCH   1  14
TORSDOF 9
ENDMDL
MODEL 2
REMARK VINA RESULT:      -5.5      2.847      5.919
REMARK  9 active torsions:
REMARK  status: ('A' for Active; 'I' for Inactive)
REMARK    1  A    between atoms: C_3  and  C_2 
REMARK    2  A    between atoms: N_20  and  C_3 
REMARK    3  A    between atoms: C_7  and  C_5 
REMARK    4  A    between atoms: N_15  and  C_5 
REMARK    5  A    between atoms: N_11  and  C_8 
REMARK    6  A    between atoms: N_20  and  C_9 
REMARK    7  A    between atoms: O_21  and  C_9 
REMARK    8  A    between atoms: N_20  and  N_18 
REMARK    9  A    between atoms: O_22  and  N_18 
ROOT
HETATM    1  C   UNK N   1      29.180  16.568   7.119  0.00  0.00     0.167 C 
ENDROOT
BRANCH   1   2
HETATM    2  C   UNK N   1      28.531  17.923   6.895  0.00  0.00     0.018 A 
HETATM    3  C   UNK N   1      28.569  18.447   5.604  0.00  0.00     0.102 A 
HETATM    4  N   UNK N   1      28.014  19.658   5.333  0.00  0.00    -0.355 N 
HETATM    5  C   UNK N   1      27.412  20.385   6.308  0.00  0.00     0.078 A 
ATOM      6  HN  UNK N   1      28.052  20.026   4.382  1.00  0.00     0.166 HD
HETATM    7  C   UNK N   1      26.815  21.707   5.992  0.00  0.00     0.089 C 
HETATM    8  N   UNK N   1      27.353  19.906   7.574  0.00  0.00    -0.332 N 
HETATM    9  C   UNK N   1      27.891  18.705   7.900  0.00  0.00     0.109 A 
HETATM   10  H   UNK N   1      26.912  20.443   8.272  0.00  0.00     0.168 HD
BRANCH   9  11
HETATM   11  N   UNK N   1      27.804  18.306   9.113  0.00  0.00    -0.385 N 
HETATM   12  H   UNK N   1      27.096  18.660   9.698  0.00  0.00     0.157 HD
ATOM     13  HN  UNK N   1      28.470  17.622   9.474  1.00  0.00     0.157 HD
ENDBRANCH   9  11
ENDBRANCH   1   2
BRANCH   1  14
HETATM   14  N   UNK N   1      30.570  16.707   7.449  0.00  0.00    -0.351 N 
HETATM   15  C   UNK N   1      31.061  16.782   8.634  0.00  0.00     0.236 C 
ATOM     16  HN  UNK N   1      31.229  16.749   6.671  1.00  0.00     0.163 HD
BRANCH  15  17
HETATM   17  N   UNK N   1      32.480  16.924   8.774  0.00  0.00    -0.236 N 
BRANCH  17  18
HETATM   18  C   UNK N   1      33.126  17.980   8.012  0.00  0.00     0.169 C 
BRANCH  18  19
HETATM   19  C   UNK N   1      34.141  17.502   6.995  0.00  0.00     0.136 C 
HETATM   20 Cl   UNK N   1      33.364  17.566   5.395  0.00  0.00    -0.129 Cl
ENDBRANCH  18  19
ENDBRANCH  17  18
BRANCH  17  21
HETATM   21  N   UNK N   1      33.228  16.110   9.603  0.00  0.00    -0.205 N 
ATOM     22  HN  UNK N   1      34.241  16.230   9.637  1.00  0.00     0.216 HD
BRANCH  21  23
HETATM   23  O   UNK N   1      32.718  15.268  10.280  0.00  0.00    -0.274 OA
ATOM     24  HO  UNK N   1      32.848  15.241  11.221  1.00  0.00     0.246 HD
ENDBRANCH  21  23
ENDBRANCH  17  21
ENDBRANCH  15  17
BRANCH  15  25
HETATM   25  O   UNK N   1      30.251  16.733   9.714  0.00  0.00    -0.331 OA
HETATM   26  H   UNK N   1      30.619  16.734  10.577  0.00  0.00     0.221 HD
ENDBRANCH  15  25
ENDBRANCH   1  14
TORSDOF 9
ENDMDL
MODEL 3
REMARK VINA RESULT:      -5.4      7.300      9.549
REMARK  9 active torsions:
REMARK  status: ('A' for Active; 'I' for Inactive)
REMARK    1  A    between atoms: C_3  and  C_2 
REMARK    2  A    between atoms: N_20  and  C_3 
REMARK    3  A    between atoms: C_7  and  C_5 
REMARK    4  A    between atoms: N_15  and  C_5 
REMARK    5  A    between atoms: N_11  and  C_8 
REMARK    6  A    between atoms: N_20  and  C_9 
REMARK    7  A    between atoms: O_21  and  C_9 
REMARK    8  A    between atoms: N_20  and  N_18 
REMARK    9  A    between atoms: O_22  and  N_18 
ROOT
HETATM    1  C   UNK N   1      36.796  13.353  11.852  0.00  0.00     0.167 C 
ENDROOT
BRANCH   1   2
HETATM    2  C   UNK N   1      36.423  13.066  13.295  0.00  0.00     0.018 A 
HETATM    3  C   UNK N   1      35.943  11.791  13.592  0.00  0.00     0.102 A 
HETATM    4  N   UNK N   1      35.583  11.467  14.862  0.00  0.00    -0.355 N 
HETATM    5  C   UNK N   1      35.681  12.371  15.869  0.00  0.00     0.078 A 
ATOM      6  HN  UNK N   1      35.233  10.529  15.061  1.00  0.00     0.166 HD
HETATM    7  C   UNK N   1      35.280  11.999  17.249  0.00  0.00     0.089 C 
HETATM    8  N   UNK N   1      36.146  13.620  15.619  0.00  0.00    -0.332 N 
HETATM    9  C   UNK N   1      36.519  13.997  14.371  0.00  0.00     0.109 A 
HETATM   10  H   UNK N   1      36.214  14.266  16.359  0.00  0.00     0.168 HD
BRANCH   9  11
HETATM   11  N   UNK N   1      36.950  15.188  14.197  0.00  0.00    -0.385 N 
HETATM   12  H   UNK N   1      37.902  15.343  13.998  0.00  0.00     0.157 HD
ATOM     13  HN  UNK N   1      36.309  15.978  14.265  1.00  0.00     0.157 HD
ENDBRANCH   9  11
ENDBRANCH   1   2
BRANCH   1  14
HETATM   14  N   UNK N   1      35.761  14.092  11.185  0.00  0.00    -0.351 N 
HETATM   15  C   UNK N   1      35.835  15.316  10.800  0.00  0.00     0.236 C 
ATOM     16  HN  UNK N   1      34.888  13.600  10.999  1.00  0.00     0.163 HD
BRANCH  15  17
HETATM   17  N   UNK N   1      34.696  15.894  10.151  0.00  0.00    -0.236 N 
BRANCH  17  18
HETATM   18  C   UNK N   1      34.869  17.199   9.533  0.00  0.00     0.169 C 
BRANCH  18  19
HETATM   19  C   UNK N   1      34.390  17.293   8.099  0.00  0.00     0.136 C 
HETATM   20 Cl   UNK N   1      32.847  18.179   8.110  0.00  0.00    -0.129 Cl
ENDBRANCH  18  19
ENDBRANCH  17  18
BRANCH  17  21
HETATM   21  N   UNK N   1      33.472  15.255  10.091  0.00  0.00    -0.205 N 
ATOM     22  HN  UNK N   1      33.085  15.005   9.182  1.00  0.00     0.216 HD
BRANCH  21  23
HETATM   23  O   UNK N   1      32.857  14.988  11.080  0.00  0.00    -0.274 OA
ATOM     24  HO  UNK N   1      32.111  14.400  11.057  1.00  0.00     0.246 HD
ENDBRANCH  21  23
ENDBRANCH  17  21
ENDBRANCH  15  17
BRANCH  15  25
HETATM   25  O   UNK N   1      36.961  16.032  11.010  0.00  0.00    -0.331 OA
HETATM   26  H   UNK N   1      37.533  15.810  11.719  0.00  0.00     0.221 HD
ENDBRANCH  15  25
ENDBRANCH   1  14
TORSDOF 9
ENDMDL
MODEL 4
REMARK VINA RESULT:      -5.4      7.217      9.448
REMARK  9 active torsions:
REMARK  status: ('A' for Active; 'I' for Inactive)
REMARK    1  A    between atoms: C_3  and  C_2 
REMARK    2  A    between atoms: N_20  and  C_3 
REMARK    3  A    between atoms: C_7  and  C_5 
REMARK    4  A    between atoms: N_15  and  C_5 
REMARK    5  A    between atoms: N_11  and  C_8 
REMARK    6  A    between atoms: N_20  and  C_9 
REMARK    7  A    between atoms: O_21  and  C_9 
REMARK    8  A    between atoms: N_20  and  N_18 
REMARK    9  A    between atoms: O_22  and  N_18 
ROOT
HETATM    1  C   UNK N   1      36.556  13.627  12.209  0.00  0.00     0.167 C 
ENDROOT
BRANCH   1   2
HETATM    2  C   UNK N   1      36.103  13.434  13.646  0.00  0.00     0.018 A 
HETATM    3  C   UNK N   1      36.753  14.178  14.629  0.00  0.00     0.102 A 
HETATM    4  N   UNK N   1      36.405  14.050  15.936  0.00  0.00    -0.355 N 
HETATM    5  C   UNK N   1      35.419  13.198  16.317  0.00  0.00     0.078 A 
ATOM      6  HN  UNK N   1      36.892  14.602  16.643  1.00  0.00     0.166 HD
HETATM    7  C   UNK N   1      35.055  13.070  17.750  0.00  0.00     0.089 C 
HETATM    8  N   UNK N   1      34.763  12.460  15.388  0.00  0.00    -0.332 N 
HETATM    9  C   UNK N   1      35.070  12.548  14.071  0.00  0.00     0.109 A 
HETATM   10  H   UNK N   1      34.048  11.847  15.677  0.00  0.00     0.168 HD
BRANCH   9  11
HETATM   11  N   UNK N   1      34.416  11.827  13.241  0.00  0.00    -0.385 N 
HETATM   12  H   UNK N   1      33.468  12.024  13.058  0.00  0.00     0.157 HD
ATOM     13  HN  UNK N   1      34.874  11.046  12.771  1.00  0.00     0.157 HD
ENDBRANCH   9  11
ENDBRANCH   1   2
BRANCH   1  14
HETATM   14  N   UNK N   1      35.565  14.329  11.443  0.00  0.00    -0.351 N 
HETATM   15  C   UNK N   1      35.736  15.445  10.829  0.00  0.00     0.236 C 
ATOM     16  HN  UNK N   1      34.641  13.902  11.379  1.00  0.00     0.163 HD
BRANCH  15  17
HETATM   17  N   UNK N   1      34.626  16.004  10.114  0.00  0.00    -0.236 N 
BRANCH  17  18
HETATM   18  C   UNK N   1      34.834  17.280   9.449  0.00  0.00     0.169 C 
BRANCH  18  19
HETATM   19  C   UNK N   1      34.347  17.338   8.016  0.00  0.00     0.136 C 
HETATM   20 Cl   UNK N   1      32.858  18.314   8.000  0.00  0.00    -0.129 Cl
ENDBRANCH  18  19
ENDBRANCH  17  18
BRANCH  17  21
HETATM   21  N   UNK N   1      33.401  15.371  10.034  0.00  0.00    -0.205 N 
ATOM     22  HN  UNK N   1      33.010  15.156   9.117  1.00  0.00     0.216 HD
BRANCH  21  23
HETATM   23  O   UNK N   1      32.787  15.070  11.014  0.00  0.00    -0.274 OA
ATOM     24  HO  UNK N   1      32.941  15.498  11.848  1.00  0.00     0.246 HD
ENDBRANCH  21  23
ENDBRANCH  17  21
ENDBRANCH  15  17
BRANCH  15  25
HETATM   25  O   UNK N   1      36.933  16.070  10.867  0.00  0.00    -0.331 OA
HETATM   26  H   UNK N   1      37.724  15.575  10.782  0.00  0.00     0.221 HD
ENDBRANCH  15  25
ENDBRANCH   1  14
TORSDOF 9
ENDMDL
MODEL 5
REMARK VINA RESULT:      -5.3      5.379      7.584
REMARK  9 active torsions:
REMARK  status: ('A' for Active; 'I' for Inactive)
REMARK    1  A    between atoms: C_3  and  C_2 
REMARK    2  A    between atoms: N_20  and  C_3 
REMARK    3  A    between atoms: C_7  and  C_5 
REMARK    4  A    between atoms: N_15  and  C_5 
REMARK    5  A    between atoms: N_11  and  C_8 
REMARK    6  A    between atoms: N_20  and  C_9 
REMARK    7  A    between atoms: O_21  and  C_9 
REMARK    8  A    between atoms: N_20  and  N_18 
REMARK    9  A    between atoms: O_22  and  N_18 
ROOT
HETATM    1  C   UNK N   1      24.219  20.435   3.388  0.00  0.00     0.167 C 
ENDROOT
BRANCH   1   2
HETATM    2  C   UNK N   1      25.018  19.341   4.073  0.00  0.00     0.018 A 
HETATM    3  C   UNK N   1      24.305  18.365   4.768  0.00  0.00     0.102 A 
HETATM    4  N   UNK N   1      24.955  17.359   5.410  0.00  0.00    -0.355 N 
HETATM    5  C   UNK N   1      26.310  17.279   5.391  0.00  0.00     0.078 A 
ATOM      6  HN  UNK N   1      24.417  16.654   5.914  1.00  0.00     0.166 HD
HETATM    7  C   UNK N   1      27.002  16.175   6.101  0.00  0.00     0.089 C 
HETATM    8  N   UNK N   1      27.037  18.208   4.723  0.00  0.00    -0.332 N 
HETATM    9  C   UNK N   1      26.439  19.232   4.066  0.00  0.00     0.109 A 
HETATM   10  H   UNK N   1      28.019  18.137   4.716  0.00  0.00     0.168 HD
BRANCH   9  11
HETATM   11  N   UNK N   1      27.178  20.078   3.453  0.00  0.00    -0.385 N 
HETATM   12  H   UNK N   1      26.853  20.995   3.299  0.00  0.00     0.157 HD
ATOM     13  HN  UNK N   1      28.103  19.802   3.123  1.00  0.00     0.157 HD
ENDBRANCH   9  11
ENDBRANCH   1   2
BRANCH   1  14
HETATM   14  N   UNK N   1      23.003  19.917   2.826  0.00  0.00    -0.351 N 
HETATM   15  C   UNK N   1      21.951  20.598   2.545  0.00  0.00     0.236 C 
ATOM     16  HN  UNK N   1      22.973  18.916   2.632  1.00  0.00     0.163 HD
BRANCH  15  17
HETATM   17  N   UNK N   1      20.823  19.909   1.991  0.00  0.00    -0.236 N 
BRANCH  17  18
HETATM   18  C   UNK N   1      19.959  19.191   2.913  0.00  0.00     0.169 C 
BRANCH  18  19
HETATM   19  C   UNK N   1      20.404  17.779   3.236  0.00  0.00     0.136 C 
HETATM   20 Cl   UNK N   1      20.052  16.772   1.811  0.00  0.00    -0.129 Cl
ENDBRANCH  18  19
ENDBRANCH  17  18
BRANCH  17  21
HETATM   21  N   UNK N   1      20.539  19.918   0.638  0.00  0.00    -0.205 N 
ATOM     22  HN  UNK N   1      20.105  19.098   0.215  1.00  0.00     0.216 HD
BRANCH  21  23
HETATM   23  O   UNK N   1      20.789  20.865  -0.047  0.00  0.00    -0.274 OA
ATOM     24  HO  UNK N   1      21.272  20.776  -0.860  1.00  0.00     0.246 HD
ENDBRANCH  21  23
ENDBRANCH  17  21
ENDBRANCH  15  17
BRANCH  15  25
HETATM   25  O   UNK N   1      21.916  21.929   2.773  0.00  0.00    -0.331 OA
HETATM   26  H   UNK N   1      21.975  22.256   3.650  0.00  0.00     0.221 HD
ENDBRANCH  15  25
ENDBRANCH   1  14
TORSDOF 9
ENDMDL
MODEL 6
REMARK VINA RESULT:      -5.2      7.365     10.295
REMARK  9 active torsions:
REMARK  status: ('A' for Active; 'I' for Inactive)
REMARK    1  A    between atoms: C_3  and  C_2 
REMARK    2  A    between atoms: N_20  and  C_3 
REMARK    3  A    between atoms: C_7  and  C_5 
REMARK    4  A    between atoms: N_15  and  C_5 
REMARK    5  A    between atoms: N_11  and  C_8 
REMARK    6  A    between atoms: N_20  and  C_9 
REMARK    7  A    between atoms: O_21  and  C_9 
REMARK    8  A    between atoms: N_20  and  N_18 
REMARK    9  A    between atoms: O_22  and  N_18 
ROOT
HETATM    1  C   UNK N   1      36.705  14.677  10.120  0.00  0.00     0.167 C 
ENDROOT
BRANCH   1   2
HETATM    2  C   UNK N   1      35.356  15.130   9.590  0.00  0.00     0.018 A 
HETATM    3  C   UNK N   1      34.724  14.308   8.658  0.00  0.00     0.102 A 
HETATM    4  N   UNK N   1      33.518  14.654   8.137  0.00  0.00    -0.355 N 
HETATM    5  C   UNK N   1      32.901  15.804   8.508  0.00  0.00     0.078 A 
ATOM      6  HN  UNK N   1      33.071  14.040   7.456  1.00  0.00     0.166 HD
HETATM    7  C   UNK N   1      31.585  16.167   7.924  0.00  0.00     0.089 C 
HETATM    8  N   UNK N   1      33.483  16.627   9.413  0.00  0.00    -0.332 N 
HETATM    9  C   UNK N   1      34.686  16.331   9.965  0.00  0.00     0.109 A 
HETATM   10  H   UNK N   1      33.024  17.458   9.675  0.00  0.00     0.168 HD
BRANCH   9  11
HETATM   11  N   UNK N   1      35.186  17.146  10.815  0.00  0.00    -0.385 N 
HETATM   12  H   UNK N   1      36.149  17.117  11.017  0.00  0.00     0.157 HD
ATOM     13  HN  UNK N   1      34.586  17.826  11.283  1.00  0.00     0.157 HD
ENDBRANCH   9  11
ENDBRANCH   1   2
BRANCH   1  14
HETATM   14  N   UNK N   1      36.552  13.762  11.216  0.00  0.00    -0.351 N 
HETATM   15  C   UNK N   1      36.471  14.079  12.459  0.00  0.00     0.236 C 
ATOM     16  HN  UNK N   1      36.503  12.769  10.987  1.00  0.00     0.163 HD
BRANCH  15  17
HETATM   17  N   UNK N   1      36.325  13.027  13.421  0.00  0.00    -0.236 N 
BRANCH  17  18
HETATM   18  C   UNK N   1      35.221  12.099  13.235  0.00  0.00     0.169 C 
BRANCH  18  19
HETATM   19  C   UNK N   1      35.161  10.970  14.242  0.00  0.00     0.136 C 
HETATM   20 Cl   UNK N   1      33.451  10.733  14.675  0.00  0.00    -0.129 Cl
ENDBRANCH  18  19
ENDBRANCH  17  18
BRANCH  17  21
HETATM   21  N   UNK N   1      37.190  12.871  14.486  0.00  0.00    -0.205 N 
ATOM     22  HN  UNK N   1      37.547  11.941  14.706  1.00  0.00     0.216 HD
BRANCH  21  23
HETATM   23  O   UNK N   1      37.531  13.799  15.157  0.00  0.00    -0.274 OA
ATOM     24  HO  UNK N   1      38.381  13.819  15.582  1.00  0.00     0.246 HD
ENDBRANCH  21  23
ENDBRANCH  17  21
ENDBRANCH  15  17
BRANCH  15  25
HETATM   25  O   UNK N   1      36.528  15.374  12.839  0.00  0.00    -0.331 OA
HETATM   26  H   UNK N   1      36.205  16.045  12.270  0.00  0.00     0.221 HD
ENDBRANCH  15  25
ENDBRANCH   1  14
TORSDOF 9
ENDMDL
MODEL 7
REMARK VINA RESULT:      -5.1      3.878      5.511
REMARK  9 active torsions:
REMARK  status: ('A' for Active; 'I' for Inactive)
REMARK    1  A    between atoms: C_3  and  C_2 
REMARK    2  A    between atoms: N_20  and  C_3 
REMARK    3  A    between atoms: C_7  and  C_5 
REMARK    4  A    between atoms: N_15  and  C_5 
REMARK    5  A    between atoms: N_11  and  C_8 
REMARK    6  A    between atoms: N_20  and  C_9 
REMARK    7  A    between atoms: O_21  and  C_9 
REMARK    8  A    between atoms: N_20  and  N_18 
REMARK    9  A    between atoms: O_22  and  N_18 
ROOT
HETATM    1  C   UNK N   1      26.513  19.660   3.930  0.00  0.00     0.167 C 
ENDROOT
BRANCH   1   2
HETATM    2  C   UNK N   1      27.061  19.382   5.318  0.00  0.00     0.018 A 
HETATM    3  C   UNK N   1      27.684  18.152   5.528  0.00  0.00     0.102 A 
HETATM    4  N   UNK N   1      28.192  17.834   6.747  0.00  0.00    -0.355 N 
HETATM    5  C   UNK N   1      28.106  18.700   7.788  0.00  0.00     0.078 A 
ATOM      6  HN  UNK N   1      28.645  16.929   6.882  1.00  0.00     0.166 HD
HETATM    7  C   UNK N   1      28.664  18.332   9.114  0.00  0.00     0.089 C 
HETATM    8  N   UNK N   1      27.509  19.905   7.622  0.00  0.00    -0.332 N 
HETATM    9  C   UNK N   1      26.985  20.275   6.427  0.00  0.00     0.109 A 
HETATM   10  H   UNK N   1      27.454  20.525   8.386  0.00  0.00     0.168 HD
BRANCH   9  11
HETATM   11  N   UNK N   1      26.435  21.425   6.332  0.00  0.00    -0.385 N 
HETATM   12  H   UNK N   1      26.991  22.228   6.208  0.00  0.00     0.157 HD
ATOM     13  HN  UNK N   1      25.419  21.511   6.385  1.00  0.00     0.157 HD
ENDBRANCH   9  11
ENDBRANCH   1   2
BRANCH   1  14
HETATM   14  N   UNK N   1      25.089  19.480   3.889  0.00  0.00    -0.351 N 
HETATM   15  C   UNK N   1      24.268  20.121   3.137  0.00  0.00     0.236 C 
ATOM     16  HN  UNK N   1      24.693  18.777   4.513  1.00  0.00     0.163 HD
BRANCH  15  17
HETATM   17  N   UNK N   1      22.872  19.811   3.234  0.00  0.00    -0.236 N 
BRANCH  17  18
HETATM   18  C   UNK N   1      22.494  18.681   4.068  0.00  0.00     0.169 C 
BRANCH  18  19
HETATM   19  C   UNK N   1      21.167  18.832   4.781  0.00  0.00     0.136 C 
HETATM   20 Cl   UNK N   1      21.347  18.113   6.399  0.00  0.00    -0.129 Cl
ENDBRANCH  18  19
ENDBRANCH  17  18
BRANCH  17  21
HETATM   21  N   UNK N   1      21.902  20.545   2.579  0.00  0.00    -0.205 N 
ATOM     22  HN  UNK N   1      21.258  20.069   1.948  1.00  0.00     0.216 HD
BRANCH  21  23
HETATM   23  O   UNK N   1      21.799  21.725   2.736  0.00  0.00    -0.274 OA
ATOM     24  HO  UNK N   1      22.563  22.288   2.790  1.00  0.00     0.246 HD
ENDBRANCH  21  23
ENDBRANCH  17  21
ENDBRANCH  15  17
BRANCH  15  25
HETATM   25  O   UNK N   1      24.718  21.066   2.282  0.00  0.00    -0.331 OA
HETATM   26  H   UNK N   1      25.629  21.284   2.262  0.00  0.00     0.221 HD
ENDBRANCH  15  25
ENDBRANCH   1  14
TORSDOF 9
ENDMDL
MODEL 8
REMARK VINA RESULT:      -5.1      7.875     10.802
REMARK  9 active torsions:
REMARK  status: ('A' for Active; 'I' for Inactive)
REMARK    1  A    between atoms: C_3  and  C_2 
REMARK    2  A    between atoms: N_20  and  C_3 
REMARK    3  A    between atoms: C_7  and  C_5 
REMARK    4  A    between atoms: N_15  and  C_5 
REMARK    5  A    between atoms: N_11  and  C_8 
REMARK    6  A    between atoms: N_20  and  C_9 
REMARK    7  A    between atoms: O_21  and  C_9 
REMARK    8  A    between atoms: N_20  and  N_18 
REMARK    9  A    between atoms: O_22  and  N_18 
ROOT
HETATM    1  C   UNK N   1      37.119  14.149  10.833  0.00  0.00     0.167 C 
ENDROOT
BRANCH   1   2
HETATM    2  C   UNK N   1      36.141  15.091  10.153  0.00  0.00     0.018 A 
HETATM    3  C   UNK N   1      35.765  16.239  10.851  0.00  0.00     0.102 A 
HETATM    4  N   UNK N   1      34.888  17.122  10.305  0.00  0.00    -0.355 N 
HETATM    5  C   UNK N   1      34.359  16.912   9.073  0.00  0.00     0.078 A 
ATOM      6  HN  UNK N   1      34.624  17.956  10.830  1.00  0.00     0.166 HD
HETATM    7  C   UNK N   1      33.400  17.888   8.496  0.00  0.00     0.089 C 
HETATM    8  N   UNK N   1      34.704  15.810   8.364  0.00  0.00    -0.332 N 
HETATM    9  C   UNK N   1      35.573  14.895   8.860  0.00  0.00     0.109 A 
HETATM   10  H   UNK N   1      34.313  15.670   7.471  0.00  0.00     0.168 HD
BRANCH   9  11
HETATM   11  N   UNK N   1      35.860  13.875   8.145  0.00  0.00    -0.385 N 
HETATM   12  H   UNK N   1      35.188  13.170   8.001  0.00  0.00     0.157 HD
ATOM     13  HN  UNK N   1      36.786  13.791   7.723  1.00  0.00     0.157 HD
ENDBRANCH   9  11
ENDBRANCH   1   2
BRANCH   1  14
HETATM   14  N   UNK N   1      36.920  14.133  12.255  0.00  0.00    -0.351 N 
HETATM   15  C   UNK N   1      36.294  13.229  12.920  0.00  0.00     0.236 C 
ATOM     16  HN  UNK N   1      37.312  14.911  12.786  1.00  0.00     0.163 HD
BRANCH  15  17
HETATM   17  N   UNK N   1      36.189  13.381  14.342  0.00  0.00    -0.236 N 
BRANCH  17  18
HETATM   18  C   UNK N   1      35.091  12.699  15.007  0.00  0.00     0.169 C 
BRANCH  18  19
HETATM   19  C   UNK N   1      34.770  13.213  16.395  0.00  0.00     0.136 C 
HETATM   20 Cl   UNK N   1      35.356  12.002  17.560  0.00  0.00    -0.129 Cl
ENDBRANCH  18  19
ENDBRANCH  17  18
BRANCH  17  21
HETATM   21  N   UNK N   1      37.088  14.130  15.076  0.00  0.00    -0.205 N 
ATOM     22  HN  UNK N   1      37.622  13.680  15.819  1.00  0.00     0.216 HD
BRANCH  21  23
HETATM   23  O   UNK N   1      37.256  15.294  14.861  0.00  0.00    -0.274 OA
ATOM     24  HO  UNK N   1      37.247  15.642  13.977  1.00  0.00     0.246 HD
ENDBRANCH  21  23
ENDBRANCH  17  21
ENDBRANCH  15  17
BRANCH  15  25
HETATM   25  O   UNK N   1      35.748  12.168  12.286  0.00  0.00    -0.331 OA
HETATM   26  H   UNK N   1      36.274  11.640  11.717  0.00  0.00     0.221 HD
ENDBRANCH  15  25
ENDBRANCH   1  14
TORSDOF 9
ENDMDL
MODEL 9
REMARK VINA RESULT:      -5.1      3.529      6.421
REMARK  9 active torsions:
REMARK  status: ('A' for Active; 'I' for Inactive)
REMARK    1  A    between atoms: C_3  and  C_2 
REMARK    2  A    between atoms: N_20  and  C_3 
REMARK    3  A    between atoms: C_7  and  C_5 
REMARK    4  A    between atoms: N_15  and  C_5 
REMARK    5  A    between atoms: N_11  and  C_8 
REMARK    6  A    between atoms: N_20  and  C_9 
REMARK    7  A    between atoms: O_21  and  C_9 
REMARK    8  A    between atoms: N_20  and  N_18 
REMARK    9  A    between atoms: O_22  and  N_18 
ROOT
HETATM    1  C   UNK N   1      29.790  16.666   7.000  0.00  0.00     0.167 C 
ENDROOT
BRANCH   1   2
HETATM    2  C   UNK N   1      28.902  17.898   7.009  0.00  0.00     0.018 A 
HETATM    3  C   UNK N   1      28.654  18.518   5.785  0.00  0.00     0.102 A 
HETATM    4  N   UNK N   1      27.874  19.629   5.719  0.00  0.00    -0.355 N 
HETATM    5  C   UNK N   1      27.320  20.161   6.837  0.00  0.00     0.078 A 
ATOM      6  HN  UNK N   1      27.704  20.070   4.814  1.00  0.00     0.166 HD
HETATM    7  C   UNK N   1      26.474  21.378   6.745  0.00  0.00     0.089 C 
HETATM    8  N   UNK N   1      27.537  19.585   8.044  0.00  0.00    -0.332 N 
HETATM    9  C   UNK N   1      28.306  18.475   8.168  0.00  0.00     0.109 A 
HETATM   10  H   UNK N   1      27.128  19.980   8.848  0.00  0.00     0.168 HD
BRANCH   9  11
HETATM   11  N   UNK N   1      28.475  17.976   9.334  0.00  0.00    -0.385 N 
HETATM   12  H   UNK N   1      29.229  17.365   9.504  0.00  0.00     0.157 HD
ATOM     13  HN  UNK N   1      27.828  18.209  10.087  1.00  0.00     0.157 HD
ENDBRANCH   9  11
ENDBRANCH   1   2
BRANCH   1  14
HETATM   14  N   UNK N   1      31.166  17.016   7.213  0.00  0.00    -0.351 N 
HETATM   15  C   UNK N   1      31.815  16.892   8.315  0.00  0.00     0.236 C 
ATOM     16  HN  UNK N   1      31.675  17.397   6.415  1.00  0.00     0.163 HD
BRANCH  15  17
HETATM   17  N   UNK N   1      33.189  17.300   8.344  0.00  0.00    -0.236 N 
BRANCH  17  18
HETATM   18  C   UNK N   1      34.051  16.676   9.335  0.00  0.00     0.169 C 
BRANCH  18  19
HETATM   19  C   UNK N   1      34.794  15.449   8.850  0.00  0.00     0.136 C 
HETATM   20 Cl   UNK N   1      33.824  14.027   9.299  0.00  0.00    -0.129 Cl
ENDBRANCH  18  19
ENDBRANCH  17  18
BRANCH  17  21
HETATM   21  N   UNK N   1      33.703  18.239   7.470  0.00  0.00    -0.205 N 
ATOM     22  HN  UNK N   1      33.676  19.226   7.727  1.00  0.00     0.216 HD
BRANCH  21  23
HETATM   23  O   UNK N   1      34.177  17.923   6.420  0.00  0.00    -0.274 OA
ATOM     24  HO  UNK N   1      34.703  18.528   5.910  1.00  0.00     0.246 HD
ENDBRANCH  21  23
ENDBRANCH  17  21
ENDBRANCH  15  17
BRANCH  15  25
HETATM   25  O   UNK N   1      31.208  16.394   9.414  0.00  0.00    -0.331 OA
HETATM   26  H   UNK N   1      31.070  15.470   9.496  0.00  0.00     0.221 HD
ENDBRANCH  15  25
ENDBRANCH   1  14
TORSDOF 9
ENDMDL
