MODEL 1
REMARK VINA RESULT:      -7.4      0.000      0.000
REMARK WARNING: 32 MAX_TORS EXCEEDED!!!
REMARK  47 active torsions:
REMARK  status: ('A' for Active; 'I' for Inactive)
REMARK    1  A    between atoms: C_2  and  C_3 
REMARK    2  A    between atoms: C_2  and  N_34 
REMARK       I    between atoms: C_3  and  N_5 
REMARK    3  A    between atoms: C_6  and  N_5 
REMARK    4  A    between atoms: C_6  and  C_7 
REMARK    5  A    between atoms: C_6  and  C_11 
REMARK    6  A    between atoms: C_7  and  C_8 
REMARK       I    between atoms: C_11  and  N_13 
REMARK    7  A    between atoms: C_14  and  N_13 
REMARK    8  A    between atoms: C_14  and  C_15 
REMARK    9  A    between atoms: C_14  and  C_19 
REMARK   10  A    between atoms: C_15  and  C_16 
REMARK       I    between atoms: C_16  and  N_18 
REMARK       I    between atoms: C_19  and  N_21 
REMARK   11  A    between atoms: C_22  and  N_21 
REMARK   12  A    between atoms: C_22  and  C_23 
REMARK   13  A    between atoms: C_22  and  C_25 
REMARK   14  A    between atoms: C_23  and  O_24 
REMARK       I    between atoms: C_25  and  N_27 
REMARK   15  A    between atoms: C_28  and  N_27 
REMARK   16  A    between atoms: C_28  and  C_29 
REMARK   17  A    between atoms: C_28  and  C_31 
REMARK   18  A    between atoms: C_29  and  O_30 
REMARK   19  A    between atoms: C_31  and  O_33 
REMARK       I    between atoms: N_34  and  C_35 
REMARK   20  A    between atoms: C_35  and  C_37 
REMARK   21  A    between atoms: C_37  and  C_38 
REMARK   22  A    between atoms: C_37  and  N_46 
REMARK   23  A    between atoms: C_38  and  C_39 
REMARK   24  A    between atoms: C_39  and  C_40 
REMARK   25  A    between atoms: C_40  and  N_41 
REMARK       I    between atoms: N_41  and  C_42 
REMARK       I    between atoms: C_42  and  N_45 
REMARK       I    between atoms: N_46  and  C_47 
REMARK   26  A    between atoms: C_47  and  C_49 
REMARK   27  A    between atoms: C_49  and  C_50 
REMARK   28  A    between atoms: C_49  and  N_55 
REMARK   29  A    between atoms: C_50  and  C_51 
REMARK   30  A    between atoms: C_51  and  C_52 
REMARK   31  A    between atoms: C_52  and  O_54 
REMARK       I    between atoms: N_55  and  C_56 
REMARK   32  A    between atoms: C_56  and  C_58 
REMARK   33  A    between atoms: C_58  and  C_59 
REMARK   34  A    between atoms: C_58  and  N_63 
REMARK   35  A    between atoms: C_59  and  C_60 
REMARK       I    between atoms: N_63  and  C_64 
REMARK   36  A    between atoms: C_64  and  C_66 
REMARK   37  A    between atoms: C_66  and  C_67 
REMARK   38  A    between atoms: C_66  and  N_72 
REMARK   39  A    between atoms: C_67  and  C_68 
REMARK   40  A    between atoms: C_68  and  C_69 
REMARK       I    between atoms: C_69  and  N_71 
REMARK       I    between atoms: N_72  and  C_73 
REMARK   41  A    between atoms: C_73  and  C_75 
REMARK   42  A    between atoms: C_75  and  C_76 
REMARK   43  A    between atoms: C_75  and  N_81 
REMARK   44  A    between atoms: C_76  and  C_77 
REMARK   45  A    between atoms: C_77  and  C_78 
REMARK   46  A    between atoms: C_78  and  O_80 
REMARK       I    between atoms: N_81  and  C_82 
REMARK   47  A    between atoms: C_84  and  C_82 
ROOT
HETATM    1  C   UNK N   1      27.111  14.976   5.005  0.00  0.00     0.176 C 
ENDROOT
BRANCH   1   2
HETATM    2  C   UNK N   1      26.975  13.507   4.667  0.00  0.00     0.241 C 
HETATM    3  N   UNK N   1      27.937  12.845   3.974  0.00  0.00    -0.346 N 
HETATM    4  H   UNK N   1      27.859  11.867   3.892  0.00  0.00     0.163 HD
HETATM    5  O   UNK N   1      26.022  12.879   5.100  0.00  0.00    -0.271 OA
BRANCH   3   6
HETATM    6  C   UNK N   1      29.073  13.490   3.348  0.00  0.00     0.172 C 
HETATM    7  C   UNK N   1      28.697  14.047   1.986  0.00  0.00     0.042 C 
BRANCH   6   8
HETATM    8  C   UNK N   1      30.383  12.719   3.308  0.00  0.00     0.240 C 
HETATM    9  O   UNK N   1      30.341  11.571   2.899  0.00  0.00    -0.271 OA
HETATM   10  N   UNK N   1      31.599  13.232   3.653  0.00  0.00    -0.346 N 
HETATM   11  H   UNK N   1      32.386  12.694   3.407  0.00  0.00     0.163 HD
BRANCH  10  12
HETATM   12  C   UNK N   1      31.866  14.483   4.344  0.00  0.00     0.177 C 
BRANCH  12  13
HETATM   13  C   UNK N   1      32.995  15.261   3.635  0.00  0.00     0.038 C 
BRANCH  13  14
HETATM   14  C   UNK N   1      32.669  16.693   3.188  0.00  0.00    -0.020 C 
HETATM   15  C   UNK N   1      31.268  16.729   2.616  0.00  0.00     0.009 C 
HETATM   16  C   UNK N   1      32.767  17.710   4.310  0.00  0.00     0.009 C 
ENDBRANCH  13  14
ENDBRANCH  12  13
BRANCH  12  17
HETATM   17  C   UNK N   1      32.239  14.134   5.749  0.00  0.00     0.241 C 
HETATM   18  O   UNK N   1      32.294  12.953   6.058  0.00  0.00    -0.271 OA
HETATM   19  N   UNK N   1      32.676  15.093   6.614  0.00  0.00    -0.346 N 
HETATM   20  H   UNK N   1      32.386  16.023   6.482  0.00  0.00     0.163 HD
BRANCH  19  21
HETATM   21  C   UNK N   1      33.556  14.779   7.722  0.00  0.00     0.185 C 
BRANCH  21  22
HETATM   22  C   UNK N   1      34.453  15.998   8.033  0.00  0.00     0.137 C 
BRANCH  22  23
HETATM   23  C   UNK N   1      35.072  16.064   9.383  0.00  0.00     0.217 C 
HETATM   24  O   UNK N   1      35.986  15.315   9.670  0.00  0.00    -0.274 OA
HETATM   25  N   UNK N   1      34.711  17.046  10.233  0.00  0.00    -0.370 N 
HETATM   26  H   UNK N   1      34.019  17.646  10.593  0.00  0.00     0.159 HD
HETATM   27  H   UNK N   1      35.530  17.268  10.733  0.00  0.00     0.159 HD
ENDBRANCH  22  23
ENDBRANCH  21  22
BRANCH  21  28
HETATM   28  C   UNK N   1      32.629  14.350   8.851  0.00  0.00     0.241 C 
HETATM   29  O   UNK N   1      31.754  15.108   9.233  0.00  0.00    -0.271 OA
HETATM   30  N   UNK N   1      32.677  13.099   9.374  0.00  0.00    -0.344 N 
HETATM   31  H   UNK N   1      31.957  12.819   9.984  0.00  0.00     0.163 HD
BRANCH  30  32
HETATM   32  C   UNK N   1      33.731  12.163   9.080  0.00  0.00     0.200 C 
BRANCH  32  33
HETATM   33  C   UNK N   1      33.152  10.760   8.885  0.00  0.00     0.199 C 
BRANCH  33  34
HETATM   34  O   UNK N   1      32.606  10.612   7.610  0.00  0.00    -0.398 OA
HETATM   35  H   UNK N   1      32.796   9.848   7.043  0.00  0.00     0.209 HD
ENDBRANCH  33  34
ENDBRANCH  32  33
BRANCH  32  36
HETATM   36  C   UNK N   1      34.649  12.137  10.265  0.00  0.00     0.243 C 
HETATM   37  O   UNK N   1      35.573  11.326  10.295  0.00  0.00    -0.271 OA
HETATM   38  N   UNK N   1      34.478  13.001  11.287  0.00  0.00    -0.343 N 
HETATM   39  H   UNK N   1      33.737  13.648  11.244  0.00  0.00     0.163 HD
BRANCH  38  40
HETATM   40  C   UNK N   1      35.347  13.011  12.447  0.00  0.00     0.206 C 
BRANCH  40  41
HETATM   41  C   UNK N   1      35.767  14.438  12.749  0.00  0.00     0.200 C 
BRANCH  41  42
HETATM   42  O   UNK N   1      36.810  14.429  13.676  0.00  0.00    -0.398 OA
HETATM   43  H   UNK N   1      37.718  14.174  13.449  0.00  0.00     0.209 HD
ENDBRANCH  41  42
ENDBRANCH  40  41
BRANCH  40  44
HETATM   44  C   UNK N   1      34.694  12.338  13.634  0.00  0.00     0.165 C 
HETATM   45  O   UNK N   1      34.291  11.188  13.556  0.00  0.00    -0.648 OA
BRANCH  44  46
HETATM   46  O   UNK N   1      34.502  13.024  14.774  0.00  0.00    -0.775 OA
HETATM   47  H   UNK N   1      34.046  13.825  14.946  0.00  0.00     0.167 HD
ENDBRANCH  44  46
ENDBRANCH  40  44
ENDBRANCH  38  40
ENDBRANCH  32  36
ENDBRANCH  30  32
ENDBRANCH  21  28
ENDBRANCH  19  21
ENDBRANCH  12  17
ENDBRANCH  10  12
ENDBRANCH   6   8
ENDBRANCH   3   6
ENDBRANCH   1   2
BRANCH   1  48
HETATM   48  C   UNK N   1      28.403  15.428   5.662  0.00  0.00     0.036 C 
BRANCH  48  49
HETATM   49  C   UNK N   1      28.853  16.736   5.025  0.00  0.00     0.023 C 
BRANCH  49  50
HETATM   50  C   UNK N   1      29.474  17.685   6.042  0.00  0.00     0.138 C 
BRANCH  50  51
HETATM   51  N   UNK N   1      28.462  18.111   6.972  0.00  0.00    -0.227 N 
HETATM   52  C   UNK N   1      28.625  17.951   8.369  0.00  0.00     0.665 C 
HETATM   53  N   UNK N   1      29.683  17.405   8.844  0.00  0.00    -0.235 N 
HETATM   54  N   UNK N   1      27.645  18.461   9.249  0.00  0.00    -0.235 N 
HETATM   55  H   UNK N   1      29.906  17.369   9.803  0.00  0.00     0.174 HD
ATOM     56  HN  UNK N   1      30.338  16.980   8.187  1.00  0.00     0.174 HD
HETATM   57  H   UNK N   1      26.982  19.113   8.926  0.00  0.00     0.174 HD
HETATM   58  H   UNK N   1      27.627  18.164  10.188  0.00  0.00     0.174 HD
HETATM   59  H   UNK N   1      27.638  18.524   6.628  0.00  0.00     0.177 HD
ENDBRANCH  50  51
ENDBRANCH  49  50
ENDBRANCH  48  49
ENDBRANCH   1  48
BRANCH   1  60
HETATM   60  N   UNK N   1      25.963  15.711   5.507  0.00  0.00    -0.346 N 
HETATM   61  C   UNK N   1      25.030  16.414   4.811  0.00  0.00     0.241 C 
HETATM   62  O   UNK N   1      24.051  16.827   5.409  0.00  0.00    -0.271 OA
HETATM   63  H   UNK N   1      25.843  15.698   6.485  0.00  0.00     0.163 HD
BRANCH  61  64
HETATM   64  C   UNK N   1      25.160  16.769   3.354  0.00  0.00     0.177 C 
BRANCH  64  65
HETATM   65  C   UNK N   1      26.175  17.889   3.227  0.00  0.00     0.045 C 
BRANCH  65  66
HETATM   66  C   UNK N   1      25.575  19.231   3.559  0.00  0.00     0.112 C 
BRANCH  66  67
HETATM   67  C   UNK N   1      26.242  19.802   4.761  0.00  0.00     0.139 C 
HETATM   68  O   UNK N   1      27.160  20.592   4.624  0.00  0.00    -0.650 OA
BRANCH  67  69
HETATM   69  O   UNK N   1      25.834  19.453   5.997  0.00  0.00    -0.776 OA
HETATM   70  H   UNK N   1      24.927  19.384   6.218  0.00  0.00     0.167 HD
ENDBRANCH  67  69
ENDBRANCH  66  67
ENDBRANCH  65  66
ENDBRANCH  64  65
BRANCH  64  71
HETATM   71  N   UNK N   1      25.551  15.655   2.517  0.00  0.00    -0.346 N 
HETATM   72  C   UNK N   1      24.766  14.596   2.187  0.00  0.00     0.241 C 
HETATM   73  O   UNK N   1      25.249  13.693   1.521  0.00  0.00    -0.271 OA
HETATM   74  H   UNK N   1      26.467  15.664   2.154  0.00  0.00     0.163 HD
BRANCH  72  75
HETATM   75  C   UNK N   1      23.336  14.477   2.652  0.00  0.00     0.177 C 
BRANCH  75  76
HETATM   76  C   UNK N   1      23.146  13.002   2.995  0.00  0.00     0.038 C 
BRANCH  76  77
HETATM   77  C   UNK N   1      22.065  12.330   2.176  0.00  0.00    -0.020 C 
HETATM   78  C   UNK N   1      22.715  11.283   1.298  0.00  0.00     0.009 C 
HETATM   79  C   UNK N   1      21.098  11.635   3.115  0.00  0.00     0.009 C 
ENDBRANCH  76  77
ENDBRANCH  75  76
BRANCH  75  80
HETATM   80  N   UNK N   1      22.450  14.835   1.551  0.00  0.00    -0.346 N 
HETATM   81  C   UNK N   1      21.240  15.457   1.666  0.00  0.00     0.241 C 
HETATM   82  O   UNK N   1      20.639  15.759   0.649  0.00  0.00    -0.271 OA
HETATM   83  H   UNK N   1      22.752  14.608   0.642  0.00  0.00     0.163 HD
BRANCH  81  84
HETATM   84  C   UNK N   1      20.635  15.776   3.018  0.00  0.00     0.177 C 
BRANCH  84  85
HETATM   85  C   UNK N   1      19.955  17.139   2.969  0.00  0.00     0.044 C 
BRANCH  85  86
HETATM   86  C   UNK N   1      20.999  18.244   2.847  0.00  0.00     0.105 C 
BRANCH  86  87
HETATM   87  C   UNK N   1      21.050  19.097   4.077  0.00  0.00     0.215 C 
HETATM   88  O   UNK N   1      20.605  20.232   4.060  0.00  0.00    -0.274 OA
HETATM   89  N   UNK N   1      21.552  18.594   5.220  0.00  0.00    -0.370 N 
HETATM   90  H   UNK N   1      21.381  19.049   6.075  0.00  0.00     0.159 HD
HETATM   91  H   UNK N   1      22.089  17.770   5.201  0.00  0.00     0.159 HD
ENDBRANCH  86  87
ENDBRANCH  85  86
ENDBRANCH  84  85
BRANCH  84  92
HETATM   92  N   UNK N   1      19.641  14.846   3.533  0.00  0.00    -0.346 N 
HETATM   93  C   UNK N   1      19.224  14.584   4.800  0.00  0.00     0.241 C 
HETATM   94  O   UNK N   1      18.180  13.969   4.936  0.00  0.00    -0.271 OA
HETATM   95  H   UNK N   1      19.191  14.312   2.840  0.00  0.00     0.163 HD
BRANCH  93  96
HETATM   96  C   UNK N   1      19.938  15.020   6.052  0.00  0.00     0.177 C 
BRANCH  96  97
HETATM   97  C   UNK N   1      19.469  16.350   6.620  0.00  0.00     0.045 C 
BRANCH  97  98
HETATM   98  C   UNK N   1      20.143  16.609   7.956  0.00  0.00     0.112 C 
BRANCH  98  99
HETATM   99  C   UNK N   1      19.788  17.973   8.442  0.00  0.00     0.139 C 
HETATM  100  O   UNK N   1      20.477  18.931   8.131  0.00  0.00    -0.650 OA
BRANCH  99 101
HETATM  101  O   UNK N   1      18.717  18.143   9.233  0.00  0.00    -0.776 OA
HETATM  102  H   UNK N   1      18.778  17.982  10.154  0.00  0.00     0.167 HD
ENDBRANCH  99 101
ENDBRANCH  98  99
ENDBRANCH  97  98
ENDBRANCH  96  97
BRANCH  96 103
HETATM  103  N   UNK N   1      21.381  14.937   5.921  0.00  0.00    -0.346 N 
HETATM  104  C   UNK N   1      22.146  14.025   6.583  0.00  0.00     0.241 C 
HETATM  105  O   UNK N   1      23.356  14.030   6.412  0.00  0.00    -0.271 OA
HETATM  106  H   UNK N   1      21.832  15.575   5.322  0.00  0.00     0.163 HD
BRANCH 104 107
HETATM  107  C   UNK N   1      21.532  13.011   7.522  0.00  0.00     0.177 A 
HETATM  108  C   UNK N   1      22.376  11.721   7.539  0.00  0.00     0.044 A 
HETATM  109  C   UNK N   1      22.741  11.424   8.997  0.00  0.00     0.105 A 
HETATM  110  C   UNK N   1      22.201  12.612   9.680  0.00  0.00     0.218 A 
HETATM  111  O   UNK N   1      22.327  12.806  10.878  0.00  0.00    -0.274 OA
HETATM  112  N   UNK N   1      21.555  13.465   8.884  0.00  0.00    -0.348 N 
HETATM  113  H   UNK N   1      21.143  14.304   9.193  0.00  0.00     0.163 HD
ENDBRANCH 104 107
ENDBRANCH  96 103
ENDBRANCH  93  96
ENDBRANCH  84  92
ENDBRANCH  81  84
ENDBRANCH  75  80
ENDBRANCH  72  75
ENDBRANCH  64  71
ENDBRANCH  61  64
ENDBRANCH   1  60
TORSDOF 47
ENDMDL
MODEL 2
REMARK VINA RESULT:      -7.2      2.634      6.683
REMARK WARNING: 32 MAX_TORS EXCEEDED!!!
REMARK  47 active torsions:
REMARK  status: ('A' for Active; 'I' for Inactive)
REMARK    1  A    between atoms: C_2  and  C_3 
REMARK    2  A    between atoms: C_2  and  N_34 
REMARK       I    between atoms: C_3  and  N_5 
REMARK    3  A    between atoms: C_6  and  N_5 
REMARK    4  A    between atoms: C_6  and  C_7 
REMARK    5  A    between atoms: C_6  and  C_11 
REMARK    6  A    between atoms: C_7  and  C_8 
REMARK       I    between atoms: C_11  and  N_13 
REMARK    7  A    between atoms: C_14  and  N_13 
REMARK    8  A    between atoms: C_14  and  C_15 
REMARK    9  A    between atoms: C_14  and  C_19 
REMARK   10  A    between atoms: C_15  and  C_16 
REMARK       I    between atoms: C_16  and  N_18 
REMARK       I    between atoms: C_19  and  N_21 
REMARK   11  A    between atoms: C_22  and  N_21 
REMARK   12  A    between atoms: C_22  and  C_23 
REMARK   13  A    between atoms: C_22  and  C_25 
REMARK   14  A    between atoms: C_23  and  O_24 
REMARK       I    between atoms: C_25  and  N_27 
REMARK   15  A    between atoms: C_28  and  N_27 
REMARK   16  A    between atoms: C_28  and  C_29 
REMARK   17  A    between atoms: C_28  and  C_31 
REMARK   18  A    between atoms: C_29  and  O_30 
REMARK   19  A    between atoms: C_31  and  O_33 
REMARK       I    between atoms: N_34  and  C_35 
REMARK   20  A    between atoms: C_35  and  C_37 
REMARK   21  A    between atoms: C_37  and  C_38 
REMARK   22  A    between atoms: C_37  and  N_46 
REMARK   23  A    between atoms: C_38  and  C_39 
REMARK   24  A    between atoms: C_39  and  C_40 
REMARK   25  A    between atoms: C_40  and  N_41 
REMARK       I    between atoms: N_41  and  C_42 
REMARK       I    between atoms: C_42  and  N_45 
REMARK       I    between atoms: N_46  and  C_47 
REMARK   26  A    between atoms: C_47  and  C_49 
REMARK   27  A    between atoms: C_49  and  C_50 
REMARK   28  A    between atoms: C_49  and  N_55 
REMARK   29  A    between atoms: C_50  and  C_51 
REMARK   30  A    between atoms: C_51  and  C_52 
REMARK   31  A    between atoms: C_52  and  O_54 
REMARK       I    between atoms: N_55  and  C_56 
REMARK   32  A    between atoms: C_56  and  C_58 
REMARK   33  A    between atoms: C_58  and  C_59 
REMARK   34  A    between atoms: C_58  and  N_63 
REMARK   35  A    between atoms: C_59  and  C_60 
REMARK       I    between atoms: N_63  and  C_64 
REMARK   36  A    between atoms: C_64  and  C_66 
REMARK   37  A    between atoms: C_66  and  C_67 
REMARK   38  A    between atoms: C_66  and  N_72 
REMARK   39  A    between atoms: C_67  and  C_68 
REMARK   40  A    between atoms: C_68  and  C_69 
REMARK       I    between atoms: C_69  and  N_71 
REMARK       I    between atoms: N_72  and  C_73 
REMARK   41  A    between atoms: C_73  and  C_75 
REMARK   42  A    between atoms: C_75  and  C_76 
REMARK   43  A    between atoms: C_75  and  N_81 
REMARK   44  A    between atoms: C_76  and  C_77 
REMARK   45  A    between atoms: C_77  and  C_78 
REMARK   46  A    between atoms: C_78  and  O_80 
REMARK       I    between atoms: N_81  and  C_82 
REMARK   47  A    between atoms: C_84  and  C_82 
ROOT
HETATM    1  C   UNK N   1      22.775  10.699   4.886  0.00  0.00     0.176 C 
ENDROOT
BRANCH   1   2
HETATM    2  C   UNK N   1      23.915   9.833   4.394  0.00  0.00     0.241 C 
HETATM    3  N   UNK N   1      25.081  10.375   3.955  0.00  0.00    -0.346 N 
HETATM    4  H   UNK N   1      25.832   9.767   3.767  0.00  0.00     0.163 HD
HETATM    5  O   UNK N   1      23.821   8.619   4.472  0.00  0.00    -0.271 OA
BRANCH   3   6
HETATM    6  C   UNK N   1      25.288  11.793   3.748  0.00  0.00     0.172 C 
HETATM    7  C   UNK N   1      25.743  12.072   2.327  0.00  0.00     0.042 C 
BRANCH   6   8
HETATM    8  C   UNK N   1      26.128  12.537   4.775  0.00  0.00     0.240 C 
HETATM    9  O   UNK N   1      25.553  13.341   5.487  0.00  0.00    -0.271 OA
HETATM   10  N   UNK N   1      27.462  12.335   4.981  0.00  0.00    -0.346 N 
HETATM   11  H   UNK N   1      27.844  12.741   5.793  0.00  0.00     0.163 HD
BRANCH  10  12
HETATM   12  C   UNK N   1      28.384  11.591   4.139  0.00  0.00     0.177 C 
BRANCH  12  13
HETATM   13  C   UNK N   1      28.320  10.084   4.469  0.00  0.00     0.038 C 
BRANCH  13  14
HETATM   14  C   UNK N   1      28.807   9.119   3.378  0.00  0.00    -0.020 C 
HETATM   15  C   UNK N   1      29.582   7.990   4.022  0.00  0.00     0.009 C 
HETATM   16  C   UNK N   1      27.680   8.531   2.549  0.00  0.00     0.009 C 
ENDBRANCH  13  14
ENDBRANCH  12  13
BRANCH  12  17
HETATM   17  C   UNK N   1      29.749  12.148   4.389  0.00  0.00     0.241 C 
HETATM   18  O   UNK N   1      30.537  11.479   5.042  0.00  0.00    -0.271 OA
HETATM   19  N   UNK N   1      30.164  13.285   3.763  0.00  0.00    -0.346 N 
HETATM   20  H   UNK N   1      29.493  13.946   3.479  0.00  0.00     0.163 HD
BRANCH  19  21
HETATM   21  C   UNK N   1      31.565  13.548   3.505  0.00  0.00     0.185 C 
BRANCH  21  22
HETATM   22  C   UNK N   1      31.919  13.106   2.067  0.00  0.00     0.137 C 
BRANCH  22  23
HETATM   23  C   UNK N   1      33.360  12.942   1.738  0.00  0.00     0.217 C 
HETATM   24  O   UNK N   1      34.160  12.692   2.619  0.00  0.00    -0.274 OA
HETATM   25  N   UNK N   1      33.751  12.934   0.449  0.00  0.00    -0.370 N 
HETATM   26  H   UNK N   1      33.645  13.262  -0.474  0.00  0.00     0.159 HD
HETATM   27  H   UNK N   1      34.500  12.295   0.410  0.00  0.00     0.159 HD
ENDBRANCH  22  23
ENDBRANCH  21  22
BRANCH  21  28
HETATM   28  C   UNK N   1      31.746  15.033   3.792  0.00  0.00     0.241 C 
HETATM   29  O   UNK N   1      31.091  15.850   3.170  0.00  0.00    -0.271 OA
HETATM   30  N   UNK N   1      32.541  15.470   4.801  0.00  0.00    -0.344 N 
HETATM   31  H   UNK N   1      32.501  16.421   5.049  0.00  0.00     0.163 HD
BRANCH  30  32
HETATM   32  C   UNK N   1      33.441  14.609   5.525  0.00  0.00     0.200 C 
BRANCH  32  33
HETATM   33  C   UNK N   1      32.658  13.723   6.495  0.00  0.00     0.199 C 
BRANCH  33  34
HETATM   34  O   UNK N   1      31.528  14.381   6.980  0.00  0.00    -0.398 OA
HETATM   35  H   UNK N   1      30.654  14.301   6.565  0.00  0.00     0.209 HD
ENDBRANCH  33  34
ENDBRANCH  32  33
BRANCH  32  36
HETATM   36  C   UNK N   1      34.357  15.490   6.320  0.00  0.00     0.243 C 
HETATM   37  O   UNK N   1      35.533  15.602   5.976  0.00  0.00    -0.271 OA
HETATM   38  N   UNK N   1      33.902  16.167   7.394  0.00  0.00    -0.343 N 
HETATM   39  H   UNK N   1      32.957  16.070   7.651  0.00  0.00     0.163 HD
BRANCH  38  40
HETATM   40  C   UNK N   1      34.756  17.032   8.184  0.00  0.00     0.206 C 
BRANCH  40  41
HETATM   41  C   UNK N   1      34.443  18.481   7.859  0.00  0.00     0.200 C 
BRANCH  41  42
HETATM   42  O   UNK N   1      35.315  19.313   8.561  0.00  0.00    -0.398 OA
HETATM   43  H   UNK N   1      35.171  19.574   9.484  0.00  0.00     0.209 HD
ENDBRANCH  41  42
ENDBRANCH  40  41
BRANCH  40  44
HETATM   44  C   UNK N   1      34.632  16.732   9.662  0.00  0.00     0.165 C 
HETATM   45  O   UNK N   1      35.476  17.126  10.452  0.00  0.00    -0.648 OA
BRANCH  44  46
HETATM   46  O   UNK N   1      33.615  15.976  10.111  0.00  0.00    -0.775 OA
HETATM   47  H   UNK N   1      33.233  15.188   9.777  0.00  0.00     0.167 HD
ENDBRANCH  44  46
ENDBRANCH  40  44
ENDBRANCH  38  40
ENDBRANCH  32  36
ENDBRANCH  30  32
ENDBRANCH  21  28
ENDBRANCH  19  21
ENDBRANCH  12  17
ENDBRANCH  10  12
ENDBRANCH   6   8
ENDBRANCH   3   6
ENDBRANCH   1   2
BRANCH   1  48
HETATM   48  C   UNK N   1      22.451  10.656   6.368  0.00  0.00     0.036 C 
BRANCH  48  49
HETATM   49  C   UNK N   1      23.750  10.661   7.162  0.00  0.00     0.023 C 
BRANCH  49  50
HETATM   50  C   UNK N   1      23.516  10.909   8.646  0.00  0.00     0.138 C 
BRANCH  50  51
HETATM   51  N   UNK N   1      24.460  11.887   9.119  0.00  0.00    -0.227 N 
HETATM   52  C   UNK N   1      24.489  12.295  10.474  0.00  0.00     0.665 C 
HETATM   53  N   UNK N   1      23.657  11.809  11.320  0.00  0.00    -0.235 N 
HETATM   54  N   UNK N   1      25.488  13.192  10.911  0.00  0.00    -0.235 N 
HETATM   55  H   UNK N   1      23.698  11.966  12.291  0.00  0.00     0.174 HD
ATOM     56  HN  UNK N   1      22.902  11.223  10.964  1.00  0.00     0.174 HD
HETATM   57  H   UNK N   1      26.284  13.355  10.356  0.00  0.00     0.174 HD
HETATM   58  H   UNK N   1      25.387  13.656  11.774  0.00  0.00     0.174 HD
HETATM   59  H   UNK N   1      25.102  12.279   8.485  0.00  0.00     0.177 HD
ENDBRANCH  50  51
ENDBRANCH  49  50
ENDBRANCH  48  49
ENDBRANCH   1  48
BRANCH   1  60
HETATM   60  N   UNK N   1      21.580  10.848   4.075  0.00  0.00    -0.346 N 
HETATM   61  C   UNK N   1      20.975  11.990   3.650  0.00  0.00     0.241 C 
HETATM   62  O   UNK N   1      20.067  11.898   2.841  0.00  0.00    -0.271 OA
HETATM   63  H   UNK N   1      21.147  10.009   3.794  0.00  0.00     0.163 HD
BRANCH  61  64
HETATM   64  C   UNK N   1      21.316  13.363   4.164  0.00  0.00     0.177 C 
BRANCH  64  65
HETATM   65  C   UNK N   1      22.445  13.919   3.319  0.00  0.00     0.045 C 
BRANCH  65  66
HETATM   66  C   UNK N   1      21.935  14.566   2.057  0.00  0.00     0.112 C 
BRANCH  66  67
HETATM   67  C   UNK N   1      22.465  13.843   0.867  0.00  0.00     0.139 C 
HETATM   68  O   UNK N   1      23.456  14.266   0.296  0.00  0.00    -0.650 OA
BRANCH  67  69
HETATM   69  O   UNK N   1      21.859  12.726   0.423  0.00  0.00    -0.776 OA
HETATM   70  H   UNK N   1      21.795  12.526  -0.490  0.00  0.00     0.167 HD
ENDBRANCH  67  69
ENDBRANCH  66  67
ENDBRANCH  65  66
ENDBRANCH  64  65
BRANCH  64  71
HETATM   71  N   UNK N   1      20.197  14.282   4.155  0.00  0.00    -0.346 N 
HETATM   72  C   UNK N   1      19.956  15.247   5.081  0.00  0.00     0.241 C 
HETATM   73  O   UNK N   1      18.936  15.912   4.981  0.00  0.00    -0.271 OA
HETATM   74  H   UNK N   1      19.555  14.201   3.413  0.00  0.00     0.163 HD
BRANCH  72  75
HETATM   75  C   UNK N   1      20.879  15.494   6.248  0.00  0.00     0.177 C 
BRANCH  75  76
HETATM   76  C   UNK N   1      20.354  14.604   7.371  0.00  0.00     0.038 C 
BRANCH  76  77
HETATM   77  C   UNK N   1      21.439  13.810   8.065  0.00  0.00    -0.020 C 
HETATM   78  C   UNK N   1      22.782  14.339   7.609  0.00  0.00     0.009 C 
HETATM   79  C   UNK N   1      21.324  14.024   9.562  0.00  0.00     0.009 C 
ENDBRANCH  76  77
ENDBRANCH  75  76
BRANCH  75  80
HETATM   80  N   UNK N   1      20.770  16.891   6.649  0.00  0.00    -0.346 N 
HETATM   81  C   UNK N   1      21.557  17.916   6.208  0.00  0.00     0.241 C 
HETATM   82  O   UNK N   1      21.303  19.049   6.577  0.00  0.00    -0.271 OA
HETATM   83  H   UNK N   1      20.063  17.117   7.297  0.00  0.00     0.163 HD
BRANCH  81  84
HETATM   84  C   UNK N   1      22.729  17.674   5.278  0.00  0.00     0.177 C 
BRANCH  84  85
HETATM   85  C   UNK N   1      22.244  17.652   3.833  0.00  0.00     0.044 C 
BRANCH  85  86
HETATM   86  C   UNK N   1      21.988  19.073   3.343  0.00  0.00     0.105 C 
BRANCH  86  87
HETATM   87  C   UNK N   1      20.571  19.257   2.895  0.00  0.00     0.215 C 
HETATM   88  O   UNK N   1      20.231  20.282   2.327  0.00  0.00    -0.274 OA
HETATM   89  N   UNK N   1      19.675  18.270   3.082  0.00  0.00    -0.370 N 
HETATM   90  H   UNK N   1      18.820  18.282   2.595  0.00  0.00     0.159 HD
HETATM   91  H   UNK N   1      19.876  17.536   3.706  0.00  0.00     0.159 HD
ENDBRANCH  86  87
ENDBRANCH  85  86
ENDBRANCH  84  85
BRANCH  84  92
HETATM   92  N   UNK N   1      23.819  18.637   5.325  0.00  0.00    -0.346 N 
HETATM   93  C   UNK N   1      25.148  18.505   5.070  0.00  0.00     0.241 C 
HETATM   94  O   UNK N   1      25.796  19.525   4.903  0.00  0.00    -0.271 OA
HETATM   95  H   UNK N   1      23.546  19.544   5.589  0.00  0.00     0.163 HD
BRANCH  93  96
HETATM   96  C   UNK N   1      25.879  17.194   4.947  0.00  0.00     0.177 C 
BRANCH  96  97
HETATM   97  C   UNK N   1      25.462  16.343   3.759  0.00  0.00     0.045 C 
BRANCH  97  98
HETATM   98  C   UNK N   1      26.516  16.422   2.670  0.00  0.00     0.112 C 
BRANCH  98  99
HETATM   99  C   UNK N   1      27.587  15.420   2.933  0.00  0.00     0.139 C 
HETATM  100  O   UNK N   1      27.933  14.648   2.053  0.00  0.00    -0.650 OA
BRANCH  99 101
HETATM  101  O   UNK N   1      28.164  15.359   4.144  0.00  0.00    -0.776 OA
HETATM  102  H   UNK N   1      28.559  14.563   4.441  0.00  0.00     0.167 HD
ENDBRANCH  99 101
ENDBRANCH  98  99
ENDBRANCH  97  98
ENDBRANCH  96  97
BRANCH  96 103
HETATM  103  N   UNK N   1      25.898  16.455   6.196  0.00  0.00    -0.346 N 
HETATM  104  C   UNK N   1      26.908  16.539   7.106  0.00  0.00     0.241 C 
HETATM  105  O   UNK N   1      26.838  15.878   8.131  0.00  0.00    -0.271 OA
HETATM  106  H   UNK N   1      25.140  15.859   6.395  0.00  0.00     0.163 HD
BRANCH 104 107
HETATM  107  C   UNK N   1      28.107  17.431   6.875  0.00  0.00     0.177 A 
HETATM  108  C   UNK N   1      28.148  18.553   7.931  0.00  0.00     0.044 A 
HETATM  109  C   UNK N   1      29.520  18.504   8.609  0.00  0.00     0.105 A 
HETATM  110  C   UNK N   1      30.105  17.299   7.997  0.00  0.00     0.218 A 
HETATM  111  O   UNK N   1      31.200  16.859   8.306  0.00  0.00    -0.274 OA
HETATM  112  N   UNK N   1      29.341  16.722   7.067  0.00  0.00    -0.348 N 
HETATM  113  H   UNK N   1      29.593  15.909   6.572  0.00  0.00     0.163 HD
ENDBRANCH 104 107
ENDBRANCH  96 103
ENDBRANCH  93  96
ENDBRANCH  84  92
ENDBRANCH  81  84
ENDBRANCH  75  80
ENDBRANCH  72  75
ENDBRANCH  64  71
ENDBRANCH  61  64
ENDBRANCH   1  60
TORSDOF 47
ENDMDL
MODEL 3
REMARK VINA RESULT:      -7.1      2.196      4.190
REMARK WARNING: 32 MAX_TORS EXCEEDED!!!
REMARK  47 active torsions:
REMARK  status: ('A' for Active; 'I' for Inactive)
REMARK    1  A    between atoms: C_2  and  C_3 
REMARK    2  A    between atoms: C_2  and  N_34 
REMARK       I    between atoms: C_3  and  N_5 
REMARK    3  A    between atoms: C_6  and  N_5 
REMARK    4  A    between atoms: C_6  and  C_7 
REMARK    5  A    between atoms: C_6  and  C_11 
REMARK    6  A    between atoms: C_7  and  C_8 
REMARK       I    between atoms: C_11  and  N_13 
REMARK    7  A    between atoms: C_14  and  N_13 
REMARK    8  A    between atoms: C_14  and  C_15 
REMARK    9  A    between atoms: C_14  and  C_19 
REMARK   10  A    between atoms: C_15  and  C_16 
REMARK       I    between atoms: C_16  and  N_18 
REMARK       I    between atoms: C_19  and  N_21 
REMARK   11  A    between atoms: C_22  and  N_21 
REMARK   12  A    between atoms: C_22  and  C_23 
REMARK   13  A    between atoms: C_22  and  C_25 
REMARK   14  A    between atoms: C_23  and  O_24 
REMARK       I    between atoms: C_25  and  N_27 
REMARK   15  A    between atoms: C_28  and  N_27 
REMARK   16  A    between atoms: C_28  and  C_29 
REMARK   17  A    between atoms: C_28  and  C_31 
REMARK   18  A    between atoms: C_29  and  O_30 
REMARK   19  A    between atoms: C_31  and  O_33 
REMARK       I    between atoms: N_34  and  C_35 
REMARK   20  A    between atoms: C_35  and  C_37 
REMARK   21  A    between atoms: C_37  and  C_38 
REMARK   22  A    between atoms: C_37  and  N_46 
REMARK   23  A    between atoms: C_38  and  C_39 
REMARK   24  A    between atoms: C_39  and  C_40 
REMARK   25  A    between atoms: C_40  and  N_41 
REMARK       I    between atoms: N_41  and  C_42 
REMARK       I    between atoms: C_42  and  N_45 
REMARK       I    between atoms: N_46  and  C_47 
REMARK   26  A    between atoms: C_47  and  C_49 
REMARK   27  A    between atoms: C_49  and  C_50 
REMARK   28  A    between atoms: C_49  and  N_55 
REMARK   29  A    between atoms: C_50  and  C_51 
REMARK   30  A    between atoms: C_51  and  C_52 
REMARK   31  A    between atoms: C_52  and  O_54 
REMARK       I    between atoms: N_55  and  C_56 
REMARK   32  A    between atoms: C_56  and  C_58 
REMARK   33  A    between atoms: C_58  and  C_59 
REMARK   34  A    between atoms: C_58  and  N_63 
REMARK   35  A    between atoms: C_59  and  C_60 
REMARK       I    between atoms: N_63  and  C_64 
REMARK   36  A    between atoms: C_64  and  C_66 
REMARK   37  A    between atoms: C_66  and  C_67 
REMARK   38  A    between atoms: C_66  and  N_72 
REMARK   39  A    between atoms: C_67  and  C_68 
REMARK   40  A    between atoms: C_68  and  C_69 
REMARK       I    between atoms: C_69  and  N_71 
REMARK       I    between atoms: N_72  and  C_73 
REMARK   41  A    between atoms: C_73  and  C_75 
REMARK   42  A    between atoms: C_75  and  C_76 
REMARK   43  A    between atoms: C_75  and  N_81 
REMARK   44  A    between atoms: C_76  and  C_77 
REMARK   45  A    between atoms: C_77  and  C_78 
REMARK   46  A    between atoms: C_78  and  O_80 
REMARK       I    between atoms: N_81  and  C_82 
REMARK   47  A    between atoms: C_84  and  C_82 
ROOT
HETATM    1  C   UNK N   1      26.499  13.166   4.155  0.00  0.00     0.176 C 
ENDROOT
BRANCH   1   2
HETATM    2  C   UNK N   1      26.747  13.890   5.460  0.00  0.00     0.241 C 
HETATM    3  N   UNK N   1      27.825  14.699   5.631  0.00  0.00    -0.346 N 
HETATM    4  H   UNK N   1      27.871  15.243   6.450  0.00  0.00     0.163 HD
HETATM    5  O   UNK N   1      25.916  13.819   6.351  0.00  0.00    -0.271 OA
BRANCH   3   6
HETATM    6  C   UNK N   1      28.913  14.810   4.681  0.00  0.00     0.172 C 
HETATM    7  C   UNK N   1      30.024  13.829   5.012  0.00  0.00     0.042 C 
BRANCH   6   8
HETATM    8  C   UNK N   1      29.448  16.203   4.388  0.00  0.00     0.240 C 
HETATM    9  O   UNK N   1      29.732  16.457   3.229  0.00  0.00    -0.271 OA
HETATM   10  N   UNK N   1      29.590  17.193   5.315  0.00  0.00    -0.346 N 
HETATM   11  H   UNK N   1      29.768  18.096   4.965  0.00  0.00     0.163 HD
BRANCH  10  12
HETATM   12  C   UNK N   1      29.508  17.068   6.761  0.00  0.00     0.177 C 
BRANCH  12  13
HETATM   13  C   UNK N   1      29.032  18.394   7.392  0.00  0.00     0.038 C 
BRANCH  13  14
HETATM   14  C   UNK N   1      28.481  18.316   8.823  0.00  0.00    -0.020 C 
HETATM   15  C   UNK N   1      27.786  16.986   9.017  0.00  0.00     0.009 C 
HETATM   16  C   UNK N   1      29.551  18.471   9.888  0.00  0.00     0.009 C 
ENDBRANCH  13  14
ENDBRANCH  12  13
BRANCH  12  17
HETATM   17  C   UNK N   1      30.872  16.690   7.244  0.00  0.00     0.241 C 
HETATM   18  O   UNK N   1      31.073  15.526   7.557  0.00  0.00    -0.271 OA
HETATM   19  N   UNK N   1      31.908  17.573   7.173  0.00  0.00    -0.346 N 
HETATM   20  H   UNK N   1      31.715  18.537   7.190  0.00  0.00     0.163 HD
BRANCH  19  21
HETATM   21  C   UNK N   1      33.284  17.131   7.071  0.00  0.00     0.185 C 
BRANCH  21  22
HETATM   22  C   UNK N   1      33.811  17.402   5.644  0.00  0.00     0.137 C 
BRANCH  22  23
HETATM   23  C   UNK N   1      33.167  16.663   4.526  0.00  0.00     0.217 C 
HETATM   24  O   UNK N   1      32.936  15.474   4.636  0.00  0.00    -0.274 OA
HETATM   25  N   UNK N   1      32.716  17.342   3.453  0.00  0.00    -0.370 N 
HETATM   26  H   UNK N   1      32.811  18.088   2.818  0.00  0.00     0.159 HD
HETATM   27  H   UNK N   1      31.904  16.863   3.167  0.00  0.00     0.159 HD
ENDBRANCH  22  23
ENDBRANCH  21  22
BRANCH  21  28
HETATM   28  C   UNK N   1      34.016  17.866   8.186  0.00  0.00     0.241 C 
HETATM   29  O   UNK N   1      34.082  19.083   8.162  0.00  0.00    -0.271 OA
HETATM   30  N   UNK N   1      34.507  17.210   9.267  0.00  0.00    -0.344 N 
HETATM   31  H   UNK N   1      34.827  17.742  10.031  0.00  0.00     0.163 HD
BRANCH  30  32
HETATM   32  C   UNK N   1      34.584  15.775   9.350  0.00  0.00     0.200 C 
BRANCH  32  33
HETATM   33  C   UNK N   1      33.307  15.213   9.975  0.00  0.00     0.199 C 
BRANCH  33  34
HETATM   34  O   UNK N   1      33.499  14.898  11.320  0.00  0.00    -0.398 OA
HETATM   35  H   UNK N   1      33.891  15.518  11.954  0.00  0.00     0.209 HD
ENDBRANCH  33  34
ENDBRANCH  32  33
BRANCH  32  36
HETATM   36  C   UNK N   1      35.739  15.441  10.247  0.00  0.00     0.243 C 
HETATM   37  O   UNK N   1      36.378  16.352  10.769  0.00  0.00    -0.271 OA
HETATM   38  N   UNK N   1      36.071  14.157  10.494  0.00  0.00    -0.343 N 
HETATM   39  H   UNK N   1      35.544  13.441  10.072  0.00  0.00     0.163 HD
BRANCH  38  40
HETATM   40  C   UNK N   1      37.176  13.795  11.359  0.00  0.00     0.206 C 
BRANCH  40  41
HETATM   41  C   UNK N   1      36.641  13.413  12.727  0.00  0.00     0.200 C 
BRANCH  41  42
HETATM   42  O   UNK N   1      35.384  12.825  12.586  0.00  0.00    -0.398 OA
HETATM   43  H   UNK N   1      34.684  12.902  13.253  0.00  0.00     0.209 HD
ENDBRANCH  41  42
ENDBRANCH  40  41
BRANCH  40  44
HETATM   44  C   UNK N   1      38.025  12.703  10.745  0.00  0.00     0.165 C 
HETATM   45  O   UNK N   1      37.723  11.528  10.881  0.00  0.00    -0.648 OA
BRANCH  44  46
HETATM   46  O   UNK N   1      39.155  13.019  10.090  0.00  0.00    -0.775 OA
HETATM   47  H   UNK N   1      39.377  12.977   9.180  0.00  0.00     0.167 HD
ENDBRANCH  44  46
ENDBRANCH  40  44
ENDBRANCH  38  40
ENDBRANCH  32  36
ENDBRANCH  30  32
ENDBRANCH  21  28
ENDBRANCH  19  21
ENDBRANCH  12  17
ENDBRANCH  10  12
ENDBRANCH   6   8
ENDBRANCH   3   6
ENDBRANCH   1   2
BRANCH   1  48
HETATM   48  C   UNK N   1      26.894  11.702   4.080  0.00  0.00     0.036 C 
BRANCH  48  49
HETATM   49  C   UNK N   1      27.064  11.307   2.619  0.00  0.00     0.023 C 
BRANCH  49  50
HETATM   50  C   UNK N   1      28.470  10.800   2.321  0.00  0.00     0.138 C 
BRANCH  50  51
HETATM   51  N   UNK N   1      28.771  11.027   0.933  0.00  0.00    -0.227 N 
HETATM   52  C   UNK N   1      29.606  12.093   0.520  0.00  0.00     0.665 C 
HETATM   53  N   UNK N   1      30.108  12.900   1.381  0.00  0.00    -0.235 N 
HETATM   54  N   UNK N   1      29.944  12.226  -0.844  0.00  0.00    -0.235 N 
HETATM   55  H   UNK N   1      30.782  13.586   1.171  0.00  0.00     0.174 HD
ATOM     56  HN  UNK N   1      29.789  12.826   2.347  1.00  0.00     0.174 HD
HETATM   57  H   UNK N   1      29.802  11.476  -1.465  0.00  0.00     0.174 HD
HETATM   58  H   UNK N   1      30.324  13.073  -1.175  0.00  0.00     0.174 HD
HETATM   59  H   UNK N   1      28.389  10.425   0.255  0.00  0.00     0.177 HD
ENDBRANCH  50  51
ENDBRANCH  49  50
ENDBRANCH  48  49
ENDBRANCH   1  48
BRANCH   1  60
HETATM   60  N   UNK N   1      26.723  13.851   2.894  0.00  0.00    -0.346 N 
HETATM   61  C   UNK N   1      25.874  14.654   2.198  0.00  0.00     0.241 C 
HETATM   62  O   UNK N   1      26.312  15.265   1.237  0.00  0.00    -0.271 OA
HETATM   63  H   UNK N   1      27.610  13.718   2.488  0.00  0.00     0.163 HD
BRANCH  61  64
HETATM   64  C   UNK N   1      24.407  14.790   2.503  0.00  0.00     0.177 C 
BRANCH  64  65
HETATM   65  C   UNK N   1      24.176  16.151   3.131  0.00  0.00     0.045 C 
BRANCH  65  66
HETATM   66  C   UNK N   1      25.471  16.816   3.520  0.00  0.00     0.112 C 
BRANCH  66  67
HETATM   67  C   UNK N   1      25.320  17.487   4.841  0.00  0.00     0.139 C 
HETATM   68  O   UNK N   1      24.920  18.637   4.892  0.00  0.00    -0.650 OA
BRANCH  67  69
HETATM   69  O   UNK N   1      25.620  16.828   5.977  0.00  0.00    -0.776 OA
HETATM   70  H   UNK N   1      24.962  16.405   6.492  0.00  0.00     0.167 HD
ENDBRANCH  67  69
ENDBRANCH  66  67
ENDBRANCH  65  66
ENDBRANCH  64  65
BRANCH  64  71
HETATM   71  N   UNK N   1      23.555  14.634   1.342  0.00  0.00    -0.346 N 
HETATM   72  C   UNK N   1      22.497  13.787   1.243  0.00  0.00     0.241 C 
HETATM   73  O   UNK N   1      21.903  13.715   0.178  0.00  0.00    -0.271 OA
HETATM   74  H   UNK N   1      23.760  15.190   0.556  0.00  0.00     0.163 HD
BRANCH  72  75
HETATM   75  C   UNK N   1      22.059  12.905   2.386  0.00  0.00     0.177 C 
BRANCH  75  76
HETATM   76  C   UNK N   1      22.901  11.638   2.261  0.00  0.00     0.038 C 
BRANCH  76  77
HETATM   77  C   UNK N   1      22.828  10.746   3.481  0.00  0.00    -0.020 C 
HETATM   78  C   UNK N   1      23.771   9.581   3.276  0.00  0.00     0.009 C 
HETATM   79  C   UNK N   1      23.292  11.531   4.692  0.00  0.00     0.009 C 
ENDBRANCH  76  77
ENDBRANCH  75  76
BRANCH  75  80
HETATM   80  N   UNK N   1      20.652  12.569   2.211  0.00  0.00    -0.346 N 
HETATM   81  C   UNK N   1      19.595  13.413   2.401  0.00  0.00     0.241 C 
HETATM   82  O   UNK N   1      18.473  13.011   2.148  0.00  0.00    -0.271 OA
HETATM   83  H   UNK N   1      20.443  11.648   1.930  0.00  0.00     0.163 HD
BRANCH  81  84
HETATM   84  C   UNK N   1      19.790  14.824   2.917  0.00  0.00     0.177 C 
BRANCH  84  85
HETATM   85  C   UNK N   1      19.607  15.819   1.777  0.00  0.00     0.044 C 
BRANCH  85  86
HETATM   86  C   UNK N   1      20.683  16.896   1.840  0.00  0.00     0.105 C 
BRANCH  86  87
HETATM   87  C   UNK N   1      20.107  18.236   2.179  0.00  0.00     0.215 C 
HETATM   88  O   UNK N   1      19.465  18.391   3.204  0.00  0.00    -0.274 OA
HETATM   89  N   UNK N   1      20.333  19.286   1.368  0.00  0.00    -0.370 N 
HETATM   90  H   UNK N   1      20.164  20.201   1.689  0.00  0.00     0.159 HD
HETATM   91  H   UNK N   1      20.668  19.140   0.455  0.00  0.00     0.159 HD
ENDBRANCH  86  87
ENDBRANCH  85  86
ENDBRANCH  84  85
BRANCH  84  92
HETATM   92  N   UNK N   1      18.904  15.265   3.985  0.00  0.00    -0.346 N 
HETATM   93  C   UNK N   1      19.133  15.502   5.304  0.00  0.00     0.241 C 
HETATM   94  O   UNK N   1      18.292  16.136   5.919  0.00  0.00    -0.271 OA
HETATM   95  H   UNK N   1      17.974  15.418   3.701  0.00  0.00     0.163 HD
BRANCH  93  96
HETATM   96  C   UNK N   1      20.360  15.066   6.060  0.00  0.00     0.177 C 
BRANCH  96  97
HETATM   97  C   UNK N   1      21.659  15.690   5.576  0.00  0.00     0.045 C 
BRANCH  97  98
HETATM   98  C   UNK N   1      22.137  16.730   6.573  0.00  0.00     0.112 C 
BRANCH  98  99
HETATM   99  C   UNK N   1      21.645  18.077   6.169  0.00  0.00     0.139 C 
HETATM  100  O   UNK N   1      20.958  18.734   6.934  0.00  0.00    -0.650 OA
BRANCH  99 101
HETATM  101  O   UNK N   1      21.949  18.564   4.954  0.00  0.00    -0.776 OA
HETATM  102  H   UNK N   1      22.807  18.442   4.597  0.00  0.00     0.167 HD
ENDBRANCH  99 101
ENDBRANCH  98  99
ENDBRANCH  97  98
ENDBRANCH  96  97
BRANCH  96 103
HETATM  103  N   UNK N   1      20.440  13.623   6.197  0.00  0.00    -0.346 N 
HETATM  104  C   UNK N   1      21.061  12.999   7.236  0.00  0.00     0.241 C 
HETATM  105  O   UNK N   1      21.080  11.778   7.267  0.00  0.00    -0.271 OA
HETATM  106  H   UNK N   1      20.024  13.066   5.500  0.00  0.00     0.163 HD
BRANCH 104 107
HETATM  107  C   UNK N   1      21.725  13.782   8.346  0.00  0.00     0.177 A 
HETATM  108  C   UNK N   1      21.360  13.176   9.717  0.00  0.00     0.044 A 
HETATM  109  C   UNK N   1      22.669  12.871  10.452  0.00  0.00     0.105 A 
HETATM  110  C   UNK N   1      23.667  13.195   9.419  0.00  0.00     0.218 A 
HETATM  111  O   UNK N   1      24.866  13.039   9.578  0.00  0.00    -0.274 OA
HETATM  112  N   UNK N   1      23.155  13.682   8.286  0.00  0.00    -0.348 N 
HETATM  113  H   UNK N   1      23.695  13.941   7.504  0.00  0.00     0.163 HD
ENDBRANCH 104 107
ENDBRANCH  96 103
ENDBRANCH  93  96
ENDBRANCH  84  92
ENDBRANCH  81  84
ENDBRANCH  75  80
ENDBRANCH  72  75
ENDBRANCH  64  71
ENDBRANCH  61  64
ENDBRANCH   1  60
TORSDOF 47
ENDMDL
MODEL 4
REMARK VINA RESULT:      -7.1      2.113      4.510
REMARK WARNING: 32 MAX_TORS EXCEEDED!!!
REMARK  47 active torsions:
REMARK  status: ('A' for Active; 'I' for Inactive)
REMARK    1  A    between atoms: C_2  and  C_3 
REMARK    2  A    between atoms: C_2  and  N_34 
REMARK       I    between atoms: C_3  and  N_5 
REMARK    3  A    between atoms: C_6  and  N_5 
REMARK    4  A    between atoms: C_6  and  C_7 
REMARK    5  A    between atoms: C_6  and  C_11 
REMARK    6  A    between atoms: C_7  and  C_8 
REMARK       I    between atoms: C_11  and  N_13 
REMARK    7  A    between atoms: C_14  and  N_13 
REMARK    8  A    between atoms: C_14  and  C_15 
REMARK    9  A    between atoms: C_14  and  C_19 
REMARK   10  A    between atoms: C_15  and  C_16 
REMARK       I    between atoms: C_16  and  N_18 
REMARK       I    between atoms: C_19  and  N_21 
REMARK   11  A    between atoms: C_22  and  N_21 
REMARK   12  A    between atoms: C_22  and  C_23 
REMARK   13  A    between atoms: C_22  and  C_25 
REMARK   14  A    between atoms: C_23  and  O_24 
REMARK       I    between atoms: C_25  and  N_27 
REMARK   15  A    between atoms: C_28  and  N_27 
REMARK   16  A    between atoms: C_28  and  C_29 
REMARK   17  A    between atoms: C_28  and  C_31 
REMARK   18  A    between atoms: C_29  and  O_30 
REMARK   19  A    between atoms: C_31  and  O_33 
REMARK       I    between atoms: N_34  and  C_35 
REMARK   20  A    between atoms: C_35  and  C_37 
REMARK   21  A    between atoms: C_37  and  C_38 
REMARK   22  A    between atoms: C_37  and  N_46 
REMARK   23  A    between atoms: C_38  and  C_39 
REMARK   24  A    between atoms: C_39  and  C_40 
REMARK   25  A    between atoms: C_40  and  N_41 
REMARK       I    between atoms: N_41  and  C_42 
REMARK       I    between atoms: C_42  and  N_45 
REMARK       I    between atoms: N_46  and  C_47 
REMARK   26  A    between atoms: C_47  and  C_49 
REMARK   27  A    between atoms: C_49  and  C_50 
REMARK   28  A    between atoms: C_49  and  N_55 
REMARK   29  A    between atoms: C_50  and  C_51 
REMARK   30  A    between atoms: C_51  and  C_52 
REMARK   31  A    between atoms: C_52  and  O_54 
REMARK       I    between atoms: N_55  and  C_56 
REMARK   32  A    between atoms: C_56  and  C_58 
REMARK   33  A    between atoms: C_58  and  C_59 
REMARK   34  A    between atoms: C_58  and  N_63 
REMARK   35  A    between atoms: C_59  and  C_60 
REMARK       I    between atoms: N_63  and  C_64 
REMARK   36  A    between atoms: C_64  and  C_66 
REMARK   37  A    between atoms: C_66  and  C_67 
REMARK   38  A    between atoms: C_66  and  N_72 
REMARK   39  A    between atoms: C_67  and  C_68 
REMARK   40  A    between atoms: C_68  and  C_69 
REMARK       I    between atoms: C_69  and  N_71 
REMARK       I    between atoms: N_72  and  C_73 
REMARK   41  A    between atoms: C_73  and  C_75 
REMARK   42  A    between atoms: C_75  and  C_76 
REMARK   43  A    between atoms: C_75  and  N_81 
REMARK   44  A    between atoms: C_76  and  C_77 
REMARK   45  A    between atoms: C_77  and  C_78 
REMARK   46  A    between atoms: C_78  and  O_80 
REMARK       I    between atoms: N_81  and  C_82 
REMARK   47  A    between atoms: C_84  and  C_82 
ROOT
HETATM    1  C   UNK N   1      25.735  16.568   3.600  0.00  0.00     0.176 C 
ENDROOT
BRANCH   1   2
HETATM    2  C   UNK N   1      25.808  15.802   4.903  0.00  0.00     0.241 C 
HETATM    3  N   UNK N   1      26.849  14.976   5.185  0.00  0.00    -0.346 N 
HETATM    4  H   UNK N   1      26.911  14.602   6.094  0.00  0.00     0.163 HD
HETATM    5  O   UNK N   1      24.959  15.993   5.759  0.00  0.00    -0.271 OA
BRANCH   3   6
HETATM    6  C   UNK N   1      27.875  14.611   4.231  0.00  0.00     0.172 C 
HETATM    7  C   UNK N   1      28.495  13.271   4.586  0.00  0.00     0.042 C 
BRANCH   6   8
HETATM    8  C   UNK N   1      28.928  15.658   3.899  0.00  0.00     0.240 C 
HETATM    9  O   UNK N   1      29.167  15.852   2.719  0.00  0.00    -0.271 OA
HETATM   10  N   UNK N   1      29.585  16.419   4.821  0.00  0.00    -0.346 N 
HETATM   11  H   UNK N   1      30.100  17.182   4.470  0.00  0.00     0.163 HD
BRANCH  10  12
HETATM   12  C   UNK N   1      29.614  16.233   6.262  0.00  0.00     0.177 C 
BRANCH  12  13
HETATM   13  C   UNK N   1      29.276  17.555   6.985  0.00  0.00     0.038 C 
BRANCH  13  14
HETATM   14  C   UNK N   1      29.320  17.531   8.520  0.00  0.00    -0.020 C 
HETATM   15  C   UNK N   1      30.324  18.555   9.004  0.00  0.00     0.009 C 
HETATM   16  C   UNK N   1      27.976  17.818   9.163  0.00  0.00     0.009 C 
ENDBRANCH  13  14
ENDBRANCH  12  13
BRANCH  12  17
HETATM   17  C   UNK N   1      30.986  15.753   6.613  0.00  0.00     0.241 C 
HETATM   18  O   UNK N   1      31.154  14.554   6.785  0.00  0.00    -0.271 OA
HETATM   19  N   UNK N   1      32.054  16.599   6.571  0.00  0.00    -0.346 N 
HETATM   20  H   UNK N   1      31.906  17.562   6.705  0.00  0.00     0.163 HD
BRANCH  19  21
HETATM   21  C   UNK N   1      33.401  16.119   6.334  0.00  0.00     0.185 C 
BRANCH  21  22
HETATM   22  C   UNK N   1      33.709  16.167   4.821  0.00  0.00     0.137 C 
BRANCH  22  23
HETATM   23  C   UNK N   1      32.735  16.873   3.947  0.00  0.00     0.217 C 
HETATM   24  O   UNK N   1      32.386  18.007   4.218  0.00  0.00    -0.274 OA
HETATM   25  N   UNK N   1      32.350  16.308   2.786  0.00  0.00    -0.370 N 
HETATM   26  H   UNK N   1      32.133  15.502   2.264  0.00  0.00     0.159 HD
HETATM   27  H   UNK N   1      32.228  17.060   2.161  0.00  0.00     0.159 HD
ENDBRANCH  22  23
ENDBRANCH  21  22
BRANCH  21  28
HETATM   28  C   UNK N   1      34.289  16.996   7.207  0.00  0.00     0.241 C 
HETATM   29  O   UNK N   1      34.617  18.102   6.813  0.00  0.00    -0.271 OA
HETATM   30  N   UNK N   1      34.640  16.625   8.463  0.00  0.00    -0.344 N 
HETATM   31  H   UNK N   1      35.077  17.290   9.043  0.00  0.00     0.163 HD
BRANCH  30  32
HETATM   32  C   UNK N   1      34.405  15.305   8.989  0.00  0.00     0.200 C 
BRANCH  32  33
HETATM   33  C   UNK N   1      33.023  15.235   9.641  0.00  0.00     0.199 C 
BRANCH  33  34
HETATM   34  O   UNK N   1      32.413  14.003   9.402  0.00  0.00    -0.398 OA
HETATM   35  H   UNK N   1      31.567  13.918   8.936  0.00  0.00     0.209 HD
ENDBRANCH  33  34
ENDBRANCH  32  33
BRANCH  32  36
HETATM   36  C   UNK N   1      35.441  15.054  10.044  0.00  0.00     0.243 C 
HETATM   37  O   UNK N   1      36.444  15.765  10.084  0.00  0.00    -0.271 OA
HETATM   38  N   UNK N   1      35.277  14.069  10.950  0.00  0.00    -0.343 N 
HETATM   39  H   UNK N   1      34.466  13.514  10.907  0.00  0.00     0.163 HD
BRANCH  38  40
HETATM   40  C   UNK N   1      36.254  13.799  11.987  0.00  0.00     0.206 C 
BRANCH  40  41
HETATM   41  C   UNK N   1      35.562  13.784  13.338  0.00  0.00     0.200 C 
BRANCH  41  42
HETATM   42  O   UNK N   1      34.399  13.019  13.255  0.00  0.00    -0.398 OA
HETATM   43  H   UNK N   1      34.292  12.166  13.703  0.00  0.00     0.209 HD
ENDBRANCH  41  42
ENDBRANCH  40  41
BRANCH  40  44
HETATM   44  C   UNK N   1      37.014  12.520  11.712  0.00  0.00     0.165 C 
HETATM   45  O   UNK N   1      36.585  11.698  10.919  0.00  0.00    -0.648 OA
BRANCH  44  46
HETATM   46  O   UNK N   1      38.146  12.253  12.387  0.00  0.00    -0.775 OA
HETATM   47  H   UNK N   1      38.998  11.999  12.092  0.00  0.00     0.167 HD
ENDBRANCH  44  46
ENDBRANCH  40  44
ENDBRANCH  38  40
ENDBRANCH  32  36
ENDBRANCH  30  32
ENDBRANCH  21  28
ENDBRANCH  19  21
ENDBRANCH  12  17
ENDBRANCH  10  12
ENDBRANCH   6   8
ENDBRANCH   3   6
ENDBRANCH   1   2
BRANCH   1  48
HETATM   48  C   UNK N   1      24.878  17.820   3.569  0.00  0.00     0.036 C 
BRANCH  48  49
HETATM   49  C   UNK N   1      25.782  19.039   3.449  0.00  0.00     0.023 C 
BRANCH  49  50
HETATM   50  C   UNK N   1      26.871  19.055   4.514  0.00  0.00     0.138 C 
BRANCH  50  51
HETATM   51  N   UNK N   1      26.283  19.375   5.788  0.00  0.00    -0.227 N 
HETATM   52  C   UNK N   1      26.739  20.471   6.560  0.00  0.00     0.665 C 
HETATM   53  N   UNK N   1      27.707  21.203   6.146  0.00  0.00    -0.235 N 
HETATM   54  N   UNK N   1      26.077  20.800   7.763  0.00  0.00    -0.235 N 
HETATM   55  H   UNK N   1      27.993  22.040   6.579  0.00  0.00     0.174 HD
ATOM     56  HN  UNK N   1      28.214  20.899   5.315  1.00  0.00     0.174 HD
HETATM   57  H   UNK N   1      25.183  20.434   7.952  0.00  0.00     0.174 HD
HETATM   58  H   UNK N   1      26.511  21.398   8.414  0.00  0.00     0.174 HD
HETATM   59  H   UNK N   1      25.545  18.821   6.129  0.00  0.00     0.177 HD
ENDBRANCH  50  51
ENDBRANCH  49  50
ENDBRANCH  48  49
ENDBRANCH   1  48
BRANCH   1  60
HETATM   60  N   UNK N   1      25.685  15.847   2.340  0.00  0.00    -0.346 N 
HETATM   61  C   UNK N   1      24.652  15.145   1.801  0.00  0.00     0.241 C 
HETATM   62  O   UNK N   1      24.760  14.746   0.653  0.00  0.00    -0.271 OA
HETATM   63  H   UNK N   1      26.510  15.869   1.803  0.00  0.00     0.163 HD
BRANCH  61  64
HETATM   64  C   UNK N   1      23.402  14.777   2.554  0.00  0.00     0.177 C 
BRANCH  64  65
HETATM   65  C   UNK N   1      22.707  16.056   2.977  0.00  0.00     0.045 C 
BRANCH  65  66
HETATM   66  C   UNK N   1      21.344  16.189   2.345  0.00  0.00     0.112 C 
BRANCH  66  67
HETATM   67  C   UNK N   1      20.499  17.111   3.153  0.00  0.00     0.139 C 
HETATM   68  O   UNK N   1      20.866  18.258   3.340  0.00  0.00    -0.650 OA
BRANCH  67  69
HETATM   69  O   UNK N   1      19.331  16.685   3.672  0.00  0.00    -0.776 OA
HETATM   70  H   UNK N   1      18.582  17.244   3.731  0.00  0.00     0.167 HD
ENDBRANCH  67  69
ENDBRANCH  66  67
ENDBRANCH  65  66
ENDBRANCH  64  65
BRANCH  64  71
HETATM   71  N   UNK N   1      22.488  13.949   1.795  0.00  0.00    -0.346 N 
HETATM   72  C   UNK N   1      21.650  13.013   2.312  0.00  0.00     0.241 C 
HETATM   73  O   UNK N   1      20.977  12.342   1.544  0.00  0.00    -0.271 OA
HETATM   74  H   UNK N   1      22.472  14.076   0.818  0.00  0.00     0.163 HD
BRANCH  72  75
HETATM   75  C   UNK N   1      21.556  12.743   3.793  0.00  0.00     0.177 C 
BRANCH  75  76
HETATM   76  C   UNK N   1      21.553  11.223   3.926  0.00  0.00     0.038 C 
BRANCH  76  77
HETATM   77  C   UNK N   1      20.317  10.683   4.611  0.00  0.00    -0.020 C 
HETATM   78  C   UNK N   1      19.510   9.906   3.593  0.00  0.00     0.009 C 
HETATM   79  C   UNK N   1      20.741   9.731   5.713  0.00  0.00     0.009 C 
ENDBRANCH  76  77
ENDBRANCH  75  76
BRANCH  75  80
HETATM   80  N   UNK N   1      20.293  13.274   4.291  0.00  0.00    -0.346 N 
HETATM   81  C   UNK N   1      20.106  13.918   5.481  0.00  0.00     0.241 C 
HETATM   82  O   UNK N   1      19.003  14.371   5.733  0.00  0.00    -0.271 OA
HETATM   83  H   UNK N   1      19.502  13.159   3.716  0.00  0.00     0.163 HD
BRANCH  81  84
HETATM   84  C   UNK N   1      21.232  14.076   6.483  0.00  0.00     0.177 C 
BRANCH  84  85
HETATM   85  C   UNK N   1      21.910  15.426   6.286  0.00  0.00     0.044 C 
BRANCH  85  86
HETATM   86  C   UNK N   1      21.274  16.472   7.193  0.00  0.00     0.105 C 
BRANCH  86  87
HETATM   87  C   UNK N   1      21.540  17.863   6.706  0.00  0.00     0.215 C 
HETATM   88  O   UNK N   1      20.820  18.786   7.047  0.00  0.00    -0.274 OA
HETATM   89  N   UNK N   1      22.606  18.105   5.919  0.00  0.00    -0.370 N 
HETATM   90  H   UNK N   1      22.921  19.028   5.787  0.00  0.00     0.159 HD
HETATM   91  H   UNK N   1      23.070  17.359   5.477  0.00  0.00     0.159 HD
ENDBRANCH  86  87
ENDBRANCH  85  86
ENDBRANCH  84  85
BRANCH  84  92
HETATM   92  N   UNK N   1      20.875  14.004   7.893  0.00  0.00    -0.346 N 
HETATM   93  C   UNK N   1      21.493  13.410   8.948  0.00  0.00     0.241 C 
HETATM   94  O   UNK N   1      21.141  13.739  10.068  0.00  0.00    -0.271 OA
HETATM   95  H   UNK N   1      20.038  14.467   8.122  0.00  0.00     0.163 HD
BRANCH  93  96
HETATM   96  C   UNK N   1      22.602  12.396   8.842  0.00  0.00     0.177 C 
BRANCH  96  97
HETATM   97  C   UNK N   1      22.664  11.400   9.989  0.00  0.00     0.045 C 
BRANCH  97  98
HETATM   98  C   UNK N   1      23.649  11.880  11.039  0.00  0.00     0.112 C 
BRANCH  98  99
HETATM   99  C   UNK N   1      22.991  11.894  12.376  0.00  0.00     0.139 C 
HETATM  100  O   UNK N   1      23.663  12.015  13.388  0.00  0.00    -0.650 OA
BRANCH  99 101
HETATM  101  O   UNK N   1      21.658  11.760  12.467  0.00  0.00    -0.776 OA
HETATM  102  H   UNK N   1      21.131  11.724  11.692  0.00  0.00     0.167 HD
ENDBRANCH  99 101
ENDBRANCH  98  99
ENDBRANCH  97  98
ENDBRANCH  96  97
BRANCH  96 103
HETATM  103  N   UNK N   1      23.885  13.011   8.556  0.00  0.00    -0.346 N 
HETATM  104  C   UNK N   1      24.577  12.806   7.400  0.00  0.00     0.241 C 
HETATM  105  O   UNK N   1      25.652  13.366   7.246  0.00  0.00    -0.271 OA
HETATM  106  H   UNK N   1      24.277  13.607   9.233  0.00  0.00     0.163 HD
BRANCH 104 107
HETATM  107  C   UNK N   1      24.044  11.905   6.309  0.00  0.00     0.177 A 
HETATM  108  C   UNK N   1      24.905  12.041   5.038  0.00  0.00     0.044 A 
HETATM  109  C   UNK N   1      25.375  10.638   4.643  0.00  0.00     0.105 A 
HETATM  110  C   UNK N   1      24.869   9.833   5.767  0.00  0.00     0.218 A 
HETATM  111  O   UNK N   1      25.077   8.636   5.876  0.00  0.00    -0.274 OA
HETATM  112  N   UNK N   1      24.157  10.518   6.664  0.00  0.00    -0.348 N 
HETATM  113  H   UNK N   1      23.756  10.120   7.470  0.00  0.00     0.163 HD
ENDBRANCH 104 107
ENDBRANCH  96 103
ENDBRANCH  93  96
ENDBRANCH  84  92
ENDBRANCH  81  84
ENDBRANCH  75  80
ENDBRANCH  72  75
ENDBRANCH  64  71
ENDBRANCH  61  64
ENDBRANCH   1  60
TORSDOF 47
ENDMDL
MODEL 5
REMARK VINA RESULT:      -7.0      2.279      4.925
REMARK WARNING: 32 MAX_TORS EXCEEDED!!!
REMARK  47 active torsions:
REMARK  status: ('A' for Active; 'I' for Inactive)
REMARK    1  A    between atoms: C_2  and  C_3 
REMARK    2  A    between atoms: C_2  and  N_34 
REMARK       I    between atoms: C_3  and  N_5 
REMARK    3  A    between atoms: C_6  and  N_5 
REMARK    4  A    between atoms: C_6  and  C_7 
REMARK    5  A    between atoms: C_6  and  C_11 
REMARK    6  A    between atoms: C_7  and  C_8 
REMARK       I    between atoms: C_11  and  N_13 
REMARK    7  A    between atoms: C_14  and  N_13 
REMARK    8  A    between atoms: C_14  and  C_15 
REMARK    9  A    between atoms: C_14  and  C_19 
REMARK   10  A    between atoms: C_15  and  C_16 
REMARK       I    between atoms: C_16  and  N_18 
REMARK       I    between atoms: C_19  and  N_21 
REMARK   11  A    between atoms: C_22  and  N_21 
REMARK   12  A    between atoms: C_22  and  C_23 
REMARK   13  A    between atoms: C_22  and  C_25 
REMARK   14  A    between atoms: C_23  and  O_24 
REMARK       I    between atoms: C_25  and  N_27 
REMARK   15  A    between atoms: C_28  and  N_27 
REMARK   16  A    between atoms: C_28  and  C_29 
REMARK   17  A    between atoms: C_28  and  C_31 
REMARK   18  A    between atoms: C_29  and  O_30 
REMARK   19  A    between atoms: C_31  and  O_33 
REMARK       I    between atoms: N_34  and  C_35 
REMARK   20  A    between atoms: C_35  and  C_37 
REMARK   21  A    between atoms: C_37  and  C_38 
REMARK   22  A    between atoms: C_37  and  N_46 
REMARK   23  A    between atoms: C_38  and  C_39 
REMARK   24  A    between atoms: C_39  and  C_40 
REMARK   25  A    between atoms: C_40  and  N_41 
REMARK       I    between atoms: N_41  and  C_42 
REMARK       I    between atoms: C_42  and  N_45 
REMARK       I    between atoms: N_46  and  C_47 
REMARK   26  A    between atoms: C_47  and  C_49 
REMARK   27  A    between atoms: C_49  and  C_50 
REMARK   28  A    between atoms: C_49  and  N_55 
REMARK   29  A    between atoms: C_50  and  C_51 
REMARK   30  A    between atoms: C_51  and  C_52 
REMARK   31  A    between atoms: C_52  and  O_54 
REMARK       I    between atoms: N_55  and  C_56 
REMARK   32  A    between atoms: C_56  and  C_58 
REMARK   33  A    between atoms: C_58  and  C_59 
REMARK   34  A    between atoms: C_58  and  N_63 
REMARK   35  A    between atoms: C_59  and  C_60 
REMARK       I    between atoms: N_63  and  C_64 
REMARK   36  A    between atoms: C_64  and  C_66 
REMARK   37  A    between atoms: C_66  and  C_67 
REMARK   38  A    between atoms: C_66  and  N_72 
REMARK   39  A    between atoms: C_67  and  C_68 
REMARK   40  A    between atoms: C_68  and  C_69 
REMARK       I    between atoms: C_69  and  N_71 
REMARK       I    between atoms: N_72  and  C_73 
REMARK   41  A    between atoms: C_73  and  C_75 
REMARK   42  A    between atoms: C_75  and  C_76 
REMARK   43  A    between atoms: C_75  and  N_81 
REMARK   44  A    between atoms: C_76  and  C_77 
REMARK   45  A    between atoms: C_77  and  C_78 
REMARK   46  A    between atoms: C_78  and  O_80 
REMARK       I    between atoms: N_81  and  C_82 
REMARK   47  A    between atoms: C_84  and  C_82 
ROOT
HETATM    1  C   UNK N   1      25.421  14.484   4.452  0.00  0.00     0.176 C 
ENDROOT
BRANCH   1   2
HETATM    2  C   UNK N   1      26.131  14.681   5.773  0.00  0.00     0.241 C 
HETATM    3  N   UNK N   1      27.470  14.900   5.835  0.00  0.00    -0.346 N 
HETATM    4  H   UNK N   1      27.860  15.147   6.705  0.00  0.00     0.163 HD
HETATM    5  O   UNK N   1      25.477  14.733   6.803  0.00  0.00    -0.271 OA
BRANCH   3   6
HETATM    6  C   UNK N   1      28.361  14.792   4.698  0.00  0.00     0.172 C 
HETATM    7  C   UNK N   1      29.271  13.585   4.836  0.00  0.00     0.042 C 
BRANCH   6   8
HETATM    8  C   UNK N   1      29.127  16.040   4.287  0.00  0.00     0.240 C 
HETATM    9  O   UNK N   1      29.350  16.189   3.097  0.00  0.00    -0.271 OA
HETATM   10  N   UNK N   1      29.538  17.019   5.143  0.00  0.00    -0.346 N 
HETATM   11  H   UNK N   1      29.855  17.855   4.731  0.00  0.00     0.163 HD
BRANCH  10  12
HETATM   12  C   UNK N   1      29.563  16.969   6.596  0.00  0.00     0.177 C 
BRANCH  12  13
HETATM   13  C   UNK N   1      29.237  18.356   7.190  0.00  0.00     0.038 C 
BRANCH  13  14
HETATM   14  C   UNK N   1      28.539  18.372   8.558  0.00  0.00    -0.020 C 
HETATM   15  C   UNK N   1      27.745  17.094   8.726  0.00  0.00     0.009 C 
HETATM   16  C   UNK N   1      29.502  18.508   9.722  0.00  0.00     0.009 C 
ENDBRANCH  13  14
ENDBRANCH  12  13
BRANCH  12  17
HETATM   17  C   UNK N   1      30.930  16.510   6.993  0.00  0.00     0.241 C 
HETATM   18  O   UNK N   1      31.115  15.312   7.151  0.00  0.00    -0.271 OA
HETATM   19  N   UNK N   1      31.980  17.378   7.010  0.00  0.00    -0.346 N 
HETATM   20  H   UNK N   1      31.806  18.335   7.155  0.00  0.00     0.163 HD
BRANCH  19  21
HETATM   21  C   UNK N   1      33.345  16.930   6.819  0.00  0.00     0.185 C 
BRANCH  21  22
HETATM   22  C   UNK N   1      33.777  17.192   5.359  0.00  0.00     0.137 C 
BRANCH  22  23
HETATM   23  C   UNK N   1      32.735  17.068   4.306  0.00  0.00     0.217 C 
HETATM   24  O   UNK N   1      32.054  18.031   4.008  0.00  0.00    -0.274 OA
HETATM   25  N   UNK N   1      32.644  15.930   3.590  0.00  0.00    -0.370 N 
HETATM   26  H   UNK N   1      32.718  14.949   3.540  0.00  0.00     0.159 HD
HETATM   27  H   UNK N   1      32.376  16.214   2.686  0.00  0.00     0.159 HD
ENDBRANCH  22  23
ENDBRANCH  21  22
BRANCH  21  28
HETATM   28  C   UNK N   1      34.152  17.668   7.878  0.00  0.00     0.241 C 
HETATM   29  O   UNK N   1      34.340  18.867   7.765  0.00  0.00    -0.271 OA
HETATM   30  N   UNK N   1      34.580  17.048   9.006  0.00  0.00    -0.344 N 
HETATM   31  H   UNK N   1      34.954  17.600   9.730  0.00  0.00     0.163 HD
BRANCH  30  32
HETATM   32  C   UNK N   1      34.512  15.622   9.196  0.00  0.00     0.200 C 
BRANCH  32  33
HETATM   33  C   UNK N   1      33.130  15.223   9.715  0.00  0.00     0.199 C 
BRANCH  33  34
HETATM   34  O   UNK N   1      33.131  15.092  11.104  0.00  0.00    -0.398 OA
HETATM   35  H   UNK N   1      33.235  14.237  11.551  0.00  0.00     0.209 HD
ENDBRANCH  33  34
ENDBRANCH  32  33
BRANCH  32  36
HETATM   36  C   UNK N   1      35.532  15.262  10.234  0.00  0.00     0.243 C 
HETATM   37  O   UNK N   1      36.240  16.145  10.715  0.00  0.00    -0.271 OA
HETATM   38  N   UNK N   1      35.670  13.986  10.651  0.00  0.00    -0.343 N 
HETATM   39  H   UNK N   1      35.091  13.293  10.259  0.00  0.00     0.163 HD
BRANCH  38  40
HETATM   40  C   UNK N   1      36.641  13.599  11.656  0.00  0.00     0.206 C 
BRANCH  40  41
HETATM   41  C   UNK N   1      35.919  12.989  12.844  0.00  0.00     0.200 C 
BRANCH  41  42
HETATM   42  O   UNK N   1      34.552  13.245  12.738  0.00  0.00    -0.398 OA
HETATM   43  H   UNK N   1      34.149  13.656  11.958  0.00  0.00     0.209 HD
ENDBRANCH  41  42
ENDBRANCH  40  41
BRANCH  40  44
HETATM   44  C   UNK N   1      37.693  12.676  11.082  0.00  0.00     0.165 C 
HETATM   45  O   UNK N   1      37.990  11.637  11.652  0.00  0.00    -0.648 OA
BRANCH  44  46
HETATM   46  O   UNK N   1      38.353  13.023   9.964  0.00  0.00    -0.775 OA
HETATM   47  H   UNK N   1      38.046  13.306   9.124  0.00  0.00     0.167 HD
ENDBRANCH  44  46
ENDBRANCH  40  44
ENDBRANCH  38  40
ENDBRANCH  32  36
ENDBRANCH  30  32
ENDBRANCH  21  28
ENDBRANCH  19  21
ENDBRANCH  12  17
ENDBRANCH  10  12
ENDBRANCH   6   8
ENDBRANCH   3   6
ENDBRANCH   1   2
BRANCH   1  48
HETATM   48  C   UNK N   1      25.313  13.067   3.917  0.00  0.00     0.036 C 
BRANCH  48  49
HETATM   49  C   UNK N   1      25.512  13.088   2.408  0.00  0.00     0.023 C 
BRANCH  49  50
HETATM   50  C   UNK N   1      26.419  11.961   1.932  0.00  0.00     0.138 C 
BRANCH  50  51
HETATM   51  N   UNK N   1      27.743  12.480   1.711  0.00  0.00    -0.227 N 
HETATM   52  C   UNK N   1      28.724  11.735   1.013  0.00  0.00     0.665 C 
HETATM   53  N   UNK N   1      28.459  10.563   0.568  0.00  0.00    -0.235 N 
HETATM   54  N   UNK N   1      29.982  12.318   0.745  0.00  0.00    -0.235 N 
HETATM   55  H   UNK N   1      29.055  10.044  -0.020  0.00  0.00     0.174 HD
ATOM     56  HN  UNK N   1      27.572  10.139   0.839  1.00  0.00     0.174 HD
HETATM   57  H   UNK N   1      30.105  13.290   0.829  0.00  0.00     0.174 HD
HETATM   58  H   UNK N   1      30.738  11.748   0.472  0.00  0.00     0.174 HD
HETATM   59  H   UNK N   1      27.971  13.374   2.053  0.00  0.00     0.177 HD
ENDBRANCH  50  51
ENDBRANCH  49  50
ENDBRANCH  48  49
ENDBRANCH   1  48
BRANCH   1  60
HETATM   60  N   UNK N   1      25.600  15.453   3.384  0.00  0.00    -0.346 N 
HETATM   61  C   UNK N   1      25.310  16.782   3.381  0.00  0.00     0.241 C 
HETATM   62  O   UNK N   1      25.687  17.454   2.436  0.00  0.00    -0.271 OA
HETATM   63  H   UNK N   1      25.983  15.100   2.548  0.00  0.00     0.163 HD
BRANCH  61  64
HETATM   64  C   UNK N   1      24.498  17.467   4.447  0.00  0.00     0.177 C 
BRANCH  64  65
HETATM   65  C   UNK N   1      25.447  18.218   5.360  0.00  0.00     0.045 C 
BRANCH  65  66
HETATM   66  C   UNK N   1      25.608  19.657   4.940  0.00  0.00     0.112 C 
BRANCH  66  67
HETATM   67  C   UNK N   1      27.044  19.952   4.678  0.00  0.00     0.139 C 
HETATM   68  O   UNK N   1      27.600  20.843   5.298  0.00  0.00    -0.650 OA
BRANCH  67  69
HETATM   69  O   UNK N   1      27.730  19.239   3.764  0.00  0.00    -0.776 OA
HETATM   70  H   UNK N   1      27.750  18.303   3.780  0.00  0.00     0.167 HD
ENDBRANCH  67  69
ENDBRANCH  66  67
ENDBRANCH  65  66
ENDBRANCH  64  65
BRANCH  64  71
HETATM   71  N   UNK N   1      23.499  18.375   3.923  0.00  0.00    -0.346 N 
HETATM   72  C   UNK N   1      22.222  18.046   3.595  0.00  0.00     0.241 C 
HETATM   73  O   UNK N   1      21.505  18.905   3.103  0.00  0.00    -0.271 OA
HETATM   74  H   UNK N   1      23.769  19.313   3.793  0.00  0.00     0.163 HD
BRANCH  72  75
HETATM   75  C   UNK N   1      21.676  16.652   3.775  0.00  0.00     0.177 C 
BRANCH  75  76
HETATM   76  C   UNK N   1      21.859  15.971   2.421  0.00  0.00     0.038 C 
BRANCH  76  77
HETATM   77  C   UNK N   1      20.552  15.633   1.738  0.00  0.00    -0.020 C 
HETATM   78  C   UNK N   1      20.275  16.688   0.690  0.00  0.00     0.009 C 
HETATM   79  C   UNK N   1      20.693  14.293   1.043  0.00  0.00     0.009 C 
ENDBRANCH  76  77
ENDBRANCH  75  76
BRANCH  75  80
HETATM   80  N   UNK N   1      20.254  16.738   4.084  0.00  0.00    -0.346 N 
HETATM   81  C   UNK N   1      19.583  15.970   4.992  0.00  0.00     0.241 C 
HETATM   82  O   UNK N   1      18.404  16.204   5.197  0.00  0.00    -0.271 OA
HETATM   83  H   UNK N   1      19.729  17.412   3.593  0.00  0.00     0.163 HD
BRANCH  81  84
HETATM   84  C   UNK N   1      20.268  14.846   5.742  0.00  0.00     0.177 C 
BRANCH  84  85
HETATM   85  C   UNK N   1      20.280  15.155   7.234  0.00  0.00     0.044 C 
BRANCH  85  86
HETATM   86  C   UNK N   1      21.160  16.367   7.514  0.00  0.00     0.105 C 
BRANCH  86  87
HETATM   87  C   UNK N   1      20.349  17.556   7.928  0.00  0.00     0.215 C 
HETATM   88  O   UNK N   1      20.658  18.676   7.554  0.00  0.00    -0.274 OA
HETATM   89  N   UNK N   1      19.249  17.386   8.685  0.00  0.00    -0.370 N 
HETATM   90  H   UNK N   1      18.591  18.113   8.767  0.00  0.00     0.159 HD
HETATM   91  H   UNK N   1      19.102  16.535   9.155  0.00  0.00     0.159 HD
ENDBRANCH  86  87
ENDBRANCH  85  86
ENDBRANCH  84  85
BRANCH  84  92
HETATM   92  N   UNK N   1      19.691  13.516   5.608  0.00  0.00    -0.346 N 
HETATM   93  C   UNK N   1      20.270  12.295   5.454  0.00  0.00     0.241 C 
HETATM   94  O   UNK N   1      19.578  11.312   5.654  0.00  0.00    -0.271 OA
HETATM   95  H   UNK N   1      18.708  13.497   5.634  0.00  0.00     0.163 HD
BRANCH  93  96
HETATM   96  C   UNK N   1      21.711  12.063   5.082  0.00  0.00     0.177 C 
BRANCH  96  97
HETATM   97  C   UNK N   1      21.980  12.008   3.587  0.00  0.00     0.045 C 
BRANCH  97  98
HETATM   98  C   UNK N   1      21.425  10.719   3.008  0.00  0.00     0.112 C 
BRANCH  98  99
HETATM   99  C   UNK N   1      22.547   9.830   2.594  0.00  0.00     0.139 C 
HETATM  100  O   UNK N   1      23.666  10.004   3.050  0.00  0.00    -0.650 OA
BRANCH  99 101
HETATM  101  O   UNK N   1      22.328   8.843   1.710  0.00  0.00    -0.776 OA
HETATM  102  H   UNK N   1      21.533   8.347   1.741  0.00  0.00     0.167 HD
ENDBRANCH  99 101
ENDBRANCH  98  99
ENDBRANCH  97  98
ENDBRANCH  96  97
BRANCH  96 103
HETATM  103  N   UNK N   1      22.293  10.947   5.804  0.00  0.00    -0.346 N 
HETATM  104  C   UNK N   1      22.894  11.068   7.020  0.00  0.00     0.241 C 
HETATM  105  O   UNK N   1      23.358  10.072   7.554  0.00  0.00    -0.271 OA
HETATM  106  H   UNK N   1      22.253  10.054   5.392  0.00  0.00     0.163 HD
BRANCH 104 107
HETATM  107  C   UNK N   1      22.998  12.405   7.720  0.00  0.00     0.177 A 
HETATM  108  C   UNK N   1      22.051  12.444   8.937  0.00  0.00     0.044 A 
HETATM  109  C   UNK N   1      22.887  12.818  10.165  0.00  0.00     0.105 A 
HETATM  110  C   UNK N   1      24.246  12.836   9.597  0.00  0.00     0.218 A 
HETATM  111  O   UNK N   1      25.245  13.043  10.267  0.00  0.00    -0.274 OA
HETATM  112  N   UNK N   1      24.302  12.610   8.284  0.00  0.00    -0.348 N 
HETATM  113  H   UNK N   1      25.138  12.587   7.763  0.00  0.00     0.163 HD
ENDBRANCH 104 107
ENDBRANCH  96 103
ENDBRANCH  93  96
ENDBRANCH  84  92
ENDBRANCH  81  84
ENDBRANCH  75  80
ENDBRANCH  72  75
ENDBRANCH  64  71
ENDBRANCH  61  64
ENDBRANCH   1  60
TORSDOF 47
ENDMDL
MODEL 6
REMARK VINA RESULT:      -6.9      1.718      2.374
REMARK WARNING: 32 MAX_TORS EXCEEDED!!!
REMARK  47 active torsions:
REMARK  status: ('A' for Active; 'I' for Inactive)
REMARK    1  A    between atoms: C_2  and  C_3 
REMARK    2  A    between atoms: C_2  and  N_34 
REMARK       I    between atoms: C_3  and  N_5 
REMARK    3  A    between atoms: C_6  and  N_5 
REMARK    4  A    between atoms: C_6  and  C_7 
REMARK    5  A    between atoms: C_6  and  C_11 
REMARK    6  A    between atoms: C_7  and  C_8 
REMARK       I    between atoms: C_11  and  N_13 
REMARK    7  A    between atoms: C_14  and  N_13 
REMARK    8  A    between atoms: C_14  and  C_15 
REMARK    9  A    between atoms: C_14  and  C_19 
REMARK   10  A    between atoms: C_15  and  C_16 
REMARK       I    between atoms: C_16  and  N_18 
REMARK       I    between atoms: C_19  and  N_21 
REMARK   11  A    between atoms: C_22  and  N_21 
REMARK   12  A    between atoms: C_22  and  C_23 
REMARK   13  A    between atoms: C_22  and  C_25 
REMARK   14  A    between atoms: C_23  and  O_24 
REMARK       I    between atoms: C_25  and  N_27 
REMARK   15  A    between atoms: C_28  and  N_27 
REMARK   16  A    between atoms: C_28  and  C_29 
REMARK   17  A    between atoms: C_28  and  C_31 
REMARK   18  A    between atoms: C_29  and  O_30 
REMARK   19  A    between atoms: C_31  and  O_33 
REMARK       I    between atoms: N_34  and  C_35 
REMARK   20  A    between atoms: C_35  and  C_37 
REMARK   21  A    between atoms: C_37  and  C_38 
REMARK   22  A    between atoms: C_37  and  N_46 
REMARK   23  A    between atoms: C_38  and  C_39 
REMARK   24  A    between atoms: C_39  and  C_40 
REMARK   25  A    between atoms: C_40  and  N_41 
REMARK       I    between atoms: N_41  and  C_42 
REMARK       I    between atoms: C_42  and  N_45 
REMARK       I    between atoms: N_46  and  C_47 
REMARK   26  A    between atoms: C_47  and  C_49 
REMARK   27  A    between atoms: C_49  and  C_50 
REMARK   28  A    between atoms: C_49  and  N_55 
REMARK   29  A    between atoms: C_50  and  C_51 
REMARK   30  A    between atoms: C_51  and  C_52 
REMARK   31  A    between atoms: C_52  and  O_54 
REMARK       I    between atoms: N_55  and  C_56 
REMARK   32  A    between atoms: C_56  and  C_58 
REMARK   33  A    between atoms: C_58  and  C_59 
REMARK   34  A    between atoms: C_58  and  N_63 
REMARK   35  A    between atoms: C_59  and  C_60 
REMARK       I    between atoms: N_63  and  C_64 
REMARK   36  A    between atoms: C_64  and  C_66 
REMARK   37  A    between atoms: C_66  and  C_67 
REMARK   38  A    between atoms: C_66  and  N_72 
REMARK   39  A    between atoms: C_67  and  C_68 
REMARK   40  A    between atoms: C_68  and  C_69 
REMARK       I    between atoms: C_69  and  N_71 
REMARK       I    between atoms: N_72  and  C_73 
REMARK   41  A    between atoms: C_73  and  C_75 
REMARK   42  A    between atoms: C_75  and  C_76 
REMARK   43  A    between atoms: C_75  and  N_81 
REMARK   44  A    between atoms: C_76  and  C_77 
REMARK   45  A    between atoms: C_77  and  C_78 
REMARK   46  A    between atoms: C_78  and  O_80 
REMARK       I    between atoms: N_81  and  C_82 
REMARK   47  A    between atoms: C_84  and  C_82 
ROOT
HETATM    1  C   UNK N   1      26.806  15.915   5.679  0.00  0.00     0.176 C 
ENDROOT
BRANCH   1   2
HETATM    2  C   UNK N   1      27.198  14.493   5.345  0.00  0.00     0.241 C 
HETATM    3  N   UNK N   1      28.397  14.200   4.777  0.00  0.00    -0.346 N 
HETATM    4  H   UNK N   1      28.654  13.253   4.697  0.00  0.00     0.163 HD
HETATM    5  O   UNK N   1      26.460  13.576   5.669  0.00  0.00    -0.271 OA
BRANCH   3   6
HETATM    6  C   UNK N   1      29.324  15.198   4.282  0.00  0.00     0.172 C 
HETATM    7  C   UNK N   1      28.734  15.945   3.099  0.00  0.00     0.042 C 
BRANCH   6   8
HETATM    8  C   UNK N   1      30.756  14.758   4.025  0.00  0.00     0.240 C 
HETATM    9  O   UNK N   1      31.031  14.393   2.894  0.00  0.00    -0.271 OA
HETATM   10  N   UNK N   1      31.757  14.786   4.951  0.00  0.00    -0.346 N 
HETATM   11  H   UNK N   1      32.671  14.654   4.610  0.00  0.00     0.163 HD
BRANCH  10  12
HETATM   12  C   UNK N   1      31.629  14.988   6.385  0.00  0.00     0.177 C 
BRANCH  12  13
HETATM   13  C   UNK N   1      31.366  16.477   6.700  0.00  0.00     0.038 C 
BRANCH  13  14
HETATM   14  C   UNK N   1      31.608  16.928   8.148  0.00  0.00    -0.020 C 
HETATM   15  C   UNK N   1      32.160  18.337   8.144  0.00  0.00     0.009 C 
HETATM   16  C   UNK N   1      30.357  16.892   9.005  0.00  0.00     0.009 C 
ENDBRANCH  13  14
ENDBRANCH  12  13
BRANCH  12  17
HETATM   17  C   UNK N   1      32.903  14.514   7.008  0.00  0.00     0.241 C 
HETATM   18  O   UNK N   1      33.959  14.842   6.488  0.00  0.00    -0.271 OA
HETATM   19  N   UNK N   1      32.897  13.883   8.216  0.00  0.00    -0.346 N 
HETATM   20  H   UNK N   1      32.092  13.390   8.493  0.00  0.00     0.163 HD
BRANCH  19  21
HETATM   21  C   UNK N   1      34.042  13.918   9.103  0.00  0.00     0.185 C 
BRANCH  21  22
HETATM   22  C   UNK N   1      33.833  15.010  10.176  0.00  0.00     0.137 C 
BRANCH  22  23
HETATM   23  C   UNK N   1      34.736  16.190  10.135  0.00  0.00     0.217 C 
HETATM   24  O   UNK N   1      34.995  16.721   9.071  0.00  0.00    -0.274 OA
HETATM   25  N   UNK N   1      35.152  16.752  11.287  0.00  0.00    -0.370 N 
HETATM   26  H   UNK N   1      35.427  16.656  12.228  0.00  0.00     0.159 HD
HETATM   27  H   UNK N   1      35.205  17.717  11.099  0.00  0.00     0.159 HD
ENDBRANCH  22  23
ENDBRANCH  21  22
BRANCH  21  28
HETATM   28  C   UNK N   1      34.170  12.498   9.637  0.00  0.00     0.241 C 
HETATM   29  O   UNK N   1      33.354  11.654   9.305  0.00  0.00    -0.271 OA
HETATM   30  N   UNK N   1      35.232  12.113  10.387  0.00  0.00    -0.344 N 
HETATM   31  H   UNK N   1      35.352  11.153  10.571  0.00  0.00     0.163 HD
BRANCH  30  32
HETATM   32  C   UNK N   1      36.192  13.040  10.927  0.00  0.00     0.200 C 
BRANCH  32  33
HETATM   33  C   UNK N   1      37.497  12.973  10.131  0.00  0.00     0.199 C 
BRANCH  33  34
HETATM   34  O   UNK N   1      38.592  13.307  10.928  0.00  0.00    -0.398 OA
HETATM   35  H   UNK N   1      39.501  13.330  10.588  0.00  0.00     0.209 HD
ENDBRANCH  33  34
ENDBRANCH  32  33
BRANCH  32  36
HETATM   36  C   UNK N   1      36.474  12.619  12.338  0.00  0.00     0.243 C 
HETATM   37  O   UNK N   1      36.839  11.465  12.561  0.00  0.00    -0.271 OA
HETATM   38  N   UNK N   1      36.345  13.493  13.358  0.00  0.00    -0.343 N 
HETATM   39  H   UNK N   1      36.058  14.414  13.160  0.00  0.00     0.163 HD
BRANCH  38  40
HETATM   40  C   UNK N   1      36.613  13.124  14.734  0.00  0.00     0.206 C 
BRANCH  40  41
HETATM   41  C   UNK N   1      37.070  14.351  15.503  0.00  0.00     0.200 C 
BRANCH  41  42
HETATM   42  O   UNK N   1      37.166  15.436  14.632  0.00  0.00    -0.398 OA
HETATM   43  H   UNK N   1      36.670  15.494  13.801  0.00  0.00     0.209 HD
ENDBRANCH  41  42
ENDBRANCH  40  41
BRANCH  40  44
HETATM   44  C   UNK N   1      35.415  12.455  15.371  0.00  0.00     0.165 C 
HETATM   45  O   UNK N   1      35.513  11.345  15.871  0.00  0.00    -0.648 OA
BRANCH  44  46
HETATM   46  O   UNK N   1      34.215  13.059  15.342  0.00  0.00    -0.775 OA
HETATM   47  H   UNK N   1      33.402  12.803  14.951  0.00  0.00     0.167 HD
ENDBRANCH  44  46
ENDBRANCH  40  44
ENDBRANCH  38  40
ENDBRANCH  32  36
ENDBRANCH  30  32
ENDBRANCH  21  28
ENDBRANCH  19  21
ENDBRANCH  12  17
ENDBRANCH  10  12
ENDBRANCH   6   8
ENDBRANCH   3   6
ENDBRANCH   1   2
BRANCH   1  48
HETATM   48  C   UNK N   1      27.763  16.723   6.538  0.00  0.00     0.036 C 
BRANCH  48  49
HETATM   49  C   UNK N   1      27.757  18.170   6.063  0.00  0.00     0.023 C 
BRANCH  49  50
HETATM   50  C   UNK N   1      28.353  19.116   7.097  0.00  0.00     0.138 C 
BRANCH  50  51
HETATM   51  N   UNK N   1      27.292  19.688   7.884  0.00  0.00    -0.227 N 
HETATM   52  C   UNK N   1      26.614  20.861   7.472  0.00  0.00     0.665 C 
HETATM   53  N   UNK N   1      26.941  21.456   6.385  0.00  0.00    -0.235 N 
HETATM   54  N   UNK N   1      25.523  21.338   8.231  0.00  0.00    -0.235 N 
HETATM   55  H   UNK N   1      26.437  22.204   5.989  0.00  0.00     0.174 HD
ATOM     56  HN  UNK N   1      27.777  21.134   5.897  1.00  0.00     0.174 HD
HETATM   57  H   UNK N   1      25.090  20.756   8.896  0.00  0.00     0.174 HD
HETATM   58  H   UNK N   1      25.195  22.256   8.093  0.00  0.00     0.174 HD
HETATM   59  H   UNK N   1      27.032  19.252   8.727  0.00  0.00     0.177 HD
ENDBRANCH  50  51
ENDBRANCH  49  50
ENDBRANCH  48  49
ENDBRANCH   1  48
BRANCH   1  60
HETATM   60  N   UNK N   1      25.419  16.233   5.970  0.00  0.00    -0.346 N 
HETATM   61  C   UNK N   1      24.395  16.457   5.103  0.00  0.00     0.241 C 
HETATM   62  O   UNK N   1      23.265  16.550   5.552  0.00  0.00    -0.271 OA
HETATM   63  H   UNK N   1      25.187  16.294   6.925  0.00  0.00     0.163 HD
BRANCH  61  64
HETATM   64  C   UNK N   1      24.578  16.659   3.622  0.00  0.00     0.177 C 
BRANCH  64  65
HETATM   65  C   UNK N   1      25.533  17.819   3.415  0.00  0.00     0.045 C 
BRANCH  65  66
HETATM   66  C   UNK N   1      24.893  19.140   3.760  0.00  0.00     0.112 C 
BRANCH  66  67
HETATM   67  C   UNK N   1      25.592  20.244   3.045  0.00  0.00     0.139 C 
HETATM   68  O   UNK N   1      25.003  20.874   2.185  0.00  0.00    -0.650 OA
BRANCH  67  69
HETATM   69  O   UNK N   1      26.869  20.550   3.348  0.00  0.00    -0.776 OA
HETATM   70  H   UNK N   1      27.571  20.395   2.748  0.00  0.00     0.167 HD
ENDBRANCH  67  69
ENDBRANCH  66  67
ENDBRANCH  65  66
ENDBRANCH  64  65
BRANCH  64  71
HETATM   71  N   UNK N   1      25.074  15.486   2.933  0.00  0.00    -0.346 N 
HETATM   72  C   UNK N   1      24.332  14.407   2.570  0.00  0.00     0.241 C 
HETATM   73  O   UNK N   1      24.897  13.458   2.047  0.00  0.00    -0.271 OA
HETATM   74  H   UNK N   1      26.032  15.469   2.706  0.00  0.00     0.163 HD
BRANCH  72  75
HETATM   75  C   UNK N   1      22.849  14.322   2.832  0.00  0.00     0.177 C 
BRANCH  75  76
HETATM   76  C   UNK N   1      22.533  12.829   2.875  0.00  0.00     0.038 C 
BRANCH  76  77
HETATM   77  C   UNK N   1      21.469  12.412   1.883  0.00  0.00    -0.020 C 
HETATM   78  C   UNK N   1      22.033  11.307   1.017  0.00  0.00     0.009 C 
HETATM   79  C   UNK N   1      20.277  11.864   2.643  0.00  0.00     0.009 C 
ENDBRANCH  76  77
ENDBRANCH  75  76
BRANCH  75  80
HETATM   80  N   UNK N   1      22.137  14.934   1.717  0.00  0.00    -0.346 N 
HETATM   81  C   UNK N   1      21.110  15.828   1.815  0.00  0.00     0.241 C 
HETATM   82  O   UNK N   1      20.656  16.312   0.792  0.00  0.00    -0.271 OA
HETATM   83  H   UNK N   1      22.424  14.680   0.809  0.00  0.00     0.163 HD
BRANCH  81  84
HETATM   84  C   UNK N   1      20.528  16.225   3.157  0.00  0.00     0.177 C 
BRANCH  84  85
HETATM   85  C   UNK N   1      19.990  17.649   3.083  0.00  0.00     0.044 C 
BRANCH  85  86
HETATM   86  C   UNK N   1      21.082  18.643   3.460  0.00  0.00     0.105 C 
BRANCH  86  87
HETATM   87  C   UNK N   1      21.241  19.711   2.421  0.00  0.00     0.215 C 
HETATM   88  O   UNK N   1      20.666  19.621   1.349  0.00  0.00    -0.274 OA
HETATM   89  N   UNK N   1      21.989  20.798   2.687  0.00  0.00    -0.370 N 
HETATM   90  H   UNK N   1      21.914  21.599   2.119  0.00  0.00     0.159 HD
HETATM   91  H   UNK N   1      22.610  20.793   3.450  0.00  0.00     0.159 HD
ENDBRANCH  86  87
ENDBRANCH  85  86
ENDBRANCH  84  85
BRANCH  84  92
HETATM   92  N   UNK N   1      19.440  15.407   3.672  0.00  0.00    -0.346 N 
HETATM   93  C   UNK N   1      19.178  14.941   4.923  0.00  0.00     0.241 C 
HETATM   94  O   UNK N   1      18.056  14.522   5.146  0.00  0.00    -0.271 OA
HETATM   95  H   UNK N   1      18.776  15.144   2.995  0.00  0.00     0.163 HD
BRANCH  93  96
HETATM   96  C   UNK N   1      20.161  14.931   6.064  0.00  0.00     0.177 C 
BRANCH  96  97
HETATM   97  C   UNK N   1      20.538  16.306   6.591  0.00  0.00     0.045 C 
BRANCH  97  98
HETATM   98  C   UNK N   1      19.650  16.671   7.767  0.00  0.00     0.112 C 
BRANCH  98  99
HETATM   99  C   UNK N   1      20.020  18.022   8.276  0.00  0.00     0.139 C 
HETATM  100  O   UNK N   1      19.642  18.387   9.377  0.00  0.00    -0.650 OA
BRANCH  99 101
HETATM  101  O   UNK N   1      20.761  18.844   7.514  0.00  0.00    -0.776 OA
HETATM  102  H   UNK N   1      21.382  19.424   7.910  0.00  0.00     0.167 HD
ENDBRANCH  99 101
ENDBRANCH  98  99
ENDBRANCH  97  98
ENDBRANCH  96  97
BRANCH  96 103
HETATM  103  N   UNK N   1      21.314  14.093   5.791  0.00  0.00    -0.346 N 
HETATM  104  C   UNK N   1      22.160  13.639   6.757  0.00  0.00     0.241 C 
HETATM  105  O   UNK N   1      23.108  12.939   6.433  0.00  0.00    -0.271 OA
HETATM  106  H   UNK N   1      21.495  13.840   4.857  0.00  0.00     0.163 HD
BRANCH 104 107
HETATM  107  C   UNK N   1      21.953  13.983   8.215  0.00  0.00     0.177 A 
HETATM  108  C   UNK N   1      20.957  12.997   8.858  0.00  0.00     0.044 A 
HETATM  109  C   UNK N   1      21.636  12.389  10.089  0.00  0.00     0.105 A 
HETATM  110  C   UNK N   1      22.989  12.960   9.988  0.00  0.00     0.218 A 
HETATM  111  O   UNK N   1      23.889  12.683  10.765  0.00  0.00    -0.274 OA
HETATM  112  N   UNK N   1      23.157  13.814   8.977  0.00  0.00    -0.348 N 
HETATM  113  H   UNK N   1      24.006  14.274   8.779  0.00  0.00     0.163 HD
ENDBRANCH 104 107
ENDBRANCH  96 103
ENDBRANCH  93  96
ENDBRANCH  84  92
ENDBRANCH  81  84
ENDBRANCH  75  80
ENDBRANCH  72  75
ENDBRANCH  64  71
ENDBRANCH  61  64
ENDBRANCH   1  60
TORSDOF 47
ENDMDL
MODEL 7
REMARK VINA RESULT:      -6.9      1.845      2.475
REMARK WARNING: 32 MAX_TORS EXCEEDED!!!
REMARK  47 active torsions:
REMARK  status: ('A' for Active; 'I' for Inactive)
REMARK    1  A    between atoms: C_2  and  C_3 
REMARK    2  A    between atoms: C_2  and  N_34 
REMARK       I    between atoms: C_3  and  N_5 
REMARK    3  A    between atoms: C_6  and  N_5 
REMARK    4  A    between atoms: C_6  and  C_7 
REMARK    5  A    between atoms: C_6  and  C_11 
REMARK    6  A    between atoms: C_7  and  C_8 
REMARK       I    between atoms: C_11  and  N_13 
REMARK    7  A    between atoms: C_14  and  N_13 
REMARK    8  A    between atoms: C_14  and  C_15 
REMARK    9  A    between atoms: C_14  and  C_19 
REMARK   10  A    between atoms: C_15  and  C_16 
REMARK       I    between atoms: C_16  and  N_18 
REMARK       I    between atoms: C_19  and  N_21 
REMARK   11  A    between atoms: C_22  and  N_21 
REMARK   12  A    between atoms: C_22  and  C_23 
REMARK   13  A    between atoms: C_22  and  C_25 
REMARK   14  A    between atoms: C_23  and  O_24 
REMARK       I    between atoms: C_25  and  N_27 
REMARK   15  A    between atoms: C_28  and  N_27 
REMARK   16  A    between atoms: C_28  and  C_29 
REMARK   17  A    between atoms: C_28  and  C_31 
REMARK   18  A    between atoms: C_29  and  O_30 
REMARK   19  A    between atoms: C_31  and  O_33 
REMARK       I    between atoms: N_34  and  C_35 
REMARK   20  A    between atoms: C_35  and  C_37 
REMARK   21  A    between atoms: C_37  and  C_38 
REMARK   22  A    between atoms: C_37  and  N_46 
REMARK   23  A    between atoms: C_38  and  C_39 
REMARK   24  A    between atoms: C_39  and  C_40 
REMARK   25  A    between atoms: C_40  and  N_41 
REMARK       I    between atoms: N_41  and  C_42 
REMARK       I    between atoms: C_42  and  N_45 
REMARK       I    between atoms: N_46  and  C_47 
REMARK   26  A    between atoms: C_47  and  C_49 
REMARK   27  A    between atoms: C_49  and  C_50 
REMARK   28  A    between atoms: C_49  and  N_55 
REMARK   29  A    between atoms: C_50  and  C_51 
REMARK   30  A    between atoms: C_51  and  C_52 
REMARK   31  A    between atoms: C_52  and  O_54 
REMARK       I    between atoms: N_55  and  C_56 
REMARK   32  A    between atoms: C_56  and  C_58 
REMARK   33  A    between atoms: C_58  and  C_59 
REMARK   34  A    between atoms: C_58  and  N_63 
REMARK   35  A    between atoms: C_59  and  C_60 
REMARK       I    between atoms: N_63  and  C_64 
REMARK   36  A    between atoms: C_64  and  C_66 
REMARK   37  A    between atoms: C_66  and  C_67 
REMARK   38  A    between atoms: C_66  and  N_72 
REMARK   39  A    between atoms: C_67  and  C_68 
REMARK   40  A    between atoms: C_68  and  C_69 
REMARK       I    between atoms: C_69  and  N_71 
REMARK       I    between atoms: N_72  and  C_73 
REMARK   41  A    between atoms: C_73  and  C_75 
REMARK   42  A    between atoms: C_75  and  C_76 
REMARK   43  A    between atoms: C_75  and  N_81 
REMARK   44  A    between atoms: C_76  and  C_77 
REMARK   45  A    between atoms: C_77  and  C_78 
REMARK   46  A    between atoms: C_78  and  O_80 
REMARK       I    between atoms: N_81  and  C_82 
REMARK   47  A    between atoms: C_84  and  C_82 
ROOT
HETATM    1  C   UNK N   1      28.219  15.914   5.408  0.00  0.00     0.176 C 
ENDROOT
BRANCH   1   2
HETATM    2  C   UNK N   1      28.698  14.592   4.850  0.00  0.00     0.241 C 
HETATM    3  N   UNK N   1      29.875  14.488   4.179  0.00  0.00    -0.346 N 
HETATM    4  H   UNK N   1      30.199  13.587   3.949  0.00  0.00     0.163 HD
HETATM    5  O   UNK N   1      28.059  13.578   5.079  0.00  0.00    -0.271 OA
BRANCH   3   6
HETATM    6  C   UNK N   1      30.684  15.622   3.783  0.00  0.00     0.172 C 
HETATM    7  C   UNK N   1      30.026  16.386   2.647  0.00  0.00     0.042 C 
BRANCH   6   8
HETATM    8  C   UNK N   1      32.162  15.373   3.524  0.00  0.00     0.240 C 
HETATM    9  O   UNK N   1      32.483  15.063   2.389  0.00  0.00    -0.271 OA
HETATM   10  N   UNK N   1      33.149  15.515   4.454  0.00  0.00    -0.346 N 
HETATM   11  H   UNK N   1      34.074  15.507   4.114  0.00  0.00     0.163 HD
BRANCH  10  12
HETATM   12  C   UNK N   1      32.994  15.678   5.890  0.00  0.00     0.177 C 
BRANCH  12  13
HETATM   13  C   UNK N   1      33.182  17.157   6.290  0.00  0.00     0.038 C 
BRANCH  13  14
HETATM   14  C   UNK N   1      33.334  17.451   7.789  0.00  0.00    -0.020 C 
HETATM   15  C   UNK N   1      34.604  18.244   8.014  0.00  0.00     0.009 C 
HETATM   16  C   UNK N   1      32.164  18.222   8.372  0.00  0.00     0.009 C 
ENDBRANCH  13  14
ENDBRANCH  12  13
BRANCH  12  17
HETATM   17  C   UNK N   1      34.015  14.801   6.542  0.00  0.00     0.241 C 
HETATM   18  O   UNK N   1      35.193  14.986   6.273  0.00  0.00    -0.271 OA
HETATM   19  N   UNK N   1      33.663  13.939   7.536  0.00  0.00    -0.346 N 
HETATM   20  H   UNK N   1      32.742  13.593   7.565  0.00  0.00     0.163 HD
BRANCH  19  21
HETATM   21  C   UNK N   1      34.606  13.517   8.552  0.00  0.00     0.185 C 
BRANCH  21  22
HETATM   22  C   UNK N   1      34.849  14.674   9.546  0.00  0.00     0.137 C 
BRANCH  22  23
HETATM   23  C   UNK N   1      33.926  14.784  10.706  0.00  0.00     0.217 C 
HETATM   24  O   UNK N   1      34.361  14.713  11.840  0.00  0.00    -0.274 OA
HETATM   25  N   UNK N   1      32.632  15.100  10.499  0.00  0.00    -0.370 N 
HETATM   26  H   UNK N   1      31.822  15.042   9.943  0.00  0.00     0.159 HD
HETATM   27  H   UNK N   1      32.375  15.652  11.273  0.00  0.00     0.159 HD
ENDBRANCH  22  23
ENDBRANCH  21  22
BRANCH  21  28
HETATM   28  C   UNK N   1      33.996  12.258   9.156  0.00  0.00     0.241 C 
HETATM   29  O   UNK N   1      32.816  12.014   8.972  0.00  0.00    -0.271 OA
HETATM   30  N   UNK N   1      34.756  11.341   9.804  0.00  0.00    -0.344 N 
HETATM   31  H   UNK N   1      34.349  10.475  10.034  0.00  0.00     0.163 HD
BRANCH  30  32
HETATM   32  C   UNK N   1      36.128  11.574  10.174  0.00  0.00     0.200 C 
BRANCH  32  33
HETATM   33  C   UNK N   1      37.039  10.553   9.491  0.00  0.00     0.199 C 
BRANCH  33  34
HETATM   34  O   UNK N   1      38.348  10.646   9.966  0.00  0.00    -0.398 OA
HETATM   35  H   UNK N   1      38.577  10.527  10.901  0.00  0.00     0.209 HD
ENDBRANCH  33  34
ENDBRANCH  32  33
BRANCH  32  36
HETATM   36  C   UNK N   1      36.229  11.383  11.658  0.00  0.00     0.243 C 
HETATM   37  O   UNK N   1      36.451  10.260  12.107  0.00  0.00    -0.271 OA
HETATM   38  N   UNK N   1      36.091  12.430  12.498  0.00  0.00    -0.343 N 
HETATM   39  H   UNK N   1      35.920  13.323  12.120  0.00  0.00     0.163 HD
BRANCH  38  40
HETATM   40  C   UNK N   1      36.187  12.286  13.937  0.00  0.00     0.206 C 
BRANCH  40  41
HETATM   41  C   UNK N   1      36.600  13.613  14.548  0.00  0.00     0.200 C 
BRANCH  41  42
HETATM   42  O   UNK N   1      36.782  14.554  13.535  0.00  0.00    -0.398 OA
HETATM   43  H   UNK N   1      36.048  15.026  13.112  0.00  0.00     0.209 HD
ENDBRANCH  41  42
ENDBRANCH  40  41
BRANCH  40  44
HETATM   44  C   UNK N   1      34.900  11.754  14.527  0.00  0.00     0.165 C 
HETATM   45  O   UNK N   1      34.012  12.515  14.878  0.00  0.00    -0.648 OA
BRANCH  44  46
HETATM   46  O   UNK N   1      34.747  10.432  14.723  0.00  0.00    -0.775 OA
HETATM   47  H   UNK N   1      35.121   9.693  14.284  0.00  0.00     0.167 HD
ENDBRANCH  44  46
ENDBRANCH  40  44
ENDBRANCH  38  40
ENDBRANCH  32  36
ENDBRANCH  30  32
ENDBRANCH  21  28
ENDBRANCH  19  21
ENDBRANCH  12  17
ENDBRANCH  10  12
ENDBRANCH   6   8
ENDBRANCH   3   6
ENDBRANCH   1   2
BRANCH   1  48
HETATM   48  C   UNK N   1      29.211  16.736   6.212  0.00  0.00     0.036 C 
BRANCH  48  49
HETATM   49  C   UNK N   1      28.950  18.215   5.960  0.00  0.00     0.023 C 
BRANCH  49  50
HETATM   50  C   UNK N   1      28.168  18.863   7.095  0.00  0.00     0.138 C 
BRANCH  50  51
HETATM   51  N   UNK N   1      28.927  18.759   8.313  0.00  0.00    -0.227 N 
HETATM   52  C   UNK N   1      28.547  17.873   9.350  0.00  0.00     0.665 C 
HETATM   53  N   UNK N   1      27.498  17.145   9.234  0.00  0.00    -0.235 N 
HETATM   54  N   UNK N   1      29.367  17.742  10.491  0.00  0.00    -0.235 N 
HETATM   55  H   UNK N   1      27.245  16.432   9.865  0.00  0.00     0.174 HD
ATOM     56  HN  UNK N   1      26.885  17.314   8.436  1.00  0.00     0.174 HD
HETATM   57  H   UNK N   1      30.294  18.073  10.475  0.00  0.00     0.174 HD
HETATM   58  H   UNK N   1      29.012  17.316  11.305  0.00  0.00     0.174 HD
HETATM   59  H   UNK N   1      29.729  19.316   8.427  0.00  0.00     0.177 HD
ENDBRANCH  50  51
ENDBRANCH  49  50
ENDBRANCH  48  49
ENDBRANCH   1  48
BRANCH   1  60
HETATM   60  N   UNK N   1      26.870  16.030   5.933  0.00  0.00    -0.346 N 
HETATM   61  C   UNK N   1      25.700  16.165   5.253  0.00  0.00     0.241 C 
HETATM   62  O   UNK N   1      24.655  16.084   5.876  0.00  0.00    -0.271 OA
HETATM   63  H   UNK N   1      26.790  16.007   6.914  0.00  0.00     0.163 HD
BRANCH  61  64
HETATM   64  C   UNK N   1      25.614  16.471   3.781  0.00  0.00     0.177 C 
BRANCH  64  65
HETATM   65  C   UNK N   1      26.286  17.807   3.533  0.00  0.00     0.045 C 
BRANCH  65  66
HETATM   66  C   UNK N   1      25.286  18.932   3.453  0.00  0.00     0.112 C 
BRANCH  66  67
HETATM   67  C   UNK N   1      25.994  20.228   3.266  0.00  0.00     0.139 C 
HETATM   68  O   UNK N   1      25.688  20.954   2.335  0.00  0.00    -0.650 OA
BRANCH  67  69
HETATM   69  O   UNK N   1      26.965  20.604   4.120  0.00  0.00    -0.776 OA
HETATM   70  H   UNK N   1      26.968  20.334   5.016  0.00  0.00     0.167 HD
ENDBRANCH  67  69
ENDBRANCH  66  67
ENDBRANCH  65  66
ENDBRANCH  64  65
BRANCH  64  71
HETATM   71  N   UNK N   1      26.214  15.456   2.941  0.00  0.00    -0.346 N 
HETATM   72  C   UNK N   1      25.651  14.263   2.613  0.00  0.00     0.241 C 
HETATM   73  O   UNK N   1      26.301  13.474   1.943  0.00  0.00    -0.271 OA
HETATM   74  H   UNK N   1      27.108  15.646   2.575  0.00  0.00     0.163 HD
BRANCH  72  75
HETATM   75  C   UNK N   1      24.275  13.864   3.083  0.00  0.00     0.177 C 
BRANCH  75  76
HETATM   76  C   UNK N   1      24.271  12.337   3.065  0.00  0.00     0.038 C 
BRANCH  76  77
HETATM   77  C   UNK N   1      24.417  11.721   4.438  0.00  0.00    -0.020 C 
HETATM   78  C   UNK N   1      23.162  10.931   4.742  0.00  0.00     0.009 C 
HETATM   79  C   UNK N   1      25.594  10.764   4.425  0.00  0.00     0.009 C 
ENDBRANCH  76  77
ENDBRANCH  75  76
BRANCH  75  80
HETATM   80  N   UNK N   1      23.288  14.361   2.131  0.00  0.00    -0.346 N 
HETATM   81  C   UNK N   1      22.141  15.033   2.443  0.00  0.00     0.241 C 
HETATM   82  O   UNK N   1      21.444  15.451   1.534  0.00  0.00    -0.271 OA
HETATM   83  H   UNK N   1      23.465  14.196   1.177  0.00  0.00     0.163 HD
BRANCH  81  84
HETATM   84  C   UNK N   1      21.723  15.266   3.880  0.00  0.00     0.177 C 
BRANCH  84  85
HETATM   85  C   UNK N   1      20.903  16.548   3.976  0.00  0.00     0.044 C 
BRANCH  85  86
HETATM   86  C   UNK N   1      21.817  17.764   3.889  0.00  0.00     0.105 C 
BRANCH  86  87
HETATM   87  C   UNK N   1      21.066  18.992   3.473  0.00  0.00     0.215 C 
HETATM   88  O   UNK N   1      20.817  19.868   4.284  0.00  0.00    -0.274 OA
HETATM   89  N   UNK N   1      20.700  19.149   2.187  0.00  0.00    -0.370 N 
HETATM   90  H   UNK N   1      20.421  20.034   1.859  0.00  0.00     0.159 HD
HETATM   91  H   UNK N   1      20.712  18.379   1.575  0.00  0.00     0.159 HD
ENDBRANCH  86  87
ENDBRANCH  85  86
ENDBRANCH  84  85
BRANCH  84  92
HETATM   92  N   UNK N   1      20.924  14.226   4.512  0.00  0.00    -0.346 N 
HETATM   93  C   UNK N   1      20.741  13.902   5.820  0.00  0.00     0.241 C 
HETATM   94  O   UNK N   1      19.801  13.176   6.096  0.00  0.00    -0.271 OA
HETATM   95  H   UNK N   1      20.430  13.656   3.881  0.00  0.00     0.163 HD
BRANCH  93  96
HETATM   96  C   UNK N   1      21.592  14.395   6.960  0.00  0.00     0.177 C 
BRANCH  96  97
HETATM   97  C   UNK N   1      21.428  15.872   7.283  0.00  0.00     0.045 C 
BRANCH  97  98
HETATM   98  C   UNK N   1      20.712  16.035   8.612  0.00  0.00     0.112 C 
BRANCH  98  99
HETATM   99  C   UNK N   1      19.240  16.095   8.386  0.00  0.00     0.139 C 
HETATM  100  O   UNK N   1      18.801  16.346   7.276  0.00  0.00    -0.650 OA
BRANCH  99 101
HETATM  101  O   UNK N   1      18.397  15.885   9.410  0.00  0.00    -0.776 OA
HETATM  102  H   UNK N   1      18.303  16.528  10.086  0.00  0.00     0.167 HD
ENDBRANCH  99 101
ENDBRANCH  98  99
ENDBRANCH  97  98
ENDBRANCH  96  97
BRANCH  96 103
HETATM  103  N   UNK N   1      22.980  13.996   6.825  0.00  0.00    -0.346 N 
HETATM  104  C   UNK N   1      23.730  13.516   7.856  0.00  0.00     0.241 C 
HETATM  105  O   UNK N   1      24.893  13.205   7.649  0.00  0.00    -0.271 OA
HETATM  106  H   UNK N   1      23.404  14.078   5.940  0.00  0.00     0.163 HD
BRANCH 104 107
HETATM  107  C   UNK N   1      23.154  13.361   9.246  0.00  0.00     0.177 A 
HETATM  108  C   UNK N   1      22.422  12.009   9.371  0.00  0.00     0.044 A 
HETATM  109  C   UNK N   1      23.015  11.270  10.574  0.00  0.00     0.105 A 
HETATM  110  C   UNK N   1      24.110  12.174  10.962  0.00  0.00     0.218 A 
HETATM  111  O   UNK N   1      24.888  11.928  11.868  0.00  0.00    -0.274 OA
HETATM  112  N   UNK N   1      24.184  13.296  10.243  0.00  0.00    -0.348 N 
HETATM  113  H   UNK N   1      24.863  13.996  10.382  0.00  0.00     0.163 HD
ENDBRANCH 104 107
ENDBRANCH  96 103
ENDBRANCH  93  96
ENDBRANCH  84  92
ENDBRANCH  81  84
ENDBRANCH  75  80
ENDBRANCH  72  75
ENDBRANCH  64  71
ENDBRANCH  61  64
ENDBRANCH   1  60
TORSDOF 47
ENDMDL
MODEL 8
REMARK VINA RESULT:      -6.9      2.628      5.807
REMARK WARNING: 32 MAX_TORS EXCEEDED!!!
REMARK  47 active torsions:
REMARK  status: ('A' for Active; 'I' for Inactive)
REMARK    1  A    between atoms: C_2  and  C_3 
REMARK    2  A    between atoms: C_2  and  N_34 
REMARK       I    between atoms: C_3  and  N_5 
REMARK    3  A    between atoms: C_6  and  N_5 
REMARK    4  A    between atoms: C_6  and  C_7 
REMARK    5  A    between atoms: C_6  and  C_11 
REMARK    6  A    between atoms: C_7  and  C_8 
REMARK       I    between atoms: C_11  and  N_13 
REMARK    7  A    between atoms: C_14  and  N_13 
REMARK    8  A    between atoms: C_14  and  C_15 
REMARK    9  A    between atoms: C_14  and  C_19 
REMARK   10  A    between atoms: C_15  and  C_16 
REMARK       I    between atoms: C_16  and  N_18 
REMARK       I    between atoms: C_19  and  N_21 
REMARK   11  A    between atoms: C_22  and  N_21 
REMARK   12  A    between atoms: C_22  and  C_23 
REMARK   13  A    between atoms: C_22  and  C_25 
REMARK   14  A    between atoms: C_23  and  O_24 
REMARK       I    between atoms: C_25  and  N_27 
REMARK   15  A    between atoms: C_28  and  N_27 
REMARK   16  A    between atoms: C_28  and  C_29 
REMARK   17  A    between atoms: C_28  and  C_31 
REMARK   18  A    between atoms: C_29  and  O_30 
REMARK   19  A    between atoms: C_31  and  O_33 
REMARK       I    between atoms: N_34  and  C_35 
REMARK   20  A    between atoms: C_35  and  C_37 
REMARK   21  A    between atoms: C_37  and  C_38 
REMARK   22  A    between atoms: C_37  and  N_46 
REMARK   23  A    between atoms: C_38  and  C_39 
REMARK   24  A    between atoms: C_39  and  C_40 
REMARK   25  A    between atoms: C_40  and  N_41 
REMARK       I    between atoms: N_41  and  C_42 
REMARK       I    between atoms: C_42  and  N_45 
REMARK       I    between atoms: N_46  and  C_47 
REMARK   26  A    between atoms: C_47  and  C_49 
REMARK   27  A    between atoms: C_49  and  C_50 
REMARK   28  A    between atoms: C_49  and  N_55 
REMARK   29  A    between atoms: C_50  and  C_51 
REMARK   30  A    between atoms: C_51  and  C_52 
REMARK   31  A    between atoms: C_52  and  O_54 
REMARK       I    between atoms: N_55  and  C_56 
REMARK   32  A    between atoms: C_56  and  C_58 
REMARK   33  A    between atoms: C_58  and  C_59 
REMARK   34  A    between atoms: C_58  and  N_63 
REMARK   35  A    between atoms: C_59  and  C_60 
REMARK       I    between atoms: N_63  and  C_64 
REMARK   36  A    between atoms: C_64  and  C_66 
REMARK   37  A    between atoms: C_66  and  C_67 
REMARK   38  A    between atoms: C_66  and  N_72 
REMARK   39  A    between atoms: C_67  and  C_68 
REMARK   40  A    between atoms: C_68  and  C_69 
REMARK       I    between atoms: C_69  and  N_71 
REMARK       I    between atoms: N_72  and  C_73 
REMARK   41  A    between atoms: C_73  and  C_75 
REMARK   42  A    between atoms: C_75  and  C_76 
REMARK   43  A    between atoms: C_75  and  N_81 
REMARK   44  A    between atoms: C_76  and  C_77 
REMARK   45  A    between atoms: C_77  and  C_78 
REMARK   46  A    between atoms: C_78  and  O_80 
REMARK       I    between atoms: N_81  and  C_82 
REMARK   47  A    between atoms: C_84  and  C_82 
ROOT
HETATM    1  C   UNK N   1      24.097  15.969   5.696  0.00  0.00     0.176 C 
ENDROOT
BRANCH   1   2
HETATM    2  C   UNK N   1      24.025  15.401   4.295  0.00  0.00     0.241 C 
HETATM    3  N   UNK N   1      24.955  15.710   3.354  0.00  0.00    -0.346 N 
HETATM    4  H   UNK N   1      24.934  15.217   2.502  0.00  0.00     0.163 HD
HETATM    5  O   UNK N   1      23.164  14.579   4.025  0.00  0.00    -0.271 OA
BRANCH   3   6
HETATM    6  C   UNK N   1      25.978  16.721   3.527  0.00  0.00     0.172 C 
HETATM    7  C   UNK N   1      25.568  18.025   2.865  0.00  0.00     0.042 C 
BRANCH   6   8
HETATM    8  C   UNK N   1      27.410  16.335   3.193  0.00  0.00     0.240 C 
HETATM    9  O   UNK N   1      27.571  15.492   2.326  0.00  0.00    -0.271 OA
HETATM   10  N   UNK N   1      28.518  16.892   3.759  0.00  0.00    -0.346 N 
HETATM   11  H   UNK N   1      29.379  16.690   3.325  0.00  0.00     0.163 HD
BRANCH  10  12
HETATM   12  C   UNK N   1      28.576  17.752   4.929  0.00  0.00     0.177 C 
BRANCH  12  13
HETATM   13  C   UNK N   1      28.528  19.237   4.512  0.00  0.00     0.038 C 
BRANCH  13  14
HETATM   14  C   UNK N   1      27.888  20.213   5.511  0.00  0.00    -0.020 C 
HETATM   15  C   UNK N   1      26.639  20.807   4.897  0.00  0.00     0.009 C 
HETATM   16  C   UNK N   1      27.525  19.564   6.834  0.00  0.00     0.009 C 
ENDBRANCH  13  14
ENDBRANCH  12  13
BRANCH  12  17
HETATM   17  C   UNK N   1      29.846  17.426   5.648  0.00  0.00     0.241 C 
HETATM   18  O   UNK N   1      30.883  17.940   5.254  0.00  0.00    -0.271 OA
HETATM   19  N   UNK N   1      29.828  16.718   6.812  0.00  0.00    -0.346 N 
HETATM   20  H   UNK N   1      29.085  16.094   6.980  0.00  0.00     0.163 HD
BRANCH  19  21
HETATM   21  C   UNK N   1      30.870  16.857   7.809  0.00  0.00     0.185 C 
BRANCH  21  22
HETATM   22  C   UNK N   1      30.263  16.697   9.221  0.00  0.00     0.137 C 
BRANCH  22  23
HETATM   23  C   UNK N   1      29.277  17.719   9.660  0.00  0.00     0.217 C 
HETATM   24  O   UNK N   1      28.088  17.460   9.654  0.00  0.00    -0.274 OA
HETATM   25  N   UNK N   1      29.712  18.878  10.193  0.00  0.00    -0.370 N 
HETATM   26  H   UNK N   1      30.378  19.603  10.222  0.00  0.00     0.159 HD
HETATM   27  H   UNK N   1      29.047  19.111  10.881  0.00  0.00     0.159 HD
ENDBRANCH  22  23
ENDBRANCH  21  22
BRANCH  21  28
HETATM   28  C   UNK N   1      31.918  15.819   7.430  0.00  0.00     0.241 C 
HETATM   29  O   UNK N   1      31.581  14.819   6.820  0.00  0.00    -0.271 OA
HETATM   30  N   UNK N   1      33.239  16.027   7.657  0.00  0.00    -0.344 N 
HETATM   31  H   UNK N   1      33.887  15.406   7.252  0.00  0.00     0.163 HD
BRANCH  30  32
HETATM   32  C   UNK N   1      33.739  17.112   8.461  0.00  0.00     0.200 C 
BRANCH  32  33
HETATM   33  C   UNK N   1      34.461  18.133   7.580  0.00  0.00     0.199 C 
BRANCH  33  34
HETATM   34  O   UNK N   1      35.001  19.168   8.344  0.00  0.00    -0.398 OA
HETATM   35  H   UNK N   1      34.592  19.483   9.166  0.00  0.00     0.209 HD
ENDBRANCH  33  34
ENDBRANCH  32  33
BRANCH  32  36
HETATM   36  C   UNK N   1      34.730  16.532   9.426  0.00  0.00     0.243 C 
HETATM   37  O   UNK N   1      35.278  17.271  10.242  0.00  0.00    -0.271 OA
HETATM   38  N   UNK N   1      35.012  15.214   9.414  0.00  0.00    -0.343 N 
HETATM   39  H   UNK N   1      34.559  14.636   8.758  0.00  0.00     0.163 HD
BRANCH  38  40
HETATM   40  C   UNK N   1      35.959  14.615  10.334  0.00  0.00     0.206 C 
BRANCH  40  41
HETATM   41  C   UNK N   1      35.288  13.473  11.076  0.00  0.00     0.200 C 
BRANCH  41  42
HETATM   42  O   UNK N   1      34.193  13.963  11.788  0.00  0.00    -0.398 OA
HETATM   43  H   UNK N   1      33.276  13.841  11.499  0.00  0.00     0.209 HD
ENDBRANCH  41  42
ENDBRANCH  40  41
BRANCH  40  44
HETATM   44  C   UNK N   1      37.222  14.179   9.623  0.00  0.00     0.165 C 
HETATM   45  O   UNK N   1      37.219  13.968   8.420  0.00  0.00    -0.648 OA
BRANCH  44  46
HETATM   46  O   UNK N   1      38.348  13.965  10.324  0.00  0.00    -0.775 OA
HETATM   47  H   UNK N   1      38.494  13.849  11.243  0.00  0.00     0.167 HD
ENDBRANCH  44  46
ENDBRANCH  40  44
ENDBRANCH  38  40
ENDBRANCH  32  36
ENDBRANCH  30  32
ENDBRANCH  21  28
ENDBRANCH  19  21
ENDBRANCH  12  17
ENDBRANCH  10  12
ENDBRANCH   6   8
ENDBRANCH   3   6
ENDBRANCH   1   2
BRANCH   1  48
HETATM   48  C   UNK N   1      23.970  14.996   6.854  0.00  0.00     0.036 C 
BRANCH  48  49
HETATM   49  C   UNK N   1      25.351  14.462   7.209  0.00  0.00     0.023 C 
BRANCH  49  50
HETATM   50  C   UNK N   1      25.917  13.561   6.119  0.00  0.00     0.138 C 
BRANCH  50  51
HETATM   51  N   UNK N   1      27.226  14.030   5.749  0.00  0.00    -0.227 N 
HETATM   52  C   UNK N   1      28.122  13.220   5.010  0.00  0.00     0.665 C 
HETATM   53  N   UNK N   1      27.791  12.031   4.662  0.00  0.00    -0.235 N 
HETATM   54  N   UNK N   1      29.363  13.751   4.595  0.00  0.00    -0.235 N 
HETATM   55  H   UNK N   1      28.319  11.463   4.055  0.00  0.00     0.174 HD
ATOM     56  HN  UNK N   1      26.923  11.648   5.037  1.00  0.00     0.174 HD
HETATM   57  H   UNK N   1      29.515  14.723   4.610  0.00  0.00     0.174 HD
HETATM   58  H   UNK N   1      30.077  13.146   4.289  0.00  0.00     0.174 HD
HETATM   59  H   UNK N   1      27.504  14.936   6.014  0.00  0.00     0.177 HD
ENDBRANCH  50  51
ENDBRANCH  49  50
ENDBRANCH  48  49
ENDBRANCH   1  48
BRANCH   1  60
HETATM   60  N   UNK N   1      23.470  17.245   5.991  0.00  0.00    -0.346 N 
HETATM   61  C   UNK N   1      22.151  17.577   5.951  0.00  0.00     0.241 C 
HETATM   62  O   UNK N   1      21.814  18.662   6.392  0.00  0.00    -0.271 OA
HETATM   63  H   UNK N   1      24.082  17.969   6.256  0.00  0.00     0.163 HD
BRANCH  61  64
HETATM   64  C   UNK N   1      21.085  16.709   5.339  0.00  0.00     0.177 C 
BRANCH  64  65
HETATM   65  C   UNK N   1      19.978  16.525   6.358  0.00  0.00     0.045 C 
BRANCH  65  66
HETATM   66  C   UNK N   1      20.524  16.299   7.745  0.00  0.00     0.112 C 
BRANCH  66  67
HETATM   67  C   UNK N   1      19.406  16.240   8.727  0.00  0.00     0.139 C 
HETATM   68  O   UNK N   1      18.677  17.206   8.870  0.00  0.00    -0.650 OA
BRANCH  67  69
HETATM   69  O   UNK N   1      19.196  15.125   9.454  0.00  0.00    -0.776 OA
HETATM   70  H   UNK N   1      18.502  15.066  10.080  0.00  0.00     0.167 HD
ENDBRANCH  67  69
ENDBRANCH  66  67
ENDBRANCH  65  66
ENDBRANCH  64  65
BRANCH  64  71
HETATM   71  N   UNK N   1      20.537  17.241   4.109  0.00  0.00    -0.346 N 
HETATM   72  C   UNK N   1      20.218  16.517   3.004  0.00  0.00     0.241 C 
HETATM   73  O   UNK N   1      19.821  17.109   2.011  0.00  0.00    -0.271 OA
HETATM   74  H   UNK N   1      20.381  18.213   4.069  0.00  0.00     0.163 HD
BRANCH  72  75
HETATM   75  C   UNK N   1      20.379  15.019   2.946  0.00  0.00     0.177 C 
BRANCH  75  76
HETATM   76  C   UNK N   1      20.576  14.692   1.468  0.00  0.00     0.038 C 
BRANCH  76  77
HETATM   77  C   UNK N   1      21.520  13.533   1.231  0.00  0.00    -0.020 C 
HETATM   78  C   UNK N   1      20.822  12.526   0.342  0.00  0.00     0.009 C 
HETATM   79  C   UNK N   1      22.749  14.042   0.504  0.00  0.00     0.009 C 
ENDBRANCH  76  77
ENDBRANCH  75  76
BRANCH  75  80
HETATM   80  N   UNK N   1      19.150  14.393   3.420  0.00  0.00    -0.346 N 
HETATM   81  C   UNK N   1      19.065  13.231   4.132  0.00  0.00     0.241 C 
HETATM   82  O   UNK N   1      17.970  12.864   4.522  0.00  0.00    -0.271 OA
HETATM   83  H   UNK N   1      18.305  14.850   3.207  0.00  0.00     0.163 HD
BRANCH  81  84
HETATM   84  C   UNK N   1      20.292  12.397   4.442  0.00  0.00     0.177 C 
BRANCH  84  85
HETATM   85  C   UNK N   1      20.311  12.041   5.923  0.00  0.00     0.044 C 
BRANCH  85  86
HETATM   86  C   UNK N   1      21.132  13.064   6.700  0.00  0.00     0.105 C 
BRANCH  86  87
HETATM   87  C   UNK N   1      21.432  12.593   8.089  0.00  0.00     0.215 C 
HETATM   88  O   UNK N   1      20.655  12.821   9.001  0.00  0.00    -0.274 OA
HETATM   89  N   UNK N   1      22.546  11.876   8.327  0.00  0.00    -0.370 N 
HETATM   90  H   UNK N   1      22.637  11.371   9.167  0.00  0.00     0.159 HD
HETATM   91  H   UNK N   1      23.270  11.856   7.661  0.00  0.00     0.159 HD
ENDBRANCH  86  87
ENDBRANCH  85  86
ENDBRANCH  84  85
BRANCH  84  92
HETATM   92  N   UNK N   1      20.435  11.141   3.721  0.00  0.00    -0.346 N 
HETATM   93  C   UNK N   1      21.538  10.463   3.304  0.00  0.00     0.241 C 
HETATM   94  O   UNK N   1      21.395   9.298   2.976  0.00  0.00    -0.271 OA
HETATM   95  H   UNK N   1      19.583  10.705   3.495  0.00  0.00     0.163 HD
BRANCH  93  96
HETATM   96  C   UNK N   1      22.931  11.033   3.243  0.00  0.00     0.177 C 
BRANCH  96  97
HETATM   97  C   UNK N   1      23.902  10.246   2.377  0.00  0.00     0.045 C 
BRANCH  97  98
HETATM   98  C   UNK N   1      24.509  11.155   1.324  0.00  0.00     0.112 C 
BRANCH  98  99
HETATM   99  C   UNK N   1      25.724  11.821   1.874  0.00  0.00     0.139 C 
HETATM  100  O   UNK N   1      26.827  11.333   1.688  0.00  0.00    -0.650 OA
BRANCH  99 101
HETATM  101  O   UNK N   1      25.602  12.953   2.586  0.00  0.00    -0.776 OA
HETATM  102  H   UNK N   1      25.427  13.767   2.156  0.00  0.00     0.167 HD
ENDBRANCH  99 101
ENDBRANCH  98  99
ENDBRANCH  97  98
ENDBRANCH  96  97
BRANCH  96 103
HETATM  103  N   UNK N   1      23.461  11.333   4.560  0.00  0.00    -0.346 N 
HETATM  104  C   UNK N   1      23.921  10.383   5.421  0.00  0.00     0.241 C 
HETATM  105  O   UNK N   1      24.350  10.729   6.511  0.00  0.00    -0.271 OA
HETATM  106  H   UNK N   1      23.489  12.274   4.847  0.00  0.00     0.163 HD
BRANCH 104 107
HETATM  107  C   UNK N   1      23.913   8.916   5.056  0.00  0.00     0.177 A 
HETATM  108  C   UNK N   1      25.187   8.228   5.587  0.00  0.00     0.044 A 
HETATM  109  C   UNK N   1      24.749   7.033   6.440  0.00  0.00     0.105 A 
HETATM  110  C   UNK N   1      23.286   7.199   6.443  0.00  0.00     0.218 A 
HETATM  111  O   UNK N   1      22.534   6.468   7.068  0.00  0.00    -0.274 OA
HETATM  112  N   UNK N   1      22.840   8.214   5.701  0.00  0.00    -0.348 N 
HETATM  113  H   UNK N   1      21.889   8.452   5.606  0.00  0.00     0.163 HD
ENDBRANCH 104 107
ENDBRANCH  96 103
ENDBRANCH  93  96
ENDBRANCH  84  92
ENDBRANCH  81  84
ENDBRANCH  75  80
ENDBRANCH  72  75
ENDBRANCH  64  71
ENDBRANCH  61  64
ENDBRANCH   1  60
TORSDOF 47
ENDMDL
MODEL 9
REMARK VINA RESULT:      -6.8      1.881      4.453
REMARK WARNING: 32 MAX_TORS EXCEEDED!!!
REMARK  47 active torsions:
REMARK  status: ('A' for Active; 'I' for Inactive)
REMARK    1  A    between atoms: C_2  and  C_3 
REMARK    2  A    between atoms: C_2  and  N_34 
REMARK       I    between atoms: C_3  and  N_5 
REMARK    3  A    between atoms: C_6  and  N_5 
REMARK    4  A    between atoms: C_6  and  C_7 
REMARK    5  A    between atoms: C_6  and  C_11 
REMARK    6  A    between atoms: C_7  and  C_8 
REMARK       I    between atoms: C_11  and  N_13 
REMARK    7  A    between atoms: C_14  and  N_13 
REMARK    8  A    between atoms: C_14  and  C_15 
REMARK    9  A    between atoms: C_14  and  C_19 
REMARK   10  A    between atoms: C_15  and  C_16 
REMARK       I    between atoms: C_16  and  N_18 
REMARK       I    between atoms: C_19  and  N_21 
REMARK   11  A    between atoms: C_22  and  N_21 
REMARK   12  A    between atoms: C_22  and  C_23 
REMARK   13  A    between atoms: C_22  and  C_25 
REMARK   14  A    between atoms: C_23  and  O_24 
REMARK       I    between atoms: C_25  and  N_27 
REMARK   15  A    between atoms: C_28  and  N_27 
REMARK   16  A    between atoms: C_28  and  C_29 
REMARK   17  A    between atoms: C_28  and  C_31 
REMARK   18  A    between atoms: C_29  and  O_30 
REMARK   19  A    between atoms: C_31  and  O_33 
REMARK       I    between atoms: N_34  and  C_35 
REMARK   20  A    between atoms: C_35  and  C_37 
REMARK   21  A    between atoms: C_37  and  C_38 
REMARK   22  A    between atoms: C_37  and  N_46 
REMARK   23  A    between atoms: C_38  and  C_39 
REMARK   24  A    between atoms: C_39  and  C_40 
REMARK   25  A    between atoms: C_40  and  N_41 
REMARK       I    between atoms: N_41  and  C_42 
REMARK       I    between atoms: C_42  and  N_45 
REMARK       I    between atoms: N_46  and  C_47 
REMARK   26  A    between atoms: C_47  and  C_49 
REMARK   27  A    between atoms: C_49  and  C_50 
REMARK   28  A    between atoms: C_49  and  N_55 
REMARK   29  A    between atoms: C_50  and  C_51 
REMARK   30  A    between atoms: C_51  and  C_52 
REMARK   31  A    between atoms: C_52  and  O_54 
REMARK       I    between atoms: N_55  and  C_56 
REMARK   32  A    between atoms: C_56  and  C_58 
REMARK   33  A    between atoms: C_58  and  C_59 
REMARK   34  A    between atoms: C_58  and  N_63 
REMARK   35  A    between atoms: C_59  and  C_60 
REMARK       I    between atoms: N_63  and  C_64 
REMARK   36  A    between atoms: C_64  and  C_66 
REMARK   37  A    between atoms: C_66  and  C_67 
REMARK   38  A    between atoms: C_66  and  N_72 
REMARK   39  A    between atoms: C_67  and  C_68 
REMARK   40  A    between atoms: C_68  and  C_69 
REMARK       I    between atoms: C_69  and  N_71 
REMARK       I    between atoms: N_72  and  C_73 
REMARK   41  A    between atoms: C_73  and  C_75 
REMARK   42  A    between atoms: C_75  and  C_76 
REMARK   43  A    between atoms: C_75  and  N_81 
REMARK   44  A    between atoms: C_76  and  C_77 
REMARK   45  A    between atoms: C_77  and  C_78 
REMARK   46  A    between atoms: C_78  and  O_80 
REMARK       I    between atoms: N_81  and  C_82 
REMARK   47  A    between atoms: C_84  and  C_82 
ROOT
HETATM    1  C   UNK N   1      28.694  15.868   3.379  0.00  0.00     0.176 C 
ENDROOT
BRANCH   1   2
HETATM    2  C   UNK N   1      28.058  14.824   2.487  0.00  0.00     0.241 C 
HETATM    3  N   UNK N   1      28.603  13.588   2.337  0.00  0.00    -0.346 N 
HETATM    4  H   UNK N   1      28.084  12.909   1.849  0.00  0.00     0.163 HD
HETATM    5  O   UNK N   1      26.985  15.063   1.955  0.00  0.00    -0.271 OA
BRANCH   3   6
HETATM    6  C   UNK N   1      29.901  13.209   2.855  0.00  0.00     0.172 C 
HETATM    7  C   UNK N   1      30.677  12.400   1.830  0.00  0.00     0.042 C 
BRANCH   6   8
HETATM    8  C   UNK N   1      29.948  12.576   4.236  0.00  0.00     0.240 C 
HETATM    9  O   UNK N   1      28.921  12.065   4.650  0.00  0.00    -0.271 OA
HETATM   10  N   UNK N   1      31.062  12.501   5.021  0.00  0.00    -0.346 N 
HETATM   11  H   UNK N   1      31.005  11.907   5.804  0.00  0.00     0.163 HD
BRANCH  10  12
HETATM   12  C   UNK N   1      32.324  13.198   4.832  0.00  0.00     0.177 C 
BRANCH  12  13
HETATM   13  C   UNK N   1      33.366  12.263   4.182  0.00  0.00     0.038 C 
BRANCH  13  14
HETATM   14  C   UNK N   1      34.320  12.900   3.162  0.00  0.00    -0.020 C 
HETATM   15  C   UNK N   1      34.557  11.928   2.027  0.00  0.00     0.009 C 
HETATM   16  C   UNK N   1      33.802  14.207   2.589  0.00  0.00     0.009 C 
ENDBRANCH  13  14
ENDBRANCH  12  13
BRANCH  12  17
HETATM   17  C   UNK N   1      32.771  13.661   6.182  0.00  0.00     0.241 C 
HETATM   18  O   UNK N   1      31.917  13.953   7.007  0.00  0.00    -0.271 OA
HETATM   19  N   UNK N   1      34.083  13.596   6.543  0.00  0.00    -0.346 N 
HETATM   20  H   UNK N   1      34.774  13.632   5.843  0.00  0.00     0.163 HD
BRANCH  19  21
HETATM   21  C   UNK N   1      34.490  13.474   7.929  0.00  0.00     0.185 C 
BRANCH  21  22
HETATM   22  C   UNK N   1      34.566  11.980   8.317  0.00  0.00     0.137 C 
BRANCH  22  23
HETATM   23  C   UNK N   1      33.600  11.490   9.335  0.00  0.00     0.217 C 
HETATM   24  O   UNK N   1      33.963  10.707  10.192  0.00  0.00    -0.274 OA
HETATM   25  N   UNK N   1      32.362  12.020   9.388  0.00  0.00    -0.370 N 
HETATM   26  H   UNK N   1      31.581  12.403   8.926  0.00  0.00     0.159 HD
HETATM   27  H   UNK N   1      32.126  12.031  10.344  0.00  0.00     0.159 HD
ENDBRANCH  22  23
ENDBRANCH  21  22
BRANCH  21  28
HETATM   28  C   UNK N   1      35.805  14.237   8.021  0.00  0.00     0.241 C 
HETATM   29  O   UNK N   1      36.606  14.169   7.105  0.00  0.00    -0.271 OA
HETATM   30  N   UNK N   1      36.065  15.082   9.050  0.00  0.00    -0.344 N 
HETATM   31  H   UNK N   1      36.852  15.671   8.984  0.00  0.00     0.163 HD
BRANCH  30  32
HETATM   32  C   UNK N   1      35.248  15.159  10.233  0.00  0.00     0.200 C 
BRANCH  32  33
HETATM   33  C   UNK N   1      35.246  16.586  10.781  0.00  0.00     0.199 C 
BRANCH  33  34
HETATM   34  O   UNK N   1      35.204  17.525   9.750  0.00  0.00    -0.398 OA
HETATM   35  H   UNK N   1      35.939  18.129   9.559  0.00  0.00     0.209 HD
ENDBRANCH  33  34
ENDBRANCH  32  33
BRANCH  32  36
HETATM   36  C   UNK N   1      35.864  14.256  11.259  0.00  0.00     0.243 C 
HETATM   37  O   UNK N   1      37.017  13.860  11.099  0.00  0.00    -0.271 OA
HETATM   38  N   UNK N   1      35.171  13.888  12.357  0.00  0.00    -0.343 N 
HETATM   39  H   UNK N   1      34.252  14.220  12.472  0.00  0.00     0.163 HD
BRANCH  38  40
HETATM   40  C   UNK N   1      35.734  13.021  13.374  0.00  0.00     0.206 C 
BRANCH  40  41
HETATM   41  C   UNK N   1      36.459  13.863  14.408  0.00  0.00     0.200 C 
BRANCH  41  42
HETATM   42  O   UNK N   1      36.927  13.039  15.431  0.00  0.00    -0.398 OA
HETATM   43  H   UNK N   1      36.727  12.091  15.482  0.00  0.00     0.209 HD
ENDBRANCH  41  42
ENDBRANCH  40  41
BRANCH  40  44
HETATM   44  C   UNK N   1      34.676  12.133  13.991  0.00  0.00     0.165 C 
HETATM   45  O   UNK N   1      34.350  11.085  13.454  0.00  0.00    -0.648 OA
BRANCH  44  46
HETATM   46  O   UNK N   1      34.043  12.521  15.111  0.00  0.00    -0.775 OA
HETATM   47  H   UNK N   1      33.434  13.216  15.271  0.00  0.00     0.167 HD
ENDBRANCH  44  46
ENDBRANCH  40  44
ENDBRANCH  38  40
ENDBRANCH  32  36
ENDBRANCH  30  32
ENDBRANCH  21  28
ENDBRANCH  19  21
ENDBRANCH  12  17
ENDBRANCH  10  12
ENDBRANCH   6   8
ENDBRANCH   3   6
ENDBRANCH   1   2
BRANCH   1  48
HETATM   48  C   UNK N   1      30.071  16.376   2.993  0.00  0.00     0.036 C 
BRANCH  48  49
HETATM   49  C   UNK N   1      31.026  16.162   4.160  0.00  0.00     0.023 C 
BRANCH  49  50
HETATM   50  C   UNK N   1      31.471  17.477   4.787  0.00  0.00     0.138 C 
BRANCH  50  51
HETATM   51  N   UNK N   1      32.269  17.200   5.951  0.00  0.00    -0.227 N 
HETATM   52  C   UNK N   1      31.705  17.185   7.250  0.00  0.00     0.665 C 
HETATM   53  N   UNK N   1      30.459  17.433   7.423  0.00  0.00    -0.235 N 
HETATM   54  N   UNK N   1      32.508  16.825   8.355  0.00  0.00    -0.235 N 
HETATM   55  H   UNK N   1      29.987  17.326   8.281  0.00  0.00     0.174 HD
ATOM     56  HN  UNK N   1      29.922  17.761   6.621  1.00  0.00     0.174 HD
HETATM   57  H   UNK N   1      33.370  16.372   8.213  0.00  0.00     0.174 HD
HETATM   58  H   UNK N   1      32.203  17.027   9.269  0.00  0.00     0.174 HD
HETATM   59  H   UNK N   1      33.229  17.017   5.842  0.00  0.00     0.177 HD
ENDBRANCH  50  51
ENDBRANCH  49  50
ENDBRANCH  48  49
ENDBRANCH   1  48
BRANCH   1  60
HETATM   60  N   UNK N   1      28.534  15.780   4.820  0.00  0.00    -0.346 N 
HETATM   61  C   UNK N   1      27.619  16.398   5.615  0.00  0.00     0.241 C 
HETATM   62  O   UNK N   1      27.552  16.065   6.786  0.00  0.00    -0.271 OA
HETATM   63  H   UNK N   1      29.174  15.194   5.285  0.00  0.00     0.163 HD
BRANCH  61  64
HETATM   64  C   UNK N   1      26.722  17.514   5.153  0.00  0.00     0.177 C 
BRANCH  64  65
HETATM   65  C   UNK N   1      27.591  18.699   4.777  0.00  0.00     0.045 C 
BRANCH  65  66
HETATM   66  C   UNK N   1      26.888  19.630   3.822  0.00  0.00     0.112 C 
BRANCH  66  67
HETATM   67  C   UNK N   1      25.730  20.274   4.502  0.00  0.00     0.139 C 
HETATM   68  O   UNK N   1      25.922  21.001   5.462  0.00  0.00    -0.650 OA
BRANCH  67  69
HETATM   69  O   UNK N   1      24.476  20.061   4.060  0.00  0.00    -0.776 OA
HETATM   70  H   UNK N   1      23.765  19.898   4.646  0.00  0.00     0.167 HD
ENDBRANCH  67  69
ENDBRANCH  66  67
ENDBRANCH  65  66
ENDBRANCH  64  65
BRANCH  64  71
HETATM   71  N   UNK N   1      25.874  17.154   4.036  0.00  0.00    -0.346 N 
HETATM   72  C   UNK N   1      24.611  16.661   4.125  0.00  0.00     0.241 C 
HETATM   73  O   UNK N   1      24.033  16.341   3.097  0.00  0.00    -0.271 OA
HETATM   74  H   UNK N   1      26.245  17.277   3.132  0.00  0.00     0.163 HD
BRANCH  72  75
HETATM   75  C   UNK N   1      23.917  16.456   5.449  0.00  0.00     0.177 C 
BRANCH  75  76
HETATM   76  C   UNK N   1      23.057  15.208   5.262  0.00  0.00     0.038 C 
BRANCH  76  77
HETATM   77  C   UNK N   1      23.659  13.967   5.885  0.00  0.00    -0.020 C 
HETATM   78  C   UNK N   1      24.595  13.335   4.878  0.00  0.00     0.009 C 
HETATM   79  C   UNK N   1      24.466  14.370   7.103  0.00  0.00     0.009 C 
ENDBRANCH  76  77
ENDBRANCH  75  76
BRANCH  75  80
HETATM   80  N   UNK N   1      23.054  17.601   5.713  0.00  0.00    -0.346 N 
HETATM   81  C   UNK N   1      21.822  17.559   6.301  0.00  0.00     0.241 C 
HETATM   82  O   UNK N   1      21.245  18.609   6.523  0.00  0.00    -0.271 OA
HETATM   83  H   UNK N   1      23.391  18.486   5.444  0.00  0.00     0.163 HD
BRANCH  81  84
HETATM   84  C   UNK N   1      21.167  16.245   6.677  0.00  0.00     0.177 C 
BRANCH  84  85
HETATM   85  C   UNK N   1      21.326  16.001   8.172  0.00  0.00     0.044 C 
BRANCH  85  86
HETATM   86  C   UNK N   1      20.402  14.875   8.623  0.00  0.00     0.105 C 
BRANCH  86  87
HETATM   87  C   UNK N   1      21.143  13.584   8.788  0.00  0.00     0.215 C 
HETATM   88  O   UNK N   1      20.949  12.657   8.020  0.00  0.00    -0.274 OA
HETATM   89  N   UNK N   1      22.060  13.458   9.766  0.00  0.00    -0.370 N 
HETATM   90  H   UNK N   1      22.707  12.717   9.742  0.00  0.00     0.159 HD
HETATM   91  H   UNK N   1      22.083  14.107  10.505  0.00  0.00     0.159 HD
ENDBRANCH  86  87
ENDBRANCH  85  86
ENDBRANCH  84  85
BRANCH  84  92
HETATM   92  N   UNK N   1      19.745  16.113   6.394  0.00  0.00    -0.346 N 
HETATM   93  C   UNK N   1      19.074  15.916   5.228  0.00  0.00     0.241 C 
HETATM   94  O   UNK N   1      17.912  15.554   5.298  0.00  0.00    -0.271 OA
HETATM   95  H   UNK N   1      19.167  16.178   7.188  0.00  0.00     0.163 HD
BRANCH  93  96
HETATM   96  C   UNK N   1      19.664  16.082   3.852  0.00  0.00     0.177 C 
BRANCH  96  97
HETATM   97  C   UNK N   1      19.649  17.507   3.322  0.00  0.00     0.045 C 
BRANCH  97  98
HETATM   98  C   UNK N   1      20.886  17.758   2.479  0.00  0.00     0.112 C 
BRANCH  98  99
HETATM   99  C   UNK N   1      20.502  17.861   1.042  0.00  0.00     0.139 C 
HETATM  100  O   UNK N   1      20.283  16.850   0.393  0.00  0.00    -0.650 OA
BRANCH  99 101
HETATM  101  O   UNK N   1      20.410  19.067   0.459  0.00  0.00    -0.776 OA
HETATM  102  H   UNK N   1      19.682  19.270  -0.096  0.00  0.00     0.167 HD
ENDBRANCH  99 101
ENDBRANCH  98  99
ENDBRANCH  97  98
ENDBRANCH  96  97
BRANCH  96 103
HETATM  103  N   UNK N   1      19.133  15.120   2.905  0.00  0.00    -0.346 N 
HETATM  104  C   UNK N   1      19.892  14.168   2.293  0.00  0.00     0.241 C 
HETATM  105  O   UNK N   1      19.358  13.400   1.507  0.00  0.00    -0.271 OA
HETATM  106  H   UNK N   1      18.173  15.157   2.692  0.00  0.00     0.163 HD
BRANCH 104 107
HETATM  107  C   UNK N   1      21.374  14.044   2.565  0.00  0.00     0.177 A 
HETATM  108  C   UNK N   1      21.791  12.559   2.574  0.00  0.00     0.044 A 
HETATM  109  C   UNK N   1      22.937  12.393   1.570  0.00  0.00     0.105 A 
HETATM  110  C   UNK N   1      23.002  13.739   0.977  0.00  0.00     0.218 A 
HETATM  111  O   UNK N   1      23.766  14.032   0.072  0.00  0.00    -0.274 OA
HETATM  112  N   UNK N   1      22.158  14.624   1.511  0.00  0.00    -0.348 N 
HETATM  113  H   UNK N   1      22.083  15.561   1.219  0.00  0.00     0.163 HD
ENDBRANCH 104 107
ENDBRANCH  96 103
ENDBRANCH  93  96
ENDBRANCH  84  92
ENDBRANCH  81  84
ENDBRANCH  75  80
ENDBRANCH  72  75
ENDBRANCH  64  71
ENDBRANCH  61  64
ENDBRANCH   1  60
TORSDOF 47
ENDMDL
