MODEL 1
REMARK VINA RESULT:      -7.5      0.000      0.000
REMARK  8 active torsions:
REMARK  status: ('A' for Active; 'I' for Inactive)
REMARK    1  A    between atoms: C_5  and  C_22 
REMARK    2  A    between atoms: C_7  and  O_10 
REMARK    3  A    between atoms: O_10  and  C_11 
REMARK    4  A    between atoms: C_11  and  C_12 
REMARK    5  A    between atoms: C_12  and  C_13 
REMARK    6  A    between atoms: C_13  and  C_14 
REMARK    7  A    between atoms: C_14  and  C_15 
REMARK    8  A    between atoms: C_15  and  N_16 
ROOT
HETATM    1  C   UNK N   1      38.822  12.874  10.078  0.00  0.00     0.089 C 
HETATM    2  C   UNK N   1      37.795  13.658  10.813  0.00  0.00     0.079 A 
HETATM    3  N   UNK N   1      37.387  13.255  12.045  0.00  0.00    -0.345 N 
ATOM      4  HN  UNK N   1      37.791  12.415  12.458  1.00  0.00     0.167 HD
HETATM    5  C   UNK N   1      36.445  13.959  12.735  0.00  0.00     0.047 A 
HETATM    6  C   UNK N   1      35.899  15.108  12.165  0.00  0.00     0.086 A 
HETATM    7  C   UNK N   1      36.353  15.527  10.914  0.00  0.00     0.145 A 
HETATM    8  N   UNK N   1      37.296  14.794  10.264  0.00  0.00    -0.327 N 
ATOM      9  HN  UNK N   1      37.632  15.102   9.351  1.00  0.00     0.169 HD
ENDROOT
BRANCH   7  10
HETATM   10  O   UNK N   1      35.879  16.651  10.337  0.00  0.00    -0.336 OA
BRANCH  10  11
HETATM   11  C   UNK N   1      34.623  16.711   9.778  0.00  0.00     0.177 C 
BRANCH  11  12
HETATM   12  C   UNK N   1      34.646  17.653   8.584  0.00  0.00     0.027 C 
BRANCH  12  13
HETATM   13  C   UNK N   1      34.304  16.934   7.276  0.00  0.00     0.004 C 
BRANCH  13  14
HETATM   14  C   UNK N   1      32.965  17.429   6.736  0.00  0.00     0.030 C 
BRANCH  14  15
HETATM   15  C   UNK N   1      31.787  16.723   7.403  0.00  0.00     0.272 C 
BRANCH  15  16
HETATM   16  N   UNK N   1      30.765  17.678   7.809  0.00  0.00     0.088 N 
HETATM   17  C   UNK N   1      30.306  17.307   9.148  0.00  0.00     0.272 C 
HETATM   18  C   UNK N   1      29.317  18.350   9.648  0.00  0.00     0.030 C 
HETATM   19  C   UNK N   1      28.111  18.365   8.716  0.00  0.00     0.003 C 
HETATM   20  C   UNK N   1      28.552  18.562   7.265  0.00  0.00     0.030 C 
HETATM   21  C   UNK N   1      29.632  17.543   6.897  0.00  0.00     0.272 C 
ENDBRANCH  15  16
ENDBRANCH  14  15
ENDBRANCH  13  14
ENDBRANCH  12  13
ENDBRANCH  11  12
ENDBRANCH  10  11
ENDBRANCH   7  10
BRANCH   5  22
HETATM   22  C   UNK N   1      36.133  13.616  14.135  0.00  0.00    -0.009 A 
HETATM   23  C   UNK N   1      36.781  14.288  15.180  0.00  0.00     0.017 A 
HETATM   24  C   UNK N   1      36.360  14.107  16.500  0.00  0.00     0.043 A 
HETATM   25  C   UNK N   1      35.292  13.251  16.783  0.00  0.00     0.116 A 
HETATM   26  C   UNK N   1      34.666  12.549  15.752  0.00  0.00     0.043 A 
HETATM   27  F   UNK N   1      34.849  13.119  18.056  0.00  0.00    -0.206 F 
HETATM   28  C   UNK N   1      35.078  12.736  14.432  0.00  0.00     0.017 A 
ENDBRANCH   5  22
TORSDOF 8
ENDMDL
MODEL 2
REMARK VINA RESULT:      -6.9     10.240     13.406
REMARK  8 active torsions:
REMARK  status: ('A' for Active; 'I' for Inactive)
REMARK    1  A    between atoms: C_5  and  C_22 
REMARK    2  A    between atoms: C_7  and  O_10 
REMARK    3  A    between atoms: O_10  and  C_11 
REMARK    4  A    between atoms: C_11  and  C_12 
REMARK    5  A    between atoms: C_12  and  C_13 
REMARK    6  A    between atoms: C_13  and  C_14 
REMARK    7  A    between atoms: C_14  and  C_15 
REMARK    8  A    between atoms: C_15  and  N_16 
ROOT
HETATM    1  C   UNK N   1      17.709  17.164   9.049  0.00  0.00     0.089 C 
HETATM    2  C   UNK N   1      19.005  16.615   8.571  0.00  0.00     0.079 A 
HETATM    3  N   UNK N   1      19.633  15.641   9.281  0.00  0.00    -0.345 N 
ATOM      4  HN  UNK N   1      19.208  15.293  10.140  1.00  0.00     0.167 HD
HETATM    5  C   UNK N   1      20.823  15.125   8.861  0.00  0.00     0.047 A 
HETATM    6  C   UNK N   1      21.397  15.605   7.685  0.00  0.00     0.086 A 
HETATM    7  C   UNK N   1      20.723  16.581   6.950  0.00  0.00     0.145 A 
HETATM    8  N   UNK N   1      19.538  17.065   7.406  0.00  0.00    -0.327 N 
ATOM      9  HN  UNK N   1      19.042  17.775   6.868  1.00  0.00     0.169 HD
ENDROOT
BRANCH   7  10
HETATM   10  O   UNK N   1      21.223  17.052   5.788  0.00  0.00    -0.336 OA
BRANCH  10  11
HETATM   11  C   UNK N   1      21.943  18.223   5.723  0.00  0.00     0.177 C 
BRANCH  11  12
HETATM   12  C   UNK N   1      23.208  17.994   4.910  0.00  0.00     0.027 C 
BRANCH  12  13
HETATM   13  C   UNK N   1      23.253  18.873   3.657  0.00  0.00     0.004 C 
BRANCH  13  14
HETATM   14  C   UNK N   1      24.410  19.865   3.750  0.00  0.00     0.030 C 
BRANCH  14  15
HETATM   15  C   UNK N   1      25.743  19.223   3.373  0.00  0.00     0.272 C 
BRANCH  15  16
HETATM   16  N   UNK N   1      26.777  19.554   4.343  0.00  0.00     0.088 N 
HETATM   17  C   UNK N   1      26.954  18.403   5.228  0.00  0.00     0.272 C 
HETATM   18  C   UNK N   1      28.107  18.675   6.183  0.00  0.00     0.030 C 
HETATM   19  C   UNK N   1      27.756  19.887   7.039  0.00  0.00     0.003 C 
HETATM   20  C   UNK N   1      27.376  21.078   6.158  0.00  0.00     0.030 C 
HETATM   21  C   UNK N   1      26.297  20.670   5.154  0.00  0.00     0.272 C 
ENDBRANCH  15  16
ENDBRANCH  14  15
ENDBRANCH  13  14
ENDBRANCH  12  13
ENDBRANCH  11  12
ENDBRANCH  10  11
ENDBRANCH   7  10
BRANCH   5  22
HETATM   22  C   UNK N   1      21.411  13.956   9.540  0.00  0.00    -0.009 A 
HETATM   23  C   UNK N   1      22.782  13.691   9.412  0.00  0.00     0.017 A 
HETATM   24  C   UNK N   1      23.382  12.702  10.198  0.00  0.00     0.043 A 
HETATM   25  C   UNK N   1      22.616  11.973  11.111  0.00  0.00     0.116 A 
HETATM   26  C   UNK N   1      21.244  12.206  11.217  0.00  0.00     0.043 A 
HETATM   27  F   UNK N   1      23.209  11.055  11.911  0.00  0.00    -0.206 F 
HETATM   28  C   UNK N   1      20.645  13.198  10.441  0.00  0.00     0.017 A 
ENDBRANCH   5  22
TORSDOF 8
ENDMDL
MODEL 3
REMARK VINA RESULT:      -6.8      1.615      2.844
REMARK  8 active torsions:
REMARK  status: ('A' for Active; 'I' for Inactive)
REMARK    1  A    between atoms: C_5  and  C_22 
REMARK    2  A    between atoms: C_7  and  O_10 
REMARK    3  A    between atoms: O_10  and  C_11 
REMARK    4  A    between atoms: C_11  and  C_12 
REMARK    5  A    between atoms: C_12  and  C_13 
REMARK    6  A    between atoms: C_13  and  C_14 
REMARK    7  A    between atoms: C_14  and  C_15 
REMARK    8  A    between atoms: C_15  and  N_16 
ROOT
HETATM    1  C   UNK N   1      38.726  13.358  10.068  0.00  0.00     0.089 C 
HETATM    2  C   UNK N   1      37.485  13.797  10.759  0.00  0.00     0.079 A 
HETATM    3  N   UNK N   1      37.258  13.426  12.046  0.00  0.00    -0.345 N 
ATOM      4  HN  UNK N   1      37.943  12.847  12.531  1.00  0.00     0.167 HD
HETATM    5  C   UNK N   1      36.125  13.816  12.697  0.00  0.00     0.047 A 
HETATM    6  C   UNK N   1      35.194  14.609  12.028  0.00  0.00     0.086 A 
HETATM    7  C   UNK N   1      35.458  15.009  10.718  0.00  0.00     0.145 A 
HETATM    8  N   UNK N   1      36.601  14.597  10.110  0.00  0.00    -0.327 N 
ATOM      9  HN  UNK N   1      36.798  14.892   9.154  1.00  0.00     0.169 HD
ENDROOT
BRANCH   7  10
HETATM   10  O   UNK N   1      34.602  15.804  10.043  0.00  0.00    -0.336 OA
BRANCH  10  11
HETATM   11  C   UNK N   1      34.989  17.017   9.521  0.00  0.00     0.177 C 
BRANCH  11  12
HETATM   12  C   UNK N   1      34.421  17.169   8.118  0.00  0.00     0.027 C 
BRANCH  12  13
HETATM   13  C   UNK N   1      33.144  18.014   8.101  0.00  0.00     0.004 C 
BRANCH  13  14
HETATM   14  C   UNK N   1      31.914  17.112   8.141  0.00  0.00     0.030 C 
BRANCH  14  15
HETATM   15  C   UNK N   1      31.183  17.087   6.800  0.00  0.00     0.272 C 
BRANCH  15  16
HETATM   16  N   UNK N   1      32.117  16.908   5.697  0.00  0.00     0.088 N 
HETATM   17  C   UNK N   1      31.496  17.447   4.487  0.00  0.00     0.272 C 
HETATM   18  C   UNK N   1      32.491  17.378   3.338  0.00  0.00     0.030 C 
HETATM   19  C   UNK N   1      32.842  15.916   3.085  0.00  0.00     0.003 C 
HETATM   20  C   UNK N   1      33.323  15.245   4.372  0.00  0.00     0.030 C 
HETATM   21  C   UNK N   1      32.312  15.475   5.497  0.00  0.00     0.272 C 
ENDBRANCH  15  16
ENDBRANCH  14  15
ENDBRANCH  13  14
ENDBRANCH  12  13
ENDBRANCH  11  12
ENDBRANCH  10  11
ENDBRANCH   7  10
BRANCH   5  22
HETATM   22  C   UNK N   1      35.965  13.556  14.140  0.00  0.00    -0.009 A 
HETATM   23  C   UNK N   1      36.748  14.257  15.066  0.00  0.00     0.017 A 
HETATM   24  C   UNK N   1      36.476  14.158  16.434  0.00  0.00     0.043 A 
HETATM   25  C   UNK N   1      35.422  13.356  16.882  0.00  0.00     0.116 A 
HETATM   26  C   UNK N   1      34.661  12.626  15.967  0.00  0.00     0.043 A 
HETATM   27  F   UNK N   1      35.124  13.305  18.202  0.00  0.00    -0.206 F 
HETATM   28  C   UNK N   1      34.925  12.731  14.602  0.00  0.00     0.017 A 
ENDBRANCH   5  22
TORSDOF 8
ENDMDL
MODEL 4
REMARK VINA RESULT:      -6.8      2.167      3.550
REMARK  8 active torsions:
REMARK  status: ('A' for Active; 'I' for Inactive)
REMARK    1  A    between atoms: C_5  and  C_22 
REMARK    2  A    between atoms: C_7  and  O_10 
REMARK    3  A    between atoms: O_10  and  C_11 
REMARK    4  A    between atoms: C_11  and  C_12 
REMARK    5  A    between atoms: C_12  and  C_13 
REMARK    6  A    between atoms: C_13  and  C_14 
REMARK    7  A    between atoms: C_14  and  C_15 
REMARK    8  A    between atoms: C_15  and  N_16 
ROOT
HETATM    1  C   UNK N   1      33.877  10.080  12.058  0.00  0.00     0.089 C 
HETATM    2  C   UNK N   1      34.505  11.198  12.810  0.00  0.00     0.079 A 
HETATM    3  N   UNK N   1      34.389  11.255  14.163  0.00  0.00    -0.345 N 
ATOM      4  HN  UNK N   1      33.870  10.528  14.654  1.00  0.00     0.167 HD
HETATM    5  C   UNK N   1      34.955  12.274  14.871  0.00  0.00     0.047 A 
HETATM    6  C   UNK N   1      35.664  13.264  14.192  0.00  0.00     0.086 A 
HETATM    7  C   UNK N   1      35.803  13.172  12.807  0.00  0.00     0.145 A 
HETATM    8  N   UNK N   1      35.222  12.138  12.143  0.00  0.00    -0.327 N 
ATOM      9  HN  UNK N   1      35.326  12.067  11.131  1.00  0.00     0.169 HD
ENDROOT
BRANCH   7  10
HETATM   10  O   UNK N   1      36.508  14.088  12.112  0.00  0.00    -0.336 OA
BRANCH  10  11
HETATM   11  C   UNK N   1      35.981  15.313  11.773  0.00  0.00     0.177 C 
BRANCH  11  12
HETATM   12  C   UNK N   1      35.901  15.428  10.258  0.00  0.00     0.027 C 
BRANCH  12  13
HETATM   13  C   UNK N   1      34.566  16.015   9.794  0.00  0.00     0.004 C 
BRANCH  13  14
HETATM   14  C   UNK N   1      34.700  16.581   8.383  0.00  0.00     0.030 C 
BRANCH  14  15
HETATM   15  C   UNK N   1      34.026  17.945   8.250  0.00  0.00     0.272 C 
BRANCH  15  16
HETATM   16  N   UNK N   1      33.060  17.949   7.160  0.00  0.00     0.088 N 
HETATM   17  C   UNK N   1      31.957  17.061   7.529  0.00  0.00     0.272 C 
HETATM   18  C   UNK N   1      30.877  17.129   6.460  0.00  0.00     0.030 C 
HETATM   19  C   UNK N   1      31.464  16.640   5.141  0.00  0.00     0.003 C 
HETATM   20  C   UNK N   1      32.739  17.412   4.797  0.00  0.00     0.030 C 
HETATM   21  C   UNK N   1      33.709  17.385   5.979  0.00  0.00     0.272 C 
ENDBRANCH  15  16
ENDBRANCH  14  15
ENDBRANCH  13  14
ENDBRANCH  12  13
ENDBRANCH  11  12
ENDBRANCH  10  11
ENDBRANCH   7  10
BRANCH   5  22
HETATM   22  C   UNK N   1      34.972  12.240  16.345  0.00  0.00    -0.009 A 
HETATM   23  C   UNK N   1      35.155  11.021  17.013  0.00  0.00     0.017 A 
HETATM   24  C   UNK N   1      35.361  11.001  18.395  0.00  0.00     0.043 A 
HETATM   25  C   UNK N   1      35.382  12.198  19.117  0.00  0.00     0.116 A 
HETATM   26  C   UNK N   1      35.164  13.412  18.464  0.00  0.00     0.043 A 
HETATM   27  F   UNK N   1      35.638  12.182  20.446  0.00  0.00    -0.206 F 
HETATM   28  C   UNK N   1      34.968  13.435  17.083  0.00  0.00     0.017 A 
ENDBRANCH   5  22
TORSDOF 8
ENDMDL
MODEL 5
REMARK VINA RESULT:      -6.7     17.254     21.095
REMARK  8 active torsions:
REMARK  status: ('A' for Active; 'I' for Inactive)
REMARK    1  A    between atoms: C_5  and  C_22 
REMARK    2  A    between atoms: C_7  and  O_10 
REMARK    3  A    between atoms: O_10  and  C_11 
REMARK    4  A    between atoms: C_11  and  C_12 
REMARK    5  A    between atoms: C_12  and  C_13 
REMARK    6  A    between atoms: C_13  and  C_14 
REMARK    7  A    between atoms: C_14  and  C_15 
REMARK    8  A    between atoms: C_15  and  N_16 
ROOT
HETATM    1  C   UNK N   1      24.310  20.942  -6.765  0.00  0.00     0.089 C 
HETATM    2  C   UNK N   1      25.305  22.013  -7.030  0.00  0.00     0.079 A 
HETATM    3  N   UNK N   1      25.216  23.200  -6.375  0.00  0.00    -0.345 N 
ATOM      4  HN  UNK N   1      24.463  23.348  -5.703  1.00  0.00     0.167 HD
HETATM    5  C   UNK N   1      26.118  24.197  -6.605  0.00  0.00     0.047 A 
HETATM    6  C   UNK N   1      27.145  23.987  -7.523  0.00  0.00     0.086 A 
HETATM    7  C   UNK N   1      27.243  22.752  -8.163  0.00  0.00     0.145 A 
HETATM    8  N   UNK N   1      26.322  21.787  -7.901  0.00  0.00    -0.327 N 
ATOM      9  HN  UNK N   1      26.395  20.881  -8.364  1.00  0.00     0.169 HD
ENDROOT
BRANCH   7  10
HETATM   10  O   UNK N   1      28.240  22.491  -9.034  0.00  0.00    -0.336 OA
BRANCH  10  11
HETATM   11  C   UNK N   1      29.495  22.113  -8.616  0.00  0.00     0.177 C 
BRANCH  11  12
HETATM   12  C   UNK N   1      29.654  20.610  -8.788  0.00  0.00     0.027 C 
BRANCH  12  13
HETATM   13  C   UNK N   1      29.635  19.871  -7.447  0.00  0.00     0.004 C 
BRANCH  13  14
HETATM   14  C   UNK N   1      29.817  20.860  -6.297  0.00  0.00     0.030 C 
BRANCH  14  15
HETATM   15  C   UNK N   1      31.146  20.652  -5.575  0.00  0.00     0.272 C 
BRANCH  15  16
HETATM   16  N   UNK N   1      31.390  21.714  -4.608  0.00  0.00     0.088 N 
HETATM   17  C   UNK N   1      30.334  21.656  -3.597  0.00  0.00     0.272 C 
HETATM   18  C   UNK N   1      30.621  22.681  -2.510  0.00  0.00     0.030 C 
HETATM   19  C   UNK N   1      30.609  24.071  -3.136  0.00  0.00     0.003 C 
HETATM   20  C   UNK N   1      31.563  24.136  -4.329  0.00  0.00     0.030 C 
HETATM   21  C   UNK N   1      31.271  22.993  -5.302  0.00  0.00     0.272 C 
ENDBRANCH  15  16
ENDBRANCH  14  15
ENDBRANCH  13  14
ENDBRANCH  12  13
ENDBRANCH  11  12
ENDBRANCH  10  11
ENDBRANCH   7  10
BRANCH   5  22
HETATM   22  C   UNK N   1      26.117  25.412  -5.770  0.00  0.00    -0.009 A 
HETATM   23  C   UNK N   1      25.313  26.504  -6.126  0.00  0.00     0.017 A 
HETATM   24  C   UNK N   1      25.159  27.580  -5.248  0.00  0.00     0.043 A 
HETATM   25  C   UNK N   1      25.811  27.572  -4.011  0.00  0.00     0.116 A 
HETATM   26  C   UNK N   1      26.642  26.506  -3.665  0.00  0.00     0.043 A 
HETATM   27  F   UNK N   1      25.617  28.589  -3.138  0.00  0.00    -0.206 F 
HETATM   28  C   UNK N   1      26.789  25.427  -4.536  0.00  0.00     0.017 A 
ENDBRANCH   5  22
TORSDOF 8
ENDMDL
MODEL 6
REMARK VINA RESULT:      -6.6     19.194     22.612
REMARK  8 active torsions:
REMARK  status: ('A' for Active; 'I' for Inactive)
REMARK    1  A    between atoms: C_5  and  C_22 
REMARK    2  A    between atoms: C_7  and  O_10 
REMARK    3  A    between atoms: O_10  and  C_11 
REMARK    4  A    between atoms: C_11  and  C_12 
REMARK    5  A    between atoms: C_12  and  C_13 
REMARK    6  A    between atoms: C_13  and  C_14 
REMARK    7  A    between atoms: C_14  and  C_15 
REMARK    8  A    between atoms: C_15  and  N_16 
ROOT
HETATM    1  C   UNK N   1      26.233  26.201 -11.480  0.00  0.00     0.089 C 
HETATM    2  C   UNK N   1      25.998  25.700 -10.101  0.00  0.00     0.079 A 
HETATM    3  N   UNK N   1      26.180  26.527  -9.038  0.00  0.00    -0.345 N 
ATOM      4  HN  UNK N   1      26.478  27.489  -9.196  1.00  0.00     0.167 HD
HETATM    5  C   UNK N   1      25.972  26.086  -7.765  0.00  0.00     0.047 A 
HETATM    6  C   UNK N   1      25.562  24.770  -7.558  0.00  0.00     0.086 A 
HETATM    7  C   UNK N   1      25.347  23.944  -8.661  0.00  0.00     0.145 A 
HETATM    8  N   UNK N   1      25.566  24.427  -9.912  0.00  0.00    -0.327 N 
ATOM      9  HN  UNK N   1      25.405  23.825 -10.720  1.00  0.00     0.169 HD
ENDROOT
BRANCH   7  10
HETATM   10  O   UNK N   1      24.918  22.672  -8.511  0.00  0.00    -0.336 OA
BRANCH  10  11
HETATM   11  C   UNK N   1      25.643  21.735  -7.812  0.00  0.00     0.177 C 
BRANCH  11  12
HETATM   12  C   UNK N   1      26.831  21.287  -8.649  0.00  0.00     0.027 C 
BRANCH  12  13
HETATM   13  C   UNK N   1      28.115  21.190  -7.820  0.00  0.00     0.004 C 
BRANCH  13  14
HETATM   14  C   UNK N   1      28.100  22.227  -6.700  0.00  0.00     0.030 C 
BRANCH  14  15
HETATM   15  C   UNK N   1      29.511  22.628  -6.276  0.00  0.00     0.272 C 
BRANCH  15  16
HETATM   16  N   UNK N   1      29.481  23.501  -5.111  0.00  0.00     0.088 N 
HETATM   17  C   UNK N   1      28.417  24.485  -5.310  0.00  0.00     0.272 C 
HETATM   18  C   UNK N   1      28.285  25.344  -4.061  0.00  0.00     0.030 C 
HETATM   19  C   UNK N   1      29.595  26.093  -3.844  0.00  0.00     0.003 C 
HETATM   20  C   UNK N   1      30.775  25.122  -3.817  0.00  0.00     0.030 C 
HETATM   21  C   UNK N   1      30.750  24.223  -5.055  0.00  0.00     0.272 C 
ENDBRANCH  15  16
ENDBRANCH  14  15
ENDBRANCH  13  14
ENDBRANCH  12  13
ENDBRANCH  11  12
ENDBRANCH  10  11
ENDBRANCH   7  10
BRANCH   5  22
HETATM   22  C   UNK N   1      26.005  27.030  -6.633  0.00  0.00    -0.009 A 
HETATM   23  C   UNK N   1      25.053  26.927  -5.609  0.00  0.00     0.017 A 
HETATM   24  C   UNK N   1      25.187  27.689  -4.445  0.00  0.00     0.043 A 
HETATM   25  C   UNK N   1      26.271  28.560  -4.300  0.00  0.00     0.116 A 
HETATM   26  C   UNK N   1      27.202  28.696  -5.331  0.00  0.00     0.043 A 
HETATM   27  F   UNK N   1      26.431  29.256  -3.150  0.00  0.00    -0.206 F 
HETATM   28  C   UNK N   1      27.075  27.929  -6.489  0.00  0.00     0.017 A 
ENDBRANCH   5  22
TORSDOF 8
ENDMDL
MODEL 7
REMARK VINA RESULT:      -6.5     17.369     19.950
REMARK  8 active torsions:
REMARK  status: ('A' for Active; 'I' for Inactive)
REMARK    1  A    between atoms: C_5  and  C_22 
REMARK    2  A    between atoms: C_7  and  O_10 
REMARK    3  A    between atoms: O_10  and  C_11 
REMARK    4  A    between atoms: C_11  and  C_12 
REMARK    5  A    between atoms: C_12  and  C_13 
REMARK    6  A    between atoms: C_13  and  C_14 
REMARK    7  A    between atoms: C_14  and  C_15 
REMARK    8  A    between atoms: C_15  and  N_16 
ROOT
HETATM    1  C   UNK N   1      31.709  29.138  -2.239  0.00  0.00     0.089 C 
HETATM    2  C   UNK N   1      30.806  28.185  -2.935  0.00  0.00     0.079 A 
HETATM    3  N   UNK N   1      31.144  26.872  -3.023  0.00  0.00    -0.345 N 
ATOM      4  HN  UNK N   1      32.018  26.548  -2.608  1.00  0.00     0.167 HD
HETATM    5  C   UNK N   1      30.330  25.981  -3.660  0.00  0.00     0.047 A 
HETATM    6  C   UNK N   1      29.137  26.430  -4.222  0.00  0.00     0.086 A 
HETATM    7  C   UNK N   1      28.788  27.775  -4.094  0.00  0.00     0.145 A 
HETATM    8  N   UNK N   1      29.630  28.626  -3.449  0.00  0.00    -0.327 N 
ATOM      9  HN  UNK N   1      29.375  29.609  -3.350  1.00  0.00     0.169 HD
ENDROOT
BRANCH   7  10
HETATM   10  O   UNK N   1      27.627  28.249  -4.592  0.00  0.00    -0.336 OA
BRANCH  10  11
HETATM   11  C   UNK N   1      26.482  28.322  -3.833  0.00  0.00     0.177 C 
BRANCH  11  12
HETATM   12  C   UNK N   1      25.567  27.159  -4.184  0.00  0.00     0.027 C 
BRANCH  12  13
HETATM   13  C   UNK N   1      24.929  27.325  -5.566  0.00  0.00     0.004 C 
BRANCH  13  14
HETATM   14  C   UNK N   1      25.516  26.308  -6.543  0.00  0.00     0.030 C 
BRANCH  14  15
HETATM   15  C   UNK N   1      25.891  25.002  -5.847  0.00  0.00     0.272 C 
BRANCH  15  16
HETATM   16  N   UNK N   1      26.769  24.196  -6.683  0.00  0.00     0.088 N 
HETATM   17  C   UNK N   1      25.946  23.221  -7.397  0.00  0.00     0.272 C 
HETATM   18  C   UNK N   1      26.819  22.436  -8.365  0.00  0.00     0.030 C 
HETATM   19  C   UNK N   1      27.872  21.677  -7.565  0.00  0.00     0.003 C 
HETATM   20  C   UNK N   1      28.645  22.628  -6.650  0.00  0.00     0.030 C 
HETATM   21  C   UNK N   1      27.674  23.456  -5.807  0.00  0.00     0.272 C 
ENDBRANCH  15  16
ENDBRANCH  14  15
ENDBRANCH  13  14
ENDBRANCH  12  13
ENDBRANCH  11  12
ENDBRANCH  10  11
ENDBRANCH   7  10
BRANCH   5  22
HETATM   22  C   UNK N   1      30.616  24.536  -3.603  0.00  0.00    -0.009 A 
HETATM   23  C   UNK N   1      29.820  23.697  -2.812  0.00  0.00     0.017 A 
HETATM   24  C   UNK N   1      29.961  22.308  -2.898  0.00  0.00     0.043 A 
HETATM   25  C   UNK N   1      30.901  21.753  -3.771  0.00  0.00     0.116 A 
HETATM   26  C   UNK N   1      31.723  22.583  -4.534  0.00  0.00     0.043 A 
HETATM   27  F   UNK N   1      30.998  20.408  -3.894  0.00  0.00    -0.206 F 
HETATM   28  C   UNK N   1      31.577  23.968  -4.458  0.00  0.00     0.017 A 
ENDBRANCH   5  22
TORSDOF 8
ENDMDL
MODEL 8
REMARK VINA RESULT:      -6.5      6.170      9.816
REMARK  8 active torsions:
REMARK  status: ('A' for Active; 'I' for Inactive)
REMARK    1  A    between atoms: C_5  and  C_22 
REMARK    2  A    between atoms: C_7  and  O_10 
REMARK    3  A    between atoms: O_10  and  C_11 
REMARK    4  A    between atoms: C_11  and  C_12 
REMARK    5  A    between atoms: C_12  and  C_13 
REMARK    6  A    between atoms: C_13  and  C_14 
REMARK    7  A    between atoms: C_14  and  C_15 
REMARK    8  A    between atoms: C_15  and  N_16 
ROOT
HETATM    1  C   UNK N   1      28.750  14.426   2.410  0.00  0.00     0.089 C 
HETATM    2  C   UNK N   1      29.427  15.508   3.171  0.00  0.00     0.079 A 
HETATM    3  N   UNK N   1      28.694  16.515   3.716  0.00  0.00    -0.345 N 
ATOM      4  HN  UNK N   1      27.681  16.520   3.598  1.00  0.00     0.167 HD
HETATM    5  C   UNK N   1      29.295  17.519   4.416  0.00  0.00     0.047 A 
HETATM    6  C   UNK N   1      30.679  17.504   4.575  0.00  0.00     0.086 A 
HETATM    7  C   UNK N   1      31.414  16.446   4.039  0.00  0.00     0.145 A 
HETATM    8  N   UNK N   1      30.771  15.466   3.350  0.00  0.00    -0.327 N 
ATOM      9  HN  UNK N   1      31.306  14.689   2.961  1.00  0.00     0.169 HD
ENDROOT
BRANCH   7  10
HETATM   10  O   UNK N   1      32.752  16.371   4.197  0.00  0.00    -0.336 OA
BRANCH  10  11
HETATM   11  C   UNK N   1      33.523  15.483   3.483  0.00  0.00     0.177 C 
BRANCH  11  12
HETATM   12  C   UNK N   1      34.294  14.594   4.446  0.00  0.00     0.027 C 
BRANCH  12  13
HETATM   13  C   UNK N   1      33.461  13.401   4.921  0.00  0.00     0.004 C 
BRANCH  13  14
HETATM   14  C   UNK N   1      32.914  13.663   6.323  0.00  0.00     0.030 C 
BRANCH  14  15
HETATM   15  C   UNK N   1      33.946  14.344   7.218  0.00  0.00     0.272 C 
BRANCH  15  16
HETATM   16  N   UNK N   1      33.353  15.448   7.958  0.00  0.00     0.088 N 
HETATM   17  C   UNK N   1      31.926  15.493   7.638  0.00  0.00     0.272 C 
HETATM   18  C   UNK N   1      31.254  16.566   8.481  0.00  0.00     0.030 C 
HETATM   19  C   UNK N   1      31.866  17.917   8.128  0.00  0.00     0.003 C 
HETATM   20  C   UNK N   1      33.388  17.874   8.264  0.00  0.00     0.030 C 
HETATM   21  C   UNK N   1      33.955  16.690   7.478  0.00  0.00     0.272 C 
ENDBRANCH  15  16
ENDBRANCH  14  15
ENDBRANCH  13  14
ENDBRANCH  12  13
ENDBRANCH  11  12
ENDBRANCH  10  11
ENDBRANCH   7  10
BRANCH   5  22
HETATM   22  C   UNK N   1      28.484  18.510   5.146  0.00  0.00    -0.009 A 
HETATM   23  C   UNK N   1      28.436  18.479   6.546  0.00  0.00     0.017 A 
HETATM   24  C   UNK N   1      27.828  19.521   7.252  0.00  0.00     0.043 A 
HETATM   25  C   UNK N   1      27.262  20.597   6.562  0.00  0.00     0.116 A 
HETATM   26  C   UNK N   1      27.272  20.617   5.167  0.00  0.00     0.043 A 
HETATM   27  F   UNK N   1      26.722  21.633   7.248  0.00  0.00    -0.206 F 
HETATM   28  C   UNK N   1      27.887  19.583   4.461  0.00  0.00     0.017 A 
ENDBRANCH   5  22
TORSDOF 8
ENDMDL
MODEL 9
REMARK VINA RESULT:      -6.5      7.530     13.342
REMARK  8 active torsions:
REMARK  status: ('A' for Active; 'I' for Inactive)
REMARK    1  A    between atoms: C_5  and  C_22 
REMARK    2  A    between atoms: C_7  and  O_10 
REMARK    3  A    between atoms: O_10  and  C_11 
REMARK    4  A    between atoms: C_11  and  C_12 
REMARK    5  A    between atoms: C_12  and  C_13 
REMARK    6  A    between atoms: C_13  and  C_14 
REMARK    7  A    between atoms: C_14  and  C_15 
REMARK    8  A    between atoms: C_15  and  N_16 
ROOT
HETATM    1  C   UNK N   1      20.461  20.171   2.991  0.00  0.00     0.089 C 
HETATM    2  C   UNK N   1      21.469  19.416   3.780  0.00  0.00     0.079 A 
HETATM    3  N   UNK N   1      21.073  18.641   4.823  0.00  0.00    -0.345 N 
ATOM      4  HN  UNK N   1      20.082  18.582   5.058  1.00  0.00     0.167 HD
HETATM    5  C   UNK N   1      21.982  17.942   5.561  0.00  0.00     0.047 A 
HETATM    6  C   UNK N   1      23.334  18.025   5.233  0.00  0.00     0.086 A 
HETATM    7  C   UNK N   1      23.721  18.798   4.138  0.00  0.00     0.145 A 
HETATM    8  N   UNK N   1      22.779  19.476   3.430  0.00  0.00    -0.327 N 
ATOM      9  HN  UNK N   1      23.060  20.039   2.627  1.00  0.00     0.169 HD
ENDROOT
BRANCH   7  10
HETATM   10  O   UNK N   1      25.015  18.882   3.762  0.00  0.00    -0.336 OA
BRANCH  10  11
HETATM   11  C   UNK N   1      25.617  20.086   3.481  0.00  0.00     0.177 C 
BRANCH  11  12
HETATM   12  C   UNK N   1      27.106  19.988   3.776  0.00  0.00     0.027 C 
BRANCH  12  13
HETATM   13  C   UNK N   1      27.400  19.047   4.947  0.00  0.00     0.004 C 
BRANCH  13  14
HETATM   14  C   UNK N   1      28.529  18.086   4.581  0.00  0.00     0.030 C 
BRANCH  14  15
HETATM   15  C   UNK N   1      28.628  16.923   5.566  0.00  0.00     0.272 C 
BRANCH  15  16
HETATM   16  N   UNK N   1      30.014  16.651   5.918  0.00  0.00     0.088 N 
HETATM   17  C   UNK N   1      30.273  17.240   7.231  0.00  0.00     0.272 C 
HETATM   18  C   UNK N   1      31.681  16.877   7.678  0.00  0.00     0.030 C 
HETATM   19  C   UNK N   1      32.675  17.468   6.685  0.00  0.00     0.003 C 
HETATM   20  C   UNK N   1      32.337  17.033   5.258  0.00  0.00     0.030 C 
HETATM   21  C   UNK N   1      30.869  17.332   4.948  0.00  0.00     0.272 C 
ENDBRANCH  15  16
ENDBRANCH  14  15
ENDBRANCH  13  14
ENDBRANCH  12  13
ENDBRANCH  11  12
ENDBRANCH  10  11
ENDBRANCH   7  10
BRANCH   5  22
HETATM   22  C   UNK N   1      21.532  16.973   6.578  0.00  0.00    -0.009 A 
HETATM   23  C   UNK N   1      22.192  15.744   6.711  0.00  0.00     0.017 A 
HETATM   24  C   UNK N   1      21.899  14.903   7.789  0.00  0.00     0.043 A 
HETATM   25  C   UNK N   1      20.944  15.284   8.736  0.00  0.00     0.116 A 
HETATM   26  C   UNK N   1      20.257  16.490   8.589  0.00  0.00     0.043 A 
HETATM   27  F   UNK N   1      20.702  14.495   9.809  0.00  0.00    -0.206 F 
HETATM   28  C   UNK N   1      20.554  17.335   7.520  0.00  0.00     0.017 A 
ENDBRANCH   5  22
TORSDOF 8
ENDMDL
