REMARK  6 active torsions:
REMARK  status: ('A' for Active; 'I' for Inactive)
REMARK    1  A    between atoms: N_2  and  C_3 
REMARK       I    between atoms: N_2  and  C_10 
REMARK    2  A    between atoms: C_3  and  C_4 
REMARK    3  A    between atoms: C_4  and  O_5 
REMARK    4  A    between atoms: O_5  and  P_6 
REMARK    5  A    between atoms: P_6  and  O_8 
REMARK    6  A    between atoms: P_6  and  O_9 
REMARK       I    between atoms: C_10  and  N_13 
ROOT
HETATM    1  C   UNK N   1       2.819  -0.660   0.233  0.00  0.00     0.168 C 
HETATM    2  N   UNK N   1       1.549  -0.057  -0.088  0.00  0.00    -0.221 N 
HETATM    3  C   UNK N   1       0.343  -0.814   0.026  0.00  0.00     0.667 C 
HETATM    4  N   UNK N   1       0.377  -2.040   0.396  0.00  0.00    -0.235 N 
ATOM      5  HN  UNK N   1       1.275  -2.525   0.396  1.00  0.00     0.174 HD
HETATM    6  N   UNK N   1      -0.903  -0.224  -0.298  0.00  0.00    -0.235 N 
HETATM    7  H   UNK N   1      -0.425  -2.534   0.680  0.00  0.00     0.174 HD
HETATM    8  H   UNK N   1      -0.981   0.731  -0.523  0.00  0.00     0.174 HD
HETATM    9  H   UNK N   1      -1.713  -0.784  -0.298  0.00  0.00     0.174 HD
ENDROOT
BRANCH   2  10
HETATM   10  C   UNK N   1       1.546   1.275  -0.643  0.00  0.00     0.167 C 
BRANCH  10  11
HETATM   11  C   UNK N   1       0.796   2.264   0.238  0.00  0.00     0.201 C 
BRANCH  11  12
HETATM   12  O   UNK N   1       0.838   3.520  -0.381  0.00  0.00    -0.295 OA
BRANCH  12  13
HETATM   13  P   UNK N   1       1.648   4.583   0.737  0.00  0.00     0.390 P 
HETATM   14  O   UNK N   1       2.145   5.871   0.029  0.00  0.00    -0.632 OA
BRANCH  13  15
HETATM   15  O   UNK N   1       0.202   5.349   0.154  0.00  0.00    -0.307 OA
HETATM   16  H   UNK N   1       0.168   6.262  -0.171  0.00  0.00     0.222 HD
ENDBRANCH  13  15
BRANCH  13  17
HETATM   17  O   UNK N   1       2.839   4.032  -0.404  0.00  0.00    -0.307 OA
HETATM   18  H   UNK N   1       2.905   3.303  -1.040  0.00  0.00     0.222 HD
ENDBRANCH  13  17
ENDBRANCH  12  13
ENDBRANCH  11  12
ENDBRANCH  10  11
ENDBRANCH   2  10
TORSDOF 6
