MODEL 1
REMARK VINA RESULT:      -8.6      0.000      0.000
REMARK  11 active torsions:
REMARK  status: ('A' for Active; 'I' for Inactive)
REMARK    1  A    between atoms: C_15  and  C_12 
REMARK    2  A    between atoms: N_38  and  C_12 
REMARK    3  A    between atoms: C_23  and  C_16 
REMARK    4  A    between atoms: C_27  and  C_17 
REMARK    5  A    between atoms: S_51  and  C_18 
REMARK    6  A    between atoms: C_20  and  C_25 
REMARK    7  A    between atoms: O_49  and  C_21 
REMARK    8  A    between atoms: O_46  and  C_25 
REMARK    9  A    between atoms: N_44  and  C_26 
REMARK   10  A    between atoms: O_49  and  C_28 
REMARK   11  A    between atoms: S_51  and  N_45 
ROOT
HETATM    1  C   UNK N   1      34.323  14.762   7.276  0.00  0.00     0.140 C 
HETATM    2  C   UNK N   1      33.294  13.709   6.946  0.00  0.00     0.128 C 
HETATM    3  C   UNK N   1      32.685  15.569   8.975  0.00  0.00     0.154 C 
HETATM    4  C   UNK N   1      31.683  15.447   7.792  0.00  0.00     0.166 C 
HETATM    5  N   UNK N   1      34.044  15.180   8.619  0.00  0.00    -0.358 N 
HETATM    6  N   UNK N   1      31.948  14.293   6.879  0.00  0.00    -0.191 NA
ENDROOT
BRANCH   4   7
HETATM    7  C   UNK N   1      31.590  16.788   7.083  0.00  0.00     0.132 C 
HETATM    8  N   UNK N   1      30.453  17.326   6.771  0.00  0.00    -0.369 N 
ATOM      9  HN  UNK N   1      30.461  18.244   6.326  1.00  0.00     0.161 HD
BRANCH   8  10
HETATM   10  C   UNK N   1      29.170  16.695   7.017  0.00  0.00     0.160 C 
BRANCH  10  11
HETATM   11  C   UNK N   1      28.142  17.389   6.225  0.00  0.00    -0.037 A 
HETATM   12  C   UNK N   1      26.870  16.836   6.106  0.00  0.00     0.012 A 
HETATM   13  C   UNK N   1      25.977  17.363   5.179  0.00  0.00     0.041 A 
HETATM   14  C   UNK N   1      26.363  18.417   4.344  0.00  0.00     0.116 A 
HETATM   15  C   UNK N   1      27.633  19.014   4.520  0.00  0.00     0.150 A 
HETATM   16  C   UNK N   1      28.511  18.490   5.459  0.00  0.00     0.054 A 
HETATM   17  F   UNK N   1      28.050  20.058   3.769  0.00  0.00    -0.203 F 
BRANCH  14  18
HETATM   18  O   UNK N   1      25.516  18.766   3.348  0.00  0.00    -0.252 OA
BRANCH  18  19
HETATM   19  C   UNK N   1      24.895  20.000   3.270  0.00  0.00     0.530 C 
HETATM   20  F   UNK N   1      23.552  19.875   2.978  0.00  0.00    -0.144 F 
HETATM   21  F   UNK N   1      25.494  20.732   2.267  0.00  0.00    -0.144 F 
HETATM   22  F   UNK N   1      25.059  20.685   4.466  0.00  0.00    -0.144 F 
ENDBRANCH  18  19
ENDBRANCH  14  18
ENDBRANCH  10  11
ENDBRANCH   8  10
BRANCH   7  23
HETATM   23  O   UNK N   1      32.725  17.445   6.776  0.00  0.00    -0.348 OA
HETATM   24  H   UNK N   1      33.569  17.819   6.947  0.00  0.00     0.219 HD
ENDBRANCH   7  23
ENDBRANCH   4   7
BRANCH   6  25
HETATM   25  S   UNK N   1      31.523  14.473   5.144  0.00  0.00     0.244 S 
HETATM   26  O   UNK N   1      32.417  13.467   4.405  0.00  0.00    -0.206 OA
HETATM   27  O   UNK N   1      32.296  15.753   4.789  0.00  0.00    -0.206 OA
BRANCH  25  28
HETATM   28  C   UNK N   1      29.953  14.683   4.278  0.00  0.00     0.074 A 
HETATM   29  C   UNK N   1      29.723  15.673   3.310  0.00  0.00     0.025 A 
HETATM   30  C   UNK N   1      28.470  15.746   2.669  0.00  0.00     0.018 A 
HETATM   31  C   UNK N   1      27.440  14.853   3.024  0.00  0.00     0.048 A 
HETATM   32  C   UNK N   1      27.669  13.910   4.026  0.00  0.00     0.018 A 
HETATM   33  C   UNK N   1      28.911  13.827   4.640  0.00  0.00     0.025 A 
BRANCH  31  34
HETATM   34  C   UNK N   1      26.109  14.873   2.322  0.00  0.00     0.417 C 
HETATM   35  F   UNK N   1      25.999  15.989   1.505  0.00  0.00    -0.166 F 
HETATM   36  F   UNK N   1      25.960  13.742   1.544  0.00  0.00    -0.166 F 
HETATM   37  F   UNK N   1      25.096  14.919   3.262  0.00  0.00    -0.166 F 
ENDBRANCH  31  34
ENDBRANCH  25  28
ENDBRANCH   6  25
BRANCH   5  38
HETATM   38  C   UNK N   1      34.930  14.789   9.652  0.00  0.00     0.149 A 
HETATM   39  N   UNK N   1      34.698  15.021  10.971  0.00  0.00    -0.322 N 
HETATM   40  C   UNK N   1      35.590  14.331  11.758  0.00  0.00     0.127 A 
ATOM     41  HN  UNK N   1      33.960  15.627  11.330  1.00  0.00     0.169 HD
HETATM   42  C   UNK N   1      36.507  13.540  11.082  0.00  0.00     0.068 A 
HETATM   43  N   UNK N   1      35.565  14.351  13.106  0.00  0.00    -0.331 N 
HETATM   44  C   UNK N   1      37.392  12.737  11.780  0.00  0.00     0.112 A 
HETATM   45  S   UNK N   1      36.223  13.743   9.475  0.00  0.00    -0.049 SA
HETATM   46  N   UNK N   1      37.331  12.761  13.143  0.00  0.00    -0.354 N 
HETATM   47  C   UNK N   1      36.437  13.563  13.809  0.00  0.00     0.086 A 
ATOM     48  HN  UNK N   1      37.965  12.170  13.680  1.00  0.00     0.166 HD
ATOM     49  HN  UNK N   1      34.900  14.949  13.597  1.00  0.00     0.168 HD
BRANCH  47  50
HETATM   50  C   UNK N   1      36.419  13.558  15.308  0.00  0.00     0.053 A 
HETATM   51  C   UNK N   1      35.112  13.022  15.875  0.00  0.00     0.013 A 
HETATM   52  C   UNK N   1      36.326  12.122  15.801  0.00  0.00     0.013 A 
ENDBRANCH  47  50
ENDBRANCH   5  38
TORSDOF 11
ENDMDL
MODEL 2
REMARK VINA RESULT:      -8.3      2.873      4.343
REMARK  11 active torsions:
REMARK  status: ('A' for Active; 'I' for Inactive)
REMARK    1  A    between atoms: C_15  and  C_12 
REMARK    2  A    between atoms: N_38  and  C_12 
REMARK    3  A    between atoms: C_23  and  C_16 
REMARK    4  A    between atoms: C_27  and  C_17 
REMARK    5  A    between atoms: S_51  and  C_18 
REMARK    6  A    between atoms: C_20  and  C_25 
REMARK    7  A    between atoms: O_49  and  C_21 
REMARK    8  A    between atoms: O_46  and  C_25 
REMARK    9  A    between atoms: N_44  and  C_26 
REMARK   10  A    between atoms: O_49  and  C_28 
REMARK   11  A    between atoms: S_51  and  N_45 
ROOT
HETATM    1  C   UNK N   1      30.986  15.917   5.568  0.00  0.00     0.140 C 
HETATM    2  C   UNK N   1      29.930  14.846   5.686  0.00  0.00     0.128 C 
HETATM    3  C   UNK N   1      29.462  17.318   6.958  0.00  0.00     0.154 C 
HETATM    4  C   UNK N   1      28.388  16.817   5.950  0.00  0.00     0.166 C 
HETATM    5  N   UNK N   1      30.793  16.790   6.690  0.00  0.00    -0.358 N 
HETATM    6  N   UNK N   1      28.588  15.410   5.489  0.00  0.00    -0.191 NA
ENDROOT
BRANCH   4   7
HETATM    7  C   UNK N   1      28.263  17.826   4.820  0.00  0.00     0.132 C 
HETATM    8  N   UNK N   1      27.114  18.254   4.401  0.00  0.00    -0.369 N 
ATOM      9  HN  UNK N   1      27.103  18.957   3.661  1.00  0.00     0.161 HD
BRANCH   8  10
HETATM   10  C   UNK N   1      25.844  17.789   4.922  0.00  0.00     0.160 C 
BRANCH  10  11
HETATM   11  C   UNK N   1      24.757  18.459   4.191  0.00  0.00    -0.037 A 
HETATM   12  C   UNK N   1      25.001  19.665   3.541  0.00  0.00     0.012 A 
HETATM   13  C   UNK N   1      23.934  20.409   3.051  0.00  0.00     0.041 A 
HETATM   14  C   UNK N   1      22.619  19.970   3.241  0.00  0.00     0.116 A 
HETATM   15  C   UNK N   1      22.387  18.710   3.842  0.00  0.00     0.150 A 
HETATM   16  C   UNK N   1      23.461  17.968   4.313  0.00  0.00     0.054 A 
HETATM   17  F   UNK N   1      21.141  18.214   4.019  0.00  0.00    -0.203 F 
BRANCH  14  18
HETATM   18  O   UNK N   1      21.621  20.819   2.900  0.00  0.00    -0.252 OA
BRANCH  18  19
HETATM   19  C   UNK N   1      20.747  20.590   1.852  0.00  0.00     0.530 C 
HETATM   20  F   UNK N   1      20.361  21.768   1.246  0.00  0.00    -0.144 F 
HETATM   21  F   UNK N   1      19.623  19.964   2.347  0.00  0.00    -0.144 F 
HETATM   22  F   UNK N   1      21.339  19.749   0.921  0.00  0.00    -0.144 F 
ENDBRANCH  18  19
ENDBRANCH  14  18
ENDBRANCH  10  11
ENDBRANCH   8  10
BRANCH   7  23
HETATM   23  O   UNK N   1      29.384  18.299   4.240  0.00  0.00    -0.348 OA
HETATM   24  H   UNK N   1      30.077  18.316   3.608  0.00  0.00     0.219 HD
ENDBRANCH   7  23
ENDBRANCH   4   7
BRANCH   6  25
HETATM   25  S   UNK N   1      28.059  14.980   3.829  0.00  0.00     0.244 S 
HETATM   26  O   UNK N   1      28.944  13.795   3.419  0.00  0.00    -0.206 OA
HETATM   27  O   UNK N   1      28.766  16.072   3.010  0.00  0.00    -0.206 OA
BRANCH  25  28
HETATM   28  C   UNK N   1      26.436  14.861   3.046  0.00  0.00     0.074 A 
HETATM   29  C   UNK N   1      26.170  15.283   1.735  0.00  0.00     0.025 A 
HETATM   30  C   UNK N   1      24.876  15.129   1.200  0.00  0.00     0.018 A 
HETATM   31  C   UNK N   1      23.843  14.589   1.990  0.00  0.00     0.048 A 
HETATM   32  C   UNK N   1      24.113  14.224   3.309  0.00  0.00     0.018 A 
HETATM   33  C   UNK N   1      25.394  14.358   3.827  0.00  0.00     0.025 A 
BRANCH  31  34
HETATM   34  C   UNK N   1      22.464  14.365   1.431  0.00  0.00     0.417 C 
HETATM   35  F   UNK N   1      21.718  13.550   2.270  0.00  0.00    -0.166 F 
HETATM   36  F   UNK N   1      21.804  15.570   1.287  0.00  0.00    -0.166 F 
HETATM   37  F   UNK N   1      22.563  13.747   0.198  0.00  0.00    -0.166 F 
ENDBRANCH  31  34
ENDBRANCH  25  28
ENDBRANCH   6  25
BRANCH   5  38
HETATM   38  C   UNK N   1      31.736  16.760   7.745  0.00  0.00     0.149 A 
HETATM   39  N   UNK N   1      31.819  15.752   8.653  0.00  0.00    -0.322 N 
HETATM   40  C   UNK N   1      32.964  15.861   9.408  0.00  0.00     0.127 A 
ATOM     41  HN  UNK N   1      31.126  15.012   8.760  1.00  0.00     0.169 HD
HETATM   42  C   UNK N   1      33.796  16.925   9.095  0.00  0.00     0.068 A 
HETATM   43  N   UNK N   1      33.316  14.971  10.358  0.00  0.00    -0.331 N 
HETATM   44  C   UNK N   1      35.014  17.076   9.734  0.00  0.00     0.112 A 
HETATM   45  S   UNK N   1      33.066  17.765   7.885  0.00  0.00    -0.049 SA
HETATM   46  N   UNK N   1      35.355  16.151  10.677  0.00  0.00    -0.354 N 
HETATM   47  C   UNK N   1      34.518  15.110  11.000  0.00  0.00     0.086 A 
ATOM     48  HN  UNK N   1      36.253  16.233  11.155  1.00  0.00     0.166 HD
ATOM     49  HN  UNK N   1      32.691  14.201  10.597  1.00  0.00     0.168 HD
BRANCH  47  50
HETATM   50  C   UNK N   1      34.938  14.128  12.051  0.00  0.00     0.053 A 
HETATM   51  C   UNK N   1      36.359  13.624  11.846  0.00  0.00     0.013 A 
HETATM   52  C   UNK N   1      36.087  14.717  12.855  0.00  0.00     0.013 A 
ENDBRANCH  47  50
ENDBRANCH   5  38
TORSDOF 11
ENDMDL
MODEL 3
REMARK VINA RESULT:      -8.3      7.071     12.139
REMARK  11 active torsions:
REMARK  status: ('A' for Active; 'I' for Inactive)
REMARK    1  A    between atoms: C_15  and  C_12 
REMARK    2  A    between atoms: N_38  and  C_12 
REMARK    3  A    between atoms: C_23  and  C_16 
REMARK    4  A    between atoms: C_27  and  C_17 
REMARK    5  A    between atoms: S_51  and  C_18 
REMARK    6  A    between atoms: C_20  and  C_25 
REMARK    7  A    between atoms: O_49  and  C_21 
REMARK    8  A    between atoms: O_46  and  C_25 
REMARK    9  A    between atoms: N_44  and  C_26 
REMARK   10  A    between atoms: O_49  and  C_28 
REMARK   11  A    between atoms: S_51  and  N_45 
ROOT
HETATM    1  C   UNK N   1      32.034  15.669   6.499  0.00  0.00     0.140 C 
HETATM    2  C   UNK N   1      33.448  16.191   6.429  0.00  0.00     0.128 C 
HETATM    3  C   UNK N   1      32.015  16.556   8.829  0.00  0.00     0.154 C 
HETATM    4  C   UNK N   1      33.386  15.828   8.918  0.00  0.00     0.166 C 
HETATM    5  N   UNK N   1      31.381  16.430   7.523  0.00  0.00    -0.358 N 
HETATM    6  N   UNK N   1      34.187  15.870   7.657  0.00  0.00    -0.191 NA
ENDROOT
BRANCH   4   7
HETATM    7  C   UNK N   1      33.165  14.426   9.464  0.00  0.00     0.132 C 
HETATM    8  N   UNK N   1      33.741  14.009  10.547  0.00  0.00    -0.369 N 
ATOM      9  HN  UNK N   1      33.524  13.069  10.876  1.00  0.00     0.161 HD
BRANCH   8  10
HETATM   10  C   UNK N   1      34.680  14.803  11.315  0.00  0.00     0.160 C 
BRANCH  10  11
HETATM   11  C   UNK N   1      35.304  13.944  12.334  0.00  0.00    -0.037 A 
HETATM   12  C   UNK N   1      34.966  12.596  12.405  0.00  0.00     0.012 A 
HETATM   13  C   UNK N   1      35.373  11.843  13.501  0.00  0.00     0.041 A 
HETATM   14  C   UNK N   1      36.087  12.441  14.545  0.00  0.00     0.116 A 
HETATM   15  C   UNK N   1      36.483  13.795  14.430  0.00  0.00     0.150 A 
HETATM   16  C   UNK N   1      36.085  14.533  13.325  0.00  0.00     0.054 A 
HETATM   17  F   UNK N   1      37.205  14.418  15.389  0.00  0.00    -0.203 F 
BRANCH  14  18
HETATM   18  O   UNK N   1      36.300  11.702  15.659  0.00  0.00    -0.252 OA
BRANCH  18  19
HETATM   19  C   UNK N   1      35.387  11.600  16.694  0.00  0.00     0.530 C 
HETATM   20  F   UNK N   1      36.017  11.450  17.913  0.00  0.00    -0.144 F 
HETATM   21  F   UNK N   1      34.593  10.495  16.473  0.00  0.00    -0.144 F 
HETATM   22  F   UNK N   1      34.573  12.724  16.716  0.00  0.00    -0.144 F 
ENDBRANCH  18  19
ENDBRANCH  14  18
ENDBRANCH  10  11
ENDBRANCH   8  10
BRANCH   7  23
HETATM   23  O   UNK N   1      32.337  13.592   8.805  0.00  0.00    -0.348 OA
HETATM   24  H   UNK N   1      31.534  13.334   8.395  0.00  0.00     0.219 HD
ENDBRANCH   7  23
ENDBRANCH   4   7
BRANCH   6  25
HETATM   25  S   UNK N   1      35.264  14.481   7.291  0.00  0.00     0.244 S 
HETATM   26  O   UNK N   1      36.177  14.968   6.157  0.00  0.00    -0.206 OA
HETATM   27  O   UNK N   1      34.324  13.601   6.451  0.00  0.00    -0.206 OA
BRANCH  25  28
HETATM   28  C   UNK N   1      36.128  13.287   8.334  0.00  0.00     0.074 A 
HETATM   29  C   UNK N   1      37.275  13.592   9.083  0.00  0.00     0.025 A 
HETATM   30  C   UNK N   1      37.868  12.599   9.887  0.00  0.00     0.018 A 
HETATM   31  C   UNK N   1      37.336  11.295   9.912  0.00  0.00     0.048 A 
HETATM   32  C   UNK N   1      36.227  10.996   9.120  0.00  0.00     0.018 A 
HETATM   33  C   UNK N   1      35.631  11.982   8.345  0.00  0.00     0.025 A 
BRANCH  31  34
HETATM   34  C   UNK N   1      37.917  10.228  10.799  0.00  0.00     0.417 C 
HETATM   35  F   UNK N   1      39.123   9.768  10.292  0.00  0.00    -0.166 F 
HETATM   36  F   UNK N   1      38.134  10.726  12.069  0.00  0.00    -0.166 F 
HETATM   37  F   UNK N   1      37.039   9.162  10.869  0.00  0.00    -0.166 F 
ENDBRANCH  31  34
ENDBRANCH  25  28
ENDBRANCH   6  25
BRANCH   5  38
HETATM   38  C   UNK N   1      30.412  17.391   7.144  0.00  0.00     0.149 A 
HETATM   39  N   UNK N   1      29.969  17.551   5.869  0.00  0.00    -0.322 N 
HETATM   40  C   UNK N   1      28.871  18.377   5.828  0.00  0.00     0.127 A 
ATOM     41  HN  UNK N   1      30.394  17.115   5.051  1.00  0.00     0.169 HD
HETATM   42  C   UNK N   1      28.426  18.854   7.052  0.00  0.00     0.068 A 
HETATM   43  N   UNK N   1      28.206  18.676   4.693  0.00  0.00    -0.331 N 
HETATM   44  C   UNK N   1      27.278  19.621   7.132  0.00  0.00     0.112 A 
HETATM   45  S   UNK N   1      29.450  18.266   8.196  0.00  0.00    -0.049 SA
HETATM   46  N   UNK N   1      26.613  19.893   5.972  0.00  0.00    -0.354 N 
HETATM   47  C   UNK N   1      27.069  19.438   4.758  0.00  0.00     0.086 A 
ATOM     48  HN  UNK N   1      25.757  20.447   6.005  1.00  0.00     0.166 HD
ATOM     49  HN  UNK N   1      28.549  18.338   3.794  1.00  0.00     0.168 HD
BRANCH  47  50
HETATM   50  C   UNK N   1      26.305  19.773   3.513  0.00  0.00     0.053 A 
HETATM   51  C   UNK N   1      25.147  18.818   3.263  0.00  0.00     0.013 A 
HETATM   52  C   UNK N   1      24.887  20.170   3.889  0.00  0.00     0.013 A 
ENDBRANCH  47  50
ENDBRANCH   5  38
TORSDOF 11
ENDMDL
MODEL 4
REMARK VINA RESULT:      -8.3      2.400      3.287
REMARK  11 active torsions:
REMARK  status: ('A' for Active; 'I' for Inactive)
REMARK    1  A    between atoms: C_15  and  C_12 
REMARK    2  A    between atoms: N_38  and  C_12 
REMARK    3  A    between atoms: C_23  and  C_16 
REMARK    4  A    between atoms: C_27  and  C_17 
REMARK    5  A    between atoms: S_51  and  C_18 
REMARK    6  A    between atoms: C_20  and  C_25 
REMARK    7  A    between atoms: O_49  and  C_21 
REMARK    8  A    between atoms: O_46  and  C_25 
REMARK    9  A    between atoms: N_44  and  C_26 
REMARK   10  A    between atoms: O_49  and  C_28 
REMARK   11  A    between atoms: S_51  and  N_45 
ROOT
HETATM    1  C   UNK N   1      36.163  14.412   9.770  0.00  0.00     0.140 C 
HETATM    2  C   UNK N   1      35.333  13.540   8.860  0.00  0.00     0.128 C 
HETATM    3  C   UNK N   1      34.069  14.715  11.089  0.00  0.00     0.154 C 
HETATM    4  C   UNK N   1      33.449  14.987   9.689  0.00  0.00     0.166 C 
HETATM    5  N   UNK N   1      35.493  14.412  11.038  0.00  0.00    -0.358 N 
HETATM    6  N   UNK N   1      34.029  14.158   8.588  0.00  0.00    -0.191 NA
ENDROOT
BRANCH   4   7
HETATM    7  C   UNK N   1      33.479  16.483   9.417  0.00  0.00     0.132 C 
HETATM    8  N   UNK N   1      32.442  17.126   8.982  0.00  0.00    -0.369 N 
ATOM      9  HN  UNK N   1      32.521  18.135   8.853  1.00  0.00     0.161 HD
BRANCH   8  10
HETATM   10  C   UNK N   1      31.177  16.492   8.665  0.00  0.00     0.160 C 
BRANCH  10  11
HETATM   11  C   UNK N   1      30.259  17.508   8.128  0.00  0.00    -0.037 A 
HETATM   12  C   UNK N   1      29.487  18.273   8.997  0.00  0.00     0.012 A 
HETATM   13  C   UNK N   1      28.461  19.062   8.490  0.00  0.00     0.041 A 
HETATM   14  C   UNK N   1      28.179  19.063   7.120  0.00  0.00     0.116 A 
HETATM   15  C   UNK N   1      29.013  18.335   6.238  0.00  0.00     0.150 A 
HETATM   16  C   UNK N   1      30.044  17.563   6.754  0.00  0.00     0.054 A 
HETATM   17  F   UNK N   1      28.814  18.324   4.901  0.00  0.00    -0.203 F 
BRANCH  14  18
HETATM   18  O   UNK N   1      27.062  19.710   6.712  0.00  0.00    -0.252 OA
BRANCH  18  19
HETATM   19  C   UNK N   1      27.076  20.968   6.136  0.00  0.00     0.530 C 
HETATM   20  F   UNK N   1      26.954  20.899   4.763  0.00  0.00    -0.144 F 
HETATM   21  F   UNK N   1      28.275  21.577   6.438  0.00  0.00    -0.144 F 
HETATM   22  F   UNK N   1      26.051  21.739   6.665  0.00  0.00    -0.144 F 
ENDBRANCH  18  19
ENDBRANCH  14  18
ENDBRANCH  10  11
ENDBRANCH   8  10
BRANCH   7  23
HETATM   23  O   UNK N   1      34.619  17.164   9.646  0.00  0.00    -0.348 OA
HETATM   24  H   UNK N   1      35.491  17.455   9.462  0.00  0.00     0.219 HD
ENDBRANCH   7  23
ENDBRANCH   4   7
BRANCH   6  25
HETATM   25  S   UNK N   1      34.099  14.867   6.942  0.00  0.00     0.244 S 
HETATM   26  O   UNK N   1      35.341  14.245   6.288  0.00  0.00    -0.206 OA
HETATM   27  O   UNK N   1      34.687  16.254   7.250  0.00  0.00    -0.206 OA
BRANCH  25  28
HETATM   28  C   UNK N   1      32.837  15.219   5.699  0.00  0.00     0.074 A 
HETATM   29  C   UNK N   1      32.901  16.302   4.808  0.00  0.00     0.025 A 
HETATM   30  C   UNK N   1      31.879  16.484   3.855  0.00  0.00     0.018 A 
HETATM   31  C   UNK N   1      30.778  15.606   3.820  0.00  0.00     0.048 A 
HETATM   32  C   UNK N   1      30.705  14.567   4.749  0.00  0.00     0.018 A 
HETATM   33  C   UNK N   1      31.724  14.377   5.672  0.00  0.00     0.025 A 
BRANCH  31  34
HETATM   34  C   UNK N   1      29.697  15.744   2.783  0.00  0.00     0.417 C 
HETATM   35  F   UNK N   1      29.960  16.813   1.938  0.00  0.00    -0.166 F 
HETATM   36  F   UNK N   1      29.611  14.593   2.024  0.00  0.00    -0.166 F 
HETATM   37  F   UNK N   1      28.486  15.971   3.410  0.00  0.00    -0.166 F 
ENDBRANCH  31  34
ENDBRANCH  25  28
ENDBRANCH   6  25
BRANCH   5  38
HETATM   38  C   UNK N   1      36.074  13.699  12.115  0.00  0.00     0.149 A 
HETATM   39  N   UNK N   1      35.530  13.638  13.358  0.00  0.00    -0.322 N 
HETATM   40  C   UNK N   1      36.166  12.694  14.130  0.00  0.00     0.127 A 
ATOM     41  HN  UNK N   1      34.752  14.215  13.677  1.00  0.00     0.169 HD
HETATM   42  C   UNK N   1      37.188  11.993  13.508  0.00  0.00     0.068 A 
HETATM   43  N   UNK N   1      35.804  12.400  15.395  0.00  0.00    -0.331 N 
HETATM   44  C   UNK N   1      37.834  10.962  14.166  0.00  0.00     0.112 A 
HETATM   45  S   UNK N   1      37.324  12.596  11.984  0.00  0.00    -0.049 SA
HETATM   46  N   UNK N   1      37.435  10.671  15.437  0.00  0.00    -0.354 N 
HETATM   47  C   UNK N   1      36.438  11.382  16.059  0.00  0.00     0.086 A 
ATOM     48  HN  UNK N   1      37.889   9.908  15.940  1.00  0.00     0.166 HD
ATOM     49  HN  UNK N   1      35.064  12.931  15.854  1.00  0.00     0.168 HD
BRANCH  47  50
HETATM   50  C   UNK N   1      36.045  11.027  17.461  0.00  0.00     0.053 A 
HETATM   51  C   UNK N   1      34.944   9.978  17.511  0.00  0.00     0.013 A 
HETATM   52  C   UNK N   1      36.385   9.568  17.720  0.00  0.00     0.013 A 
ENDBRANCH  47  50
ENDBRANCH   5  38
TORSDOF 11
ENDMDL
MODEL 5
REMARK VINA RESULT:      -8.0      2.965      5.357
REMARK  11 active torsions:
REMARK  status: ('A' for Active; 'I' for Inactive)
REMARK    1  A    between atoms: C_15  and  C_12 
REMARK    2  A    between atoms: N_38  and  C_12 
REMARK    3  A    between atoms: C_23  and  C_16 
REMARK    4  A    between atoms: C_27  and  C_17 
REMARK    5  A    between atoms: S_51  and  C_18 
REMARK    6  A    between atoms: C_20  and  C_25 
REMARK    7  A    between atoms: O_49  and  C_21 
REMARK    8  A    between atoms: O_46  and  C_25 
REMARK    9  A    between atoms: N_44  and  C_26 
REMARK   10  A    between atoms: O_49  and  C_28 
REMARK   11  A    between atoms: S_51  and  N_45 
ROOT
HETATM    1  C   UNK N   1      34.330  15.235  10.833  0.00  0.00     0.140 C 
HETATM    2  C   UNK N   1      35.258  15.813   9.792  0.00  0.00     0.128 C 
HETATM    3  C   UNK N   1      34.684  13.055   9.676  0.00  0.00     0.154 C 
HETATM    4  C   UNK N   1      34.401  13.899   8.401  0.00  0.00     0.166 C 
HETATM    5  N   UNK N   1      34.637  13.836  10.905  0.00  0.00    -0.358 N 
HETATM    6  N   UNK N   1      34.935  15.295   8.457  0.00  0.00    -0.191 NA
ENDROOT
BRANCH   4   7
HETATM    7  C   UNK N   1      32.918  13.818   8.074  0.00  0.00     0.132 C 
HETATM    8  N   UNK N   1      32.489  13.516   6.889  0.00  0.00    -0.369 N 
ATOM      9  HN  UNK N   1      31.481  13.445   6.746  1.00  0.00     0.161 HD
BRANCH   8  10
HETATM   10  C   UNK N   1      33.359  13.277   5.755  0.00  0.00     0.160 C 
BRANCH  10  11
HETATM   11  C   UNK N   1      32.543  13.239   4.531  0.00  0.00    -0.037 A 
HETATM   12  C   UNK N   1      32.296  14.414   3.827  0.00  0.00     0.012 A 
HETATM   13  C   UNK N   1      31.344  14.419   2.814  0.00  0.00     0.041 A 
HETATM   14  C   UNK N   1      30.612  13.262   2.524  0.00  0.00     0.116 A 
HETATM   15  C   UNK N   1      30.920  12.058   3.199  0.00  0.00     0.150 A 
HETATM   16  C   UNK N   1      31.883  12.060   4.198  0.00  0.00     0.054 A 
HETATM   17  F   UNK N   1      30.273  10.899   2.938  0.00  0.00    -0.203 F 
BRANCH  14  18
HETATM   18  O   UNK N   1      29.583  13.377   1.652  0.00  0.00    -0.252 OA
BRANCH  18  19
HETATM   19  C   UNK N   1      28.283  13.656   2.037  0.00  0.00     0.530 C 
HETATM   20  F   UNK N   1      27.398  12.712   1.556  0.00  0.00    -0.144 F 
HETATM   21  F   UNK N   1      27.928  14.887   1.528  0.00  0.00    -0.144 F 
HETATM   22  F   UNK N   1      28.205  13.718   3.421  0.00  0.00    -0.144 F 
ENDBRANCH  18  19
ENDBRANCH  14  18
ENDBRANCH  10  11
ENDBRANCH   8  10
BRANCH   7  23
HETATM   23  O   UNK N   1      32.020  14.057   9.050  0.00  0.00    -0.348 OA
HETATM   24  H   UNK N   1      31.737  14.216   9.930  0.00  0.00     0.219 HD
ENDBRANCH   7  23
ENDBRANCH   4   7
BRANCH   6  25
HETATM   25  S   UNK N   1      34.038  16.579   7.581  0.00  0.00     0.244 S 
HETATM   26  O   UNK N   1      34.607  16.565   6.154  0.00  0.00    -0.206 OA
HETATM   27  O   UNK N   1      34.763  17.836   8.091  0.00  0.00    -0.206 OA
BRANCH  25  28
HETATM   28  C   UNK N   1      32.303  17.079   7.568  0.00  0.00     0.074 A 
HETATM   29  C   UNK N   1      31.433  16.847   6.491  0.00  0.00     0.025 A 
HETATM   30  C   UNK N   1      30.087  17.253   6.581  0.00  0.00     0.018 A 
HETATM   31  C   UNK N   1      29.624  17.922   7.730  0.00  0.00     0.048 A 
HETATM   32  C   UNK N   1      30.516  18.191   8.769  0.00  0.00     0.018 A 
HETATM   33  C   UNK N   1      31.837  17.771   8.686  0.00  0.00     0.025 A 
BRANCH  31  34
HETATM   34  C   UNK N   1      28.181  18.322   7.877  0.00  0.00     0.417 C 
HETATM   35  F   UNK N   1      28.001  19.652   7.526  0.00  0.00    -0.166 F 
HETATM   36  F   UNK N   1      27.382  17.540   7.065  0.00  0.00    -0.166 F 
HETATM   37  F   UNK N   1      27.792  18.162   9.194  0.00  0.00    -0.166 F 
ENDBRANCH  31  34
ENDBRANCH  25  28
ENDBRANCH   6  25
BRANCH   5  38
HETATM   38  C   UNK N   1      35.317  13.347  12.046  0.00  0.00     0.149 A 
HETATM   39  N   UNK N   1      34.750  13.252  13.278  0.00  0.00    -0.322 N 
HETATM   40  C   UNK N   1      35.546  12.529  14.134  0.00  0.00     0.127 A 
ATOM     41  HN  UNK N   1      33.852  13.663  13.533  1.00  0.00     0.169 HD
HETATM   42  C   UNK N   1      36.722  12.031  13.592  0.00  0.00     0.068 A 
HETATM   43  N   UNK N   1      35.207  12.250  15.409  0.00  0.00    -0.331 N 
HETATM   44  C   UNK N   1      37.552  11.217  14.342  0.00  0.00     0.112 A 
HETATM   45  S   UNK N   1      36.783  12.542  12.031  0.00  0.00    -0.049 SA
HETATM   46  N   UNK N   1      37.176  10.934  15.622  0.00  0.00    -0.354 N 
HETATM   47  C   UNK N   1      36.021  11.447  16.163  0.00  0.00     0.086 A 
ATOM     48  HN  UNK N   1      37.765  10.327  16.193  1.00  0.00     0.166 HD
ATOM     49  HN  UNK N   1      34.350  12.633  15.808  1.00  0.00     0.168 HD
BRANCH  47  50
HETATM   50  C   UNK N   1      35.660  11.111  17.579  0.00  0.00     0.053 A 
HETATM   51  C   UNK N   1      34.908   9.793  17.693  0.00  0.00     0.013 A 
HETATM   52  C   UNK N   1      36.390   9.843  17.992  0.00  0.00     0.013 A 
ENDBRANCH  47  50
ENDBRANCH   5  38
TORSDOF 11
ENDMDL
MODEL 6
REMARK VINA RESULT:      -7.9      3.767      6.656
REMARK  11 active torsions:
REMARK  status: ('A' for Active; 'I' for Inactive)
REMARK    1  A    between atoms: C_15  and  C_12 
REMARK    2  A    between atoms: N_38  and  C_12 
REMARK    3  A    between atoms: C_23  and  C_16 
REMARK    4  A    between atoms: C_27  and  C_17 
REMARK    5  A    between atoms: S_51  and  C_18 
REMARK    6  A    between atoms: C_20  and  C_25 
REMARK    7  A    between atoms: O_49  and  C_21 
REMARK    8  A    between atoms: O_46  and  C_25 
REMARK    9  A    between atoms: N_44  and  C_26 
REMARK   10  A    between atoms: O_49  and  C_28 
REMARK   11  A    between atoms: S_51  and  N_45 
ROOT
HETATM    1  C   UNK N   1      34.193  15.306  10.507  0.00  0.00     0.140 C 
HETATM    2  C   UNK N   1      35.033  16.378   9.856  0.00  0.00     0.128 C 
HETATM    3  C   UNK N   1      35.553  13.692   9.179  0.00  0.00     0.154 C 
HETATM    4  C   UNK N   1      35.243  14.676   8.015  0.00  0.00     0.166 C 
HETATM    5  N   UNK N   1      34.973  14.104  10.450  0.00  0.00    -0.358 N 
HETATM    6  N   UNK N   1      35.202  16.114   8.421  0.00  0.00    -0.191 NA
ENDROOT
BRANCH   4   7
HETATM    7  C   UNK N   1      33.994  14.203   7.288  0.00  0.00     0.132 C 
HETATM    8  N   UNK N   1      33.999  13.914   6.025  0.00  0.00    -0.369 N 
ATOM      9  HN  UNK N   1      33.135  13.570   5.607  1.00  0.00     0.161 HD
BRANCH   8  10
HETATM   10  C   UNK N   1      35.164  14.054   5.173  0.00  0.00     0.160 C 
BRANCH  10  11
HETATM   11  C   UNK N   1      34.830  13.557   3.828  0.00  0.00    -0.037 A 
HETATM   12  C   UNK N   1      35.841  13.353   2.895  0.00  0.00     0.012 A 
HETATM   13  C   UNK N   1      35.511  13.109   1.567  0.00  0.00     0.041 A 
HETATM   14  C   UNK N   1      34.172  13.105   1.160  0.00  0.00     0.116 A 
HETATM   15  C   UNK N   1      33.151  13.246   2.129  0.00  0.00     0.150 A 
HETATM   16  C   UNK N   1      33.492  13.474   3.455  0.00  0.00     0.054 A 
HETATM   17  F   UNK N   1      31.838  13.215   1.804  0.00  0.00    -0.203 F 
BRANCH  14  18
HETATM   18  O   UNK N   1      33.923  13.038  -0.169  0.00  0.00    -0.252 OA
BRANCH  18  19
HETATM   19  C   UNK N   1      33.405  11.918  -0.794  0.00  0.00     0.530 C 
HETATM   20  F   UNK N   1      33.971  11.723  -2.038  0.00  0.00    -0.144 F 
HETATM   21  F   UNK N   1      32.047  12.093  -0.955  0.00  0.00    -0.144 F 
HETATM   22  F   UNK N   1      33.609  10.799   0.001  0.00  0.00    -0.144 F 
ENDBRANCH  18  19
ENDBRANCH  14  18
ENDBRANCH  10  11
ENDBRANCH   8  10
BRANCH   7  23
HETATM   23  O   UNK N   1      32.846  14.071   7.981  0.00  0.00    -0.348 OA
HETATM   24  H   UNK N   1      32.254  14.228   8.691  0.00  0.00     0.219 HD
ENDBRANCH   7  23
ENDBRANCH   4   7
BRANCH   6  25
HETATM   25  S   UNK N   1      34.093  17.212   7.535  0.00  0.00     0.244 S 
HETATM   26  O   UNK N   1      34.606  17.219   6.088  0.00  0.00    -0.206 OA
HETATM   27  O   UNK N   1      34.639  18.583   7.966  0.00  0.00    -0.206 OA
BRANCH  25  28
HETATM   28  C   UNK N   1      32.303  17.448   7.576  0.00  0.00     0.074 A 
HETATM   29  C   UNK N   1      31.441  17.056   6.539  0.00  0.00     0.025 A 
HETATM   30  C   UNK N   1      30.053  17.260   6.670  0.00  0.00     0.018 A 
HETATM   31  C   UNK N   1      29.535  17.889   7.818  0.00  0.00     0.048 A 
HETATM   32  C   UNK N   1      30.411  18.320   8.815  0.00  0.00     0.018 A 
HETATM   33  C   UNK N   1      31.776  18.098   8.693  0.00  0.00     0.025 A 
BRANCH  31  34
HETATM   34  C   UNK N   1      28.054  18.075   8.009  0.00  0.00     0.417 C 
HETATM   35  F   UNK N   1      27.662  19.345   7.611  0.00  0.00    -0.166 F 
HETATM   36  F   UNK N   1      27.354  17.145   7.266  0.00  0.00    -0.166 F 
HETATM   37  F   UNK N   1      27.741  17.922   9.347  0.00  0.00    -0.166 F 
ENDBRANCH  31  34
ENDBRANCH  25  28
ENDBRANCH   6  25
BRANCH   5  38
HETATM   38  C   UNK N   1      35.539  13.603  11.648  0.00  0.00     0.149 A 
HETATM   39  N   UNK N   1      34.844  13.462  12.807  0.00  0.00    -0.322 N 
HETATM   40  C   UNK N   1      35.563  12.738  13.729  0.00  0.00     0.127 A 
ATOM     41  HN  UNK N   1      33.912  13.841  12.972  1.00  0.00     0.169 HD
HETATM   42  C   UNK N   1      36.805  12.287  13.308  0.00  0.00     0.068 A 
HETATM   43  N   UNK N   1      35.096  12.417  14.952  0.00  0.00    -0.331 N 
HETATM   44  C   UNK N   1      37.573  11.477  14.126  0.00  0.00     0.112 A 
HETATM   45  S   UNK N   1      37.021  12.840  11.775  0.00  0.00    -0.049 SA
HETATM   46  N   UNK N   1      37.068  11.150  15.350  0.00  0.00    -0.354 N 
HETATM   47  C   UNK N   1      35.847  11.617  15.773  0.00  0.00     0.086 A 
ATOM     48  HN  UNK N   1      37.609  10.545  15.968  1.00  0.00     0.166 HD
ATOM     49  HN  UNK N   1      34.190  12.767  15.264  1.00  0.00     0.168 HD
BRANCH  47  50
HETATM   50  C   UNK N   1      35.344  11.235  17.132  0.00  0.00     0.053 A 
HETATM   51  C   UNK N   1      34.782   9.821  17.171  0.00  0.00     0.013 A 
HETATM   52  C   UNK N   1      36.185  10.089  17.671  0.00  0.00     0.013 A 
ENDBRANCH  47  50
ENDBRANCH   5  38
TORSDOF 11
ENDMDL
MODEL 7
REMARK VINA RESULT:      -7.9      2.812      5.154
REMARK  11 active torsions:
REMARK  status: ('A' for Active; 'I' for Inactive)
REMARK    1  A    between atoms: C_15  and  C_12 
REMARK    2  A    between atoms: N_38  and  C_12 
REMARK    3  A    between atoms: C_23  and  C_16 
REMARK    4  A    between atoms: C_27  and  C_17 
REMARK    5  A    between atoms: S_51  and  C_18 
REMARK    6  A    between atoms: C_20  and  C_25 
REMARK    7  A    between atoms: O_49  and  C_21 
REMARK    8  A    between atoms: O_46  and  C_25 
REMARK    9  A    between atoms: N_44  and  C_26 
REMARK   10  A    between atoms: O_49  and  C_28 
REMARK   11  A    between atoms: S_51  and  N_45 
ROOT
HETATM    1  C   UNK N   1      34.400  15.467  10.924  0.00  0.00     0.140 C 
HETATM    2  C   UNK N   1      35.228  16.088   9.826  0.00  0.00     0.128 C 
HETATM    3  C   UNK N   1      34.558  13.358   9.603  0.00  0.00     0.154 C 
HETATM    4  C   UNK N   1      34.166  14.290   8.421  0.00  0.00     0.166 C 
HETATM    5  N   UNK N   1      34.668  14.059  10.875  0.00  0.00    -0.358 N 
HETATM    6  N   UNK N   1      34.747  15.665   8.504  0.00  0.00    -0.191 NA
ENDROOT
BRANCH   4   7
HETATM    7  C   UNK N   1      32.655  14.267   8.254  0.00  0.00     0.132 C 
HETATM    8  N   UNK N   1      32.087  13.803   7.186  0.00  0.00    -0.369 N 
ATOM      9  HN  UNK N   1      31.067  13.785   7.152  1.00  0.00     0.161 HD
BRANCH   8  10
HETATM   10  C   UNK N   1      32.818  13.310   6.035  0.00  0.00     0.160 C 
BRANCH  10  11
HETATM   11  C   UNK N   1      31.989  13.492   4.833  0.00  0.00    -0.037 A 
HETATM   12  C   UNK N   1      30.610  13.637   4.958  0.00  0.00     0.012 A 
HETATM   13  C   UNK N   1      29.808  13.577   3.824  0.00  0.00     0.041 A 
HETATM   14  C   UNK N   1      30.375  13.335   2.568  0.00  0.00     0.116 A 
HETATM   15  C   UNK N   1      31.782  13.257   2.444  0.00  0.00     0.150 A 
HETATM   16  C   UNK N   1      32.574  13.334   3.580  0.00  0.00     0.054 A 
HETATM   17  F   UNK N   1      32.391  13.061   1.253  0.00  0.00    -0.203 F 
BRANCH  14  18
HETATM   18  O   UNK N   1      29.530  13.112   1.534  0.00  0.00    -0.252 OA
BRANCH  18  19
HETATM   19  C   UNK N   1      28.889  11.905   1.318  0.00  0.00     0.530 C 
HETATM   20  F   UNK N   1      29.518  10.871   1.980  0.00  0.00    -0.144 F 
HETATM   21  F   UNK N   1      28.907  11.634  -0.033  0.00  0.00    -0.144 F 
HETATM   22  F   UNK N   1      27.565  11.995   1.726  0.00  0.00    -0.144 F 
ENDBRANCH  18  19
ENDBRANCH  14  18
ENDBRANCH  10  11
ENDBRANCH   8  10
BRANCH   7  23
HETATM   23  O   UNK N   1      31.880  14.735   9.252  0.00  0.00    -0.348 OA
HETATM   24  H   UNK N   1      31.102  15.095   9.632  0.00  0.00     0.219 HD
ENDBRANCH   7  23
ENDBRANCH   4   7
BRANCH   6  25
HETATM   25  S   UNK N   1      33.803  17.026   7.812  0.00  0.00     0.244 S 
HETATM   26  O   UNK N   1      34.832  18.131   7.538  0.00  0.00    -0.206 OA
HETATM   27  O   UNK N   1      33.179  17.621   9.086  0.00  0.00    -0.206 OA
BRANCH  25  28
HETATM   28  C   UNK N   1      32.453  17.103   6.615  0.00  0.00     0.074 A 
HETATM   29  C   UNK N   1      32.644  17.145   5.226  0.00  0.00     0.025 A 
HETATM   30  C   UNK N   1      31.528  17.182   4.367  0.00  0.00     0.018 A 
HETATM   31  C   UNK N   1      30.225  17.214   4.901  0.00  0.00     0.048 A 
HETATM   32  C   UNK N   1      30.055  17.226   6.286  0.00  0.00     0.018 A 
HETATM   33  C   UNK N   1      31.156  17.169   7.129  0.00  0.00     0.025 A 
BRANCH  31  34
HETATM   34  C   UNK N   1      29.012  17.202   4.010  0.00  0.00     0.417 C 
HETATM   35  F   UNK N   1      29.353  16.827   2.718  0.00  0.00    -0.166 F 
HETATM   36  F   UNK N   1      28.072  16.314   4.493  0.00  0.00    -0.166 F 
HETATM   37  F   UNK N   1      28.464  18.471   3.965  0.00  0.00    -0.166 F 
ENDBRANCH  31  34
ENDBRANCH  25  28
ENDBRANCH   6  25
BRANCH   5  38
HETATM   38  C   UNK N   1      35.451  13.480  11.903  0.00  0.00     0.149 A 
HETATM   39  N   UNK N   1      34.991  13.251  13.162  0.00  0.00    -0.322 N 
HETATM   40  C   UNK N   1      35.870  12.470  13.874  0.00  0.00     0.127 A 
ATOM     41  HN  UNK N   1      34.110  13.611  13.529  1.00  0.00     0.169 HD
HETATM   42  C   UNK N   1      37.005  12.059  13.191  0.00  0.00     0.068 A 
HETATM   43  N   UNK N   1      35.645  12.060  15.138  0.00  0.00    -0.331 N 
HETATM   44  C   UNK N   1      37.911  11.200  13.787  0.00  0.00     0.112 A 
HETATM   45  S   UNK N   1      36.926  12.721  11.688  0.00  0.00    -0.049 SA
HETATM   46  N   UNK N   1      37.649  10.783  15.059  0.00  0.00    -0.354 N 
HETATM   47  C   UNK N   1      36.535  11.210  15.741  0.00  0.00     0.086 A 
ATOM     48  HN  UNK N   1      38.296  10.140  15.516  1.00  0.00     0.166 HD
ATOM     49  HN  UNK N   1      34.818  12.380  15.642  1.00  0.00     0.168 HD
BRANCH  47  50
HETATM   50  C   UNK N   1      36.300  10.729  17.141  0.00  0.00     0.053 A 
HETATM   51  C   UNK N   1      35.268   9.613  17.210  0.00  0.00     0.013 A 
HETATM   52  C   UNK N   1      36.743   9.278  17.251  0.00  0.00     0.013 A 
ENDBRANCH  47  50
ENDBRANCH   5  38
TORSDOF 11
ENDMDL
MODEL 8
REMARK VINA RESULT:      -7.6      9.156     14.416
REMARK  11 active torsions:
REMARK  status: ('A' for Active; 'I' for Inactive)
REMARK    1  A    between atoms: C_15  and  C_12 
REMARK    2  A    between atoms: N_38  and  C_12 
REMARK    3  A    between atoms: C_23  and  C_16 
REMARK    4  A    between atoms: C_27  and  C_17 
REMARK    5  A    between atoms: S_51  and  C_18 
REMARK    6  A    between atoms: C_20  and  C_25 
REMARK    7  A    between atoms: O_49  and  C_21 
REMARK    8  A    between atoms: O_46  and  C_25 
REMARK    9  A    between atoms: N_44  and  C_26 
REMARK   10  A    between atoms: O_49  and  C_28 
REMARK   11  A    between atoms: S_51  and  N_45 
ROOT
HETATM    1  C   UNK N   1      35.268  11.911  10.235  0.00  0.00     0.140 C 
HETATM    2  C   UNK N   1      36.688  11.716  10.705  0.00  0.00     0.128 C 
HETATM    3  C   UNK N   1      35.051  13.512  12.133  0.00  0.00     0.154 C 
HETATM    4  C   UNK N   1      35.720  12.360  12.936  0.00  0.00     0.166 C 
HETATM    5  N   UNK N   1      34.861  13.196  10.724  0.00  0.00    -0.358 N 
HETATM    6  N   UNK N   1      36.744  11.589  12.167  0.00  0.00    -0.191 NA
ENDROOT
BRANCH   4   7
HETATM    7  C   UNK N   1      34.634  11.497  13.558  0.00  0.00     0.132 C 
HETATM    8  N   UNK N   1      34.490  11.386  14.841  0.00  0.00    -0.369 N 
ATOM      9  HN  UNK N   1      33.719  10.817  15.191  1.00  0.00     0.161 HD
BRANCH   8  10
HETATM   10  C   UNK N   1      35.364  12.024  15.806  0.00  0.00     0.160 C 
BRANCH  10  11
HETATM   11  C   UNK N   1      35.052  11.502  17.146  0.00  0.00    -0.037 A 
HETATM   12  C   UNK N   1      35.421  12.227  18.274  0.00  0.00     0.012 A 
HETATM   13  C   UNK N   1      35.337  11.634  19.529  0.00  0.00     0.041 A 
HETATM   14  C   UNK N   1      34.919  10.305  19.657  0.00  0.00     0.116 A 
HETATM   15  C   UNK N   1      34.482   9.601  18.511  0.00  0.00     0.150 A 
HETATM   16  C   UNK N   1      34.555  10.208  17.265  0.00  0.00     0.054 A 
HETATM   17  F   UNK N   1      34.033   8.327  18.575  0.00  0.00    -0.203 F 
BRANCH  14  18
HETATM   18  O   UNK N   1      35.026   9.732  20.879  0.00  0.00    -0.252 OA
BRANCH  18  19
HETATM   19  C   UNK N   1      33.949   9.522  21.721  0.00  0.00     0.530 C 
HETATM   20  F   UNK N   1      34.315   9.626  23.048  0.00  0.00    -0.144 F 
HETATM   21  F   UNK N   1      33.459   8.252  21.502  0.00  0.00    -0.144 F 
HETATM   22  F   UNK N   1      32.942  10.433  21.434  0.00  0.00    -0.144 F 
ENDBRANCH  18  19
ENDBRANCH  14  18
ENDBRANCH  10  11
ENDBRANCH   8  10
BRANCH   7  23
HETATM   23  O   UNK N   1      33.786  10.831  12.749  0.00  0.00    -0.348 OA
HETATM   24  H   UNK N   1      33.415  10.074  12.337  0.00  0.00     0.219 HD
ENDBRANCH   7  23
ENDBRANCH   4   7
BRANCH   6  25
HETATM   25  S   UNK N   1      36.957   9.849  12.551  0.00  0.00     0.244 S 
HETATM   26  O   UNK N   1      38.168   9.400  11.722  0.00  0.00    -0.206 OA
HETATM   27  O   UNK N   1      35.854   9.225  11.680  0.00  0.00    -0.206 OA
BRANCH  25  28
HETATM   28  C   UNK N   1      36.854   8.906  14.088  0.00  0.00     0.074 A 
HETATM   29  C   UNK N   1      35.895   7.912  14.330  0.00  0.00     0.025 A 
HETATM   30  C   UNK N   1      35.907   7.212  15.552  0.00  0.00     0.018 A 
HETATM   31  C   UNK N   1      36.854   7.534  16.544  0.00  0.00     0.048 A 
HETATM   32  C   UNK N   1      37.767   8.562  16.307  0.00  0.00     0.018 A 
HETATM   33  C   UNK N   1      37.766   9.236  15.093  0.00  0.00     0.025 A 
BRANCH  31  34
HETATM   34  C   UNK N   1      36.924   6.770  17.838  0.00  0.00     0.417 C 
HETATM   35  F   UNK N   1      37.072   7.635  18.913  0.00  0.00    -0.166 F 
HETATM   36  F   UNK N   1      35.772   6.032  18.022  0.00  0.00    -0.166 F 
HETATM   37  F   UNK N   1      38.014   5.920  17.811  0.00  0.00    -0.166 F 
ENDBRANCH  31  34
ENDBRANCH  25  28
ENDBRANCH   6  25
BRANCH   5  38
HETATM   38  C   UNK N   1      34.721  14.262   9.802  0.00  0.00     0.149 A 
HETATM   39  N   UNK N   1      33.901  14.218   8.720  0.00  0.00    -0.322 N 
HETATM   40  C   UNK N   1      33.779  15.460   8.142  0.00  0.00     0.127 A 
ATOM     41  HN  UNK N   1      33.436  13.376   8.381  1.00  0.00     0.169 HD
HETATM   42  C   UNK N   1      34.472  16.488   8.764  0.00  0.00     0.068 A 
HETATM   43  N   UNK N   1      32.996  15.710   7.074  0.00  0.00    -0.331 N 
HETATM   44  C   UNK N   1      34.348  17.791   8.316  0.00  0.00     0.112 A 
HETATM   45  S   UNK N   1      35.281  15.821  10.031  0.00  0.00    -0.049 SA
HETATM   46  N   UNK N   1      33.533  18.020   7.247  0.00  0.00    -0.354 N 
HETATM   47  C   UNK N   1      32.866  16.996   6.618  0.00  0.00     0.086 A 
ATOM     48  HN  UNK N   1      33.416  18.973   6.904  1.00  0.00     0.166 HD
ATOM     49  HN  UNK N   1      32.503  14.948   6.608  1.00  0.00     0.168 HD
BRANCH  47  50
HETATM   50  C   UNK N   1      31.991  17.302   5.440  0.00  0.00     0.053 A 
HETATM   51  C   UNK N   1      32.789  17.572   4.174  0.00  0.00     0.013 A 
HETATM   52  C   UNK N   1      32.164  16.212   4.394  0.00  0.00     0.013 A 
ENDBRANCH  47  50
ENDBRANCH   5  38
TORSDOF 11
ENDMDL
MODEL 9
REMARK VINA RESULT:      -7.5      4.015      6.631
REMARK  11 active torsions:
REMARK  status: ('A' for Active; 'I' for Inactive)
REMARK    1  A    between atoms: C_15  and  C_12 
REMARK    2  A    between atoms: N_38  and  C_12 
REMARK    3  A    between atoms: C_23  and  C_16 
REMARK    4  A    between atoms: C_27  and  C_17 
REMARK    5  A    between atoms: S_51  and  C_18 
REMARK    6  A    between atoms: C_20  and  C_25 
REMARK    7  A    between atoms: O_49  and  C_21 
REMARK    8  A    between atoms: O_46  and  C_25 
REMARK    9  A    between atoms: N_44  and  C_26 
REMARK   10  A    between atoms: O_49  and  C_28 
REMARK   11  A    between atoms: S_51  and  N_45 
ROOT
HETATM    1  C   UNK N   1      33.542  15.493   9.780  0.00  0.00     0.140 C 
HETATM    2  C   UNK N   1      34.505  16.307   8.952  0.00  0.00     0.128 C 
HETATM    3  C   UNK N   1      34.853  13.510   9.026  0.00  0.00     0.154 C 
HETATM    4  C   UNK N   1      34.700  14.175   7.629  0.00  0.00     0.166 C 
HETATM    5  N   UNK N   1      34.225  14.273  10.097  0.00  0.00    -0.358 N 
HETATM    6  N   UNK N   1      34.747  15.669   7.651  0.00  0.00    -0.191 NA
ENDROOT
BRANCH   4   7
HETATM    7  C   UNK N   1      33.469  13.606   6.943  0.00  0.00     0.132 C 
HETATM    8  N   UNK N   1      33.543  12.937   5.835  0.00  0.00    -0.369 N 
ATOM      9  HN  UNK N   1      32.682  12.553   5.446  1.00  0.00     0.161 HD
BRANCH   8  10
HETATM   10  C   UNK N   1      34.782  12.706   5.117  0.00  0.00     0.160 C 
BRANCH  10  11
HETATM   11  C   UNK N   1      34.574  13.031   3.697  0.00  0.00    -0.037 A 
HETATM   12  C   UNK N   1      33.362  12.721   3.086  0.00  0.00     0.012 A 
HETATM   13  C   UNK N   1      33.247  12.813   1.704  0.00  0.00     0.041 A 
HETATM   14  C   UNK N   1      34.351  13.178   0.925  0.00  0.00     0.116 A 
HETATM   15  C   UNK N   1      35.556  13.557   1.561  0.00  0.00     0.150 A 
HETATM   16  C   UNK N   1      35.655  13.476   2.943  0.00  0.00     0.054 A 
HETATM   17  F   UNK N   1      36.645  13.954   0.865  0.00  0.00    -0.203 F 
BRANCH  14  18
HETATM   18  O   UNK N   1      34.226  13.079  -0.420  0.00  0.00    -0.252 OA
BRANCH  18  19
HETATM   19  C   UNK N   1      34.755  12.037  -1.161  0.00  0.00     0.530 C 
HETATM   20  F   UNK N   1      35.923  12.408  -1.796  0.00  0.00    -0.144 F 
HETATM   21  F   UNK N   1      33.835  11.668  -2.119  0.00  0.00    -0.144 F 
HETATM   22  F   UNK N   1      34.989  10.945  -0.337  0.00  0.00    -0.144 F 
ENDBRANCH  18  19
ENDBRANCH  14  18
ENDBRANCH  10  11
ENDBRANCH   8  10
BRANCH   7  23
HETATM   23  O   UNK N   1      32.260  13.793   7.509  0.00  0.00    -0.348 OA
HETATM   24  H   UNK N   1      31.613  14.253   8.009  0.00  0.00     0.219 HD
ENDBRANCH   7  23
ENDBRANCH   4   7
BRANCH   6  25
HETATM   25  S   UNK N   1      33.790  16.564   6.424  0.00  0.00     0.244 S 
HETATM   26  O   UNK N   1      34.330  16.088   5.068  0.00  0.00    -0.206 OA
HETATM   27  O   UNK N   1      34.482  17.936   6.463  0.00  0.00    -0.206 OA
BRANCH  25  28
HETATM   28  C   UNK N   1      32.039  16.987   6.298  0.00  0.00     0.074 A 
HETATM   29  C   UNK N   1      31.183  17.101   7.404  0.00  0.00     0.025 A 
HETATM   30  C   UNK N   1      29.834  17.458   7.210  0.00  0.00     0.018 A 
HETATM   31  C   UNK N   1      29.336  17.663   5.908  0.00  0.00     0.048 A 
HETATM   32  C   UNK N   1      30.189  17.493   4.817  0.00  0.00     0.018 A 
HETATM   33  C   UNK N   1      31.522  17.161   5.013  0.00  0.00     0.025 A 
BRANCH  31  34
HETATM   34  C   UNK N   1      27.914  18.095   5.672  0.00  0.00     0.417 C 
HETATM   35  F   UNK N   1      27.036  17.046   5.904  0.00  0.00    -0.166 F 
HETATM   36  F   UNK N   1      27.584  19.140   6.513  0.00  0.00    -0.166 F 
HETATM   37  F   UNK N   1      27.771  18.502   4.358  0.00  0.00    -0.166 F 
ENDBRANCH  31  34
ENDBRANCH  25  28
ENDBRANCH   6  25
BRANCH   5  38
HETATM   38  C   UNK N   1      34.668  14.067  11.427  0.00  0.00     0.149 A 
HETATM   39  N   UNK N   1      34.491  12.905  12.108  0.00  0.00    -0.322 N 
HETATM   40  C   UNK N   1      35.222  12.900  13.273  0.00  0.00     0.127 A 
ATOM     41  HN  UNK N   1      33.896  12.138  11.797  1.00  0.00     0.169 HD
HETATM   42  C   UNK N   1      35.991  14.030  13.510  0.00  0.00     0.068 A 
HETATM   43  N   UNK N   1      35.260  11.854  14.123  0.00  0.00    -0.331 N 
HETATM   44  C   UNK N   1      36.830  14.090  14.609  0.00  0.00     0.112 A 
HETATM   45  S   UNK N   1      35.716  15.066  12.264  0.00  0.00    -0.049 SA
HETATM   46  N   UNK N   1      36.865  13.011  15.442  0.00  0.00    -0.354 N 
HETATM   47  C   UNK N   1      36.085  11.902  15.216  0.00  0.00     0.086 A 
ATOM     48  HN  UNK N   1      37.484  13.026  16.252  1.00  0.00     0.166 HD
ATOM     49  HN  UNK N   1      34.678  11.033  13.954  1.00  0.00     0.168 HD
BRANCH  47  50
HETATM   50  C   UNK N   1      36.155  10.747  16.169  0.00  0.00     0.053 A 
HETATM   51  C   UNK N   1      35.304  10.963  17.411  0.00  0.00     0.013 A 
HETATM   52  C   UNK N   1      34.780  10.108  16.279  0.00  0.00     0.013 A 
ENDBRANCH  47  50
ENDBRANCH   5  38
TORSDOF 11
ENDMDL
