MODEL 1
REMARK VINA RESULT:      -7.5      0.000      0.000
REMARK  3 active torsions:
REMARK  status: ('A' for Active; 'I' for Inactive)
REMARK    1  A    between atoms: C_2  and  C_3 
REMARK    2  A    between atoms: C_2  and  O_25 
REMARK    3  A    between atoms: C_5  and  C_3 
ROOT
HETATM    1  C   UNK N   1      26.496  25.609  -5.513  0.00  0.00     0.027 C 
HETATM    2  C   UNK N   1      25.773  24.767  -4.473  0.00  0.00     0.018 C 
HETATM    3  C   UNK N   1      26.820  24.539  -3.385  0.00  0.00     0.007 C 
HETATM    4  C   UNK N   1      28.186  24.585  -4.078  0.00  0.00     0.003 C 
HETATM    5  C   UNK N   1      27.879  24.901  -5.569  0.00  0.00    -0.025 C 
HETATM    6  C   UNK N   1      27.801  23.581  -6.388  0.00  0.00     0.015 C 
HETATM    7  C   UNK N   1      29.147  22.840  -6.403  0.00  0.00     0.036 C 
HETATM    8  C   UNK N   1      29.713  22.736  -5.012  0.00  0.00    -0.069 C 
HETATM    9  C   UNK N   1      30.933  22.205  -4.789  0.00  0.00    -0.049 C 
HETATM   10  C   UNK N   1      31.781  21.657  -5.909  0.00  0.00     0.047 C 
HETATM   11  C   UNK N   1      32.357  20.303  -5.503  0.00  0.00     0.087 C 
HETATM   12  C   UNK N   1      33.034  20.405  -4.161  0.00  0.00     0.150 C 
HETATM   13  O   UNK N   1      34.003  19.707  -3.914  0.00  0.00    -0.293 OA
HETATM   14  C   UNK N   1      32.484  21.305  -3.119  0.00  0.00     0.057 C 
HETATM   15  C   UNK N   1      31.468  22.133  -3.407  0.00  0.00    -0.048 C 
HETATM   16  C   UNK N   1      30.859  22.999  -2.349  0.00  0.00     0.040 C 
HETATM   17  C   UNK N   1      29.343  22.912  -2.443  0.00  0.00     0.014 C 
HETATM   18  C   UNK N   1      28.837  23.205  -3.867  0.00  0.00     0.020 C 
HETATM   19  C   UNK N   1      28.971  25.773  -6.192  0.00  0.00     0.016 C 
HETATM   20  C   UNK N   1      25.751  25.557  -6.844  0.00  0.00     0.024 C 
ENDROOT
BRANCH   1  21
HETATM   21  C   UNK N   1      26.554  27.077  -5.080  0.00  0.00     0.164 C 
HETATM   22  O   UNK N   1      26.593  27.955  -5.931  0.00  0.00    -0.294 OA
BRANCH  21  23
HETATM   23  C   UNK N   1      26.504  27.476  -3.630  0.00  0.00     0.184 C 
HETATM   24  C   UNK N   1      27.687  28.356  -3.275  0.00  0.00     0.047 C 
BRANCH  23  25
HETATM   25  O   UNK N   1      25.315  28.159  -3.365  0.00  0.00    -0.388 OA
HETATM   26  H   UNK N   1      24.530  27.996  -3.912  0.00  0.00     0.210 HD
ENDBRANCH  23  25
ENDBRANCH  21  23
ENDBRANCH   1  21
TORSDOF 3
ENDMDL
MODEL 2
REMARK VINA RESULT:      -7.1      2.033      2.880
REMARK  3 active torsions:
REMARK  status: ('A' for Active; 'I' for Inactive)
REMARK    1  A    between atoms: C_2  and  C_3 
REMARK    2  A    between atoms: C_2  and  O_25 
REMARK    3  A    between atoms: C_5  and  C_3 
ROOT
HETATM    1  C   UNK N   1      26.034  27.027  -5.154  0.00  0.00     0.027 C 
HETATM    2  C   UNK N   1      26.016  26.417  -3.761  0.00  0.00     0.018 C 
HETATM    3  C   UNK N   1      27.384  25.752  -3.629  0.00  0.00     0.007 C 
HETATM    4  C   UNK N   1      27.821  25.367  -5.045  0.00  0.00     0.003 C 
HETATM    5  C   UNK N   1      26.690  25.884  -5.978  0.00  0.00    -0.025 C 
HETATM    6  C   UNK N   1      25.672  24.744  -6.265  0.00  0.00     0.015 C 
HETATM    7  C   UNK N   1      26.321  23.579  -7.028  0.00  0.00     0.036 C 
HETATM    8  C   UNK N   1      27.618  23.175  -6.380  0.00  0.00    -0.069 C 
HETATM    9  C   UNK N   1      28.412  22.233  -6.928  0.00  0.00    -0.049 C 
HETATM   10  C   UNK N   1      28.033  21.509  -8.196  0.00  0.00     0.047 C 
HETATM   11  C   UNK N   1      28.278  20.012  -8.026  0.00  0.00     0.087 C 
HETATM   12  C   UNK N   1      29.678  19.765  -7.527  0.00  0.00     0.150 C 
HETATM   13  O   UNK N   1      30.272  18.754  -7.859  0.00  0.00    -0.293 OA
HETATM   14  C   UNK N   1      30.308  20.718  -6.582  0.00  0.00     0.057 C 
HETATM   15  C   UNK N   1      29.694  21.871  -6.273  0.00  0.00    -0.048 C 
HETATM   16  C   UNK N   1      30.286  22.811  -5.270  0.00  0.00     0.040 C 
HETATM   17  C   UNK N   1      29.196  23.272  -4.314  0.00  0.00     0.014 C 
HETATM   18  C   UNK N   1      27.973  23.833  -5.061  0.00  0.00     0.020 C 
HETATM   19  C   UNK N   1      27.247  26.360  -7.321  0.00  0.00     0.016 C 
HETATM   20  C   UNK N   1      24.612  27.344  -5.610  0.00  0.00     0.024 C 
ENDROOT
BRANCH   1  21
HETATM   21  C   UNK N   1      26.819  28.343  -5.162  0.00  0.00     0.164 C 
HETATM   22  O   UNK N   1      27.233  28.791  -6.222  0.00  0.00    -0.294 OA
BRANCH  21  23
HETATM   23  C   UNK N   1      27.044  29.137  -3.903  0.00  0.00     0.184 C 
HETATM   24  C   UNK N   1      28.394  29.827  -3.941  0.00  0.00     0.047 C 
BRANCH  23  25
HETATM   25  O   UNK N   1      26.034  30.089  -3.754  0.00  0.00    -0.388 OA
HETATM   26  H   UNK N   1      25.163  29.823  -3.419  0.00  0.00     0.210 HD
ENDBRANCH  23  25
ENDBRANCH  21  23
ENDBRANCH   1  21
TORSDOF 3
ENDMDL
MODEL 3
REMARK VINA RESULT:      -7.0     13.518     17.627
REMARK  3 active torsions:
REMARK  status: ('A' for Active; 'I' for Inactive)
REMARK    1  A    between atoms: C_2  and  C_3 
REMARK    2  A    between atoms: C_2  and  O_25 
REMARK    3  A    between atoms: C_5  and  C_3 
ROOT
HETATM    1  C   UNK N   1      35.973  14.186  10.454  0.00  0.00     0.027 C 
HETATM    2  C   UNK N   1      36.519  15.601  10.553  0.00  0.00     0.018 C 
HETATM    3  C   UNK N   1      35.351  16.483  10.117  0.00  0.00     0.007 C 
HETATM    4  C   UNK N   1      34.507  15.643   9.153  0.00  0.00     0.003 C 
HETATM    5  C   UNK N   1      35.200  14.253   9.106  0.00  0.00    -0.025 C 
HETATM    6  C   UNK N   1      36.176  14.184   7.896  0.00  0.00     0.015 C 
HETATM    7  C   UNK N   1      35.432  14.308   6.558  0.00  0.00     0.036 C 
HETATM    8  C   UNK N   1      34.476  15.470   6.585  0.00  0.00    -0.069 C 
HETATM    9  C   UNK N   1      33.646  15.720   5.552  0.00  0.00    -0.049 C 
HETATM   10  C   UNK N   1      33.651  14.876   4.302  0.00  0.00     0.047 C 
HETATM   11  C   UNK N   1      33.634  15.779   3.072  0.00  0.00     0.087 C 
HETATM   12  C   UNK N   1      32.515  16.783   3.177  0.00  0.00     0.150 C 
HETATM   13  O   UNK N   1      31.952  17.174   2.168  0.00  0.00    -0.293 OA
HETATM   14  C   UNK N   1      32.144  17.345   4.498  0.00  0.00     0.057 C 
HETATM   15  C   UNK N   1      32.703  16.864   5.619  0.00  0.00    -0.048 C 
HETATM   16  C   UNK N   1      32.388  17.466   6.953  0.00  0.00     0.040 C 
HETATM   17  C   UNK N   1      33.681  17.668   7.728  0.00  0.00     0.014 C 
HETATM   18  C   UNK N   1      34.518  16.378   7.799  0.00  0.00     0.020 C 
HETATM   19  C   UNK N   1      34.179  13.125   8.947  0.00  0.00     0.016 C 
HETATM   20  C   UNK N   1      37.119  13.178  10.429  0.00  0.00     0.024 C 
ENDROOT
BRANCH   1  21
HETATM   21  C   UNK N   1      35.099  13.852  11.667  0.00  0.00     0.164 C 
HETATM   22  O   UNK N   1      34.181  14.600  11.973  0.00  0.00    -0.294 OA
BRANCH  21  23
HETATM   23  C   UNK N   1      35.300  12.591  12.463  0.00  0.00     0.184 C 
HETATM   24  C   UNK N   1      35.344  12.897  13.948  0.00  0.00     0.047 C 
BRANCH  23  25
HETATM   25  O   UNK N   1      34.266  11.691  12.199  0.00  0.00    -0.388 OA
HETATM   26  H   UNK N   1      34.197  10.868  12.709  0.00  0.00     0.210 HD
ENDBRANCH  23  25
ENDBRANCH  21  23
ENDBRANCH   1  21
TORSDOF 3
ENDMDL
MODEL 4
REMARK VINA RESULT:      -6.9      1.843      7.363
REMARK  3 active torsions:
REMARK  status: ('A' for Active; 'I' for Inactive)
REMARK    1  A    between atoms: C_2  and  C_3 
REMARK    2  A    between atoms: C_2  and  O_25 
REMARK    3  A    between atoms: C_5  and  C_3 
ROOT
HETATM    1  C   UNK N   1      30.840  22.546  -4.432  0.00  0.00     0.027 C 
HETATM    2  C   UNK N   1      31.633  23.281  -5.503  0.00  0.00     0.018 C 
HETATM    3  C   UNK N   1      31.903  24.653  -4.889  0.00  0.00     0.007 C 
HETATM    4  C   UNK N   1      30.751  24.932  -3.919  0.00  0.00     0.003 C 
HETATM    5  C   UNK N   1      29.861  23.659  -3.962  0.00  0.00    -0.025 C 
HETATM    6  C   UNK N   1      28.702  23.853  -4.982  0.00  0.00     0.015 C 
HETATM    7  C   UNK N   1      27.758  24.989  -4.561  0.00  0.00     0.036 C 
HETATM    8  C   UNK N   1      28.539  26.220  -4.188  0.00  0.00    -0.069 C 
HETATM    9  C   UNK N   1      27.927  27.318  -3.699  0.00  0.00    -0.049 C 
HETATM   10  C   UNK N   1      26.430  27.388  -3.529  0.00  0.00     0.047 C 
HETATM   11  C   UNK N   1      25.913  28.718  -4.070  0.00  0.00     0.087 C 
HETATM   12  C   UNK N   1      26.692  29.862  -3.474  0.00  0.00     0.150 C 
HETATM   13  O   UNK N   1      26.144  30.934  -3.279  0.00  0.00    -0.293 OA
HETATM   14  C   UNK N   1      28.138  29.706  -3.187  0.00  0.00     0.057 C 
HETATM   15  C   UNK N   1      28.730  28.509  -3.324  0.00  0.00    -0.048 C 
HETATM   16  C   UNK N   1      30.201  28.351  -3.103  0.00  0.00     0.040 C 
HETATM   17  C   UNK N   1      30.791  27.523  -4.235  0.00  0.00     0.014 C 
HETATM   18  C   UNK N   1      30.035  26.197  -4.433  0.00  0.00     0.020 C 
HETATM   19  C   UNK N   1      29.236  23.366  -2.597  0.00  0.00     0.016 C 
HETATM   20  C   UNK N   1      30.123  21.344  -5.039  0.00  0.00     0.024 C 
ENDROOT
BRANCH   1  21
HETATM   21  C   UNK N   1      31.768  22.016  -3.335  0.00  0.00     0.164 C 
HETATM   22  O   UNK N   1      31.612  22.390  -2.181  0.00  0.00    -0.294 OA
BRANCH  21  23
HETATM   23  C   UNK N   1      32.836  20.996  -3.626  0.00  0.00     0.184 C 
HETATM   24  C   UNK N   1      33.980  21.624  -4.398  0.00  0.00     0.047 C 
BRANCH  23  25
HETATM   25  O   UNK N   1      33.315  20.455  -2.433  0.00  0.00    -0.388 OA
HETATM   26  H   UNK N   1      34.012  20.914  -1.937  0.00  0.00     0.210 HD
ENDBRANCH  23  25
ENDBRANCH  21  23
ENDBRANCH   1  21
TORSDOF 3
ENDMDL
MODEL 5
REMARK VINA RESULT:      -6.8     11.045     13.336
REMARK  3 active torsions:
REMARK  status: ('A' for Active; 'I' for Inactive)
REMARK    1  A    between atoms: C_2  and  C_3 
REMARK    2  A    between atoms: C_2  and  O_25 
REMARK    3  A    between atoms: C_5  and  C_3 
ROOT
HETATM    1  C   UNK N   1      27.984  18.588   5.455  0.00  0.00     0.027 C 
HETATM    2  C   UNK N   1      27.724  19.763   4.526  0.00  0.00     0.018 C 
HETATM    3  C   UNK N   1      26.223  20.013   4.655  0.00  0.00     0.007 C 
HETATM    4  C   UNK N   1      25.585  18.667   5.009  0.00  0.00     0.003 C 
HETATM    5  C   UNK N   1      26.771  17.670   5.133  0.00  0.00    -0.025 C 
HETATM    6  C   UNK N   1      26.979  16.919   3.786  0.00  0.00     0.015 C 
HETATM    7  C   UNK N   1      25.763  16.053   3.424  0.00  0.00     0.036 C 
HETATM    8  C   UNK N   1      24.487  16.840   3.566  0.00  0.00    -0.069 C 
HETATM    9  C   UNK N   1      23.282  16.260   3.389  0.00  0.00    -0.049 C 
HETATM   10  C   UNK N   1      23.144  14.808   3.009  0.00  0.00     0.047 C 
HETATM   11  C   UNK N   1      22.122  14.666   1.883  0.00  0.00     0.087 C 
HETATM   12  C   UNK N   1      20.841  15.370   2.250  0.00  0.00     0.150 C 
HETATM   13  O   UNK N   1      19.774  14.938   1.849  0.00  0.00    -0.293 OA
HETATM   14  C   UNK N   1      20.883  16.622   3.043  0.00  0.00     0.057 C 
HETATM   15  C   UNK N   1      22.043  17.061   3.555  0.00  0.00    -0.048 C 
HETATM   16  C   UNK N   1      22.113  18.357   4.300  0.00  0.00     0.040 C 
HETATM   17  C   UNK N   1      23.316  19.150   3.812  0.00  0.00     0.014 C 
HETATM   18  C   UNK N   1      24.612  18.321   3.866  0.00  0.00     0.020 C 
HETATM   19  C   UNK N   1      26.511  16.622   6.216  0.00  0.00     0.016 C 
HETATM   20  C   UNK N   1      29.324  17.937   5.120  0.00  0.00     0.024 C 
ENDROOT
BRANCH   1  21
HETATM   21  C   UNK N   1      28.055  19.052   6.914  0.00  0.00     0.164 C 
HETATM   22  O   UNK N   1      27.813  20.219   7.187  0.00  0.00    -0.294 OA
BRANCH  21  23
HETATM   23  C   UNK N   1      28.358  18.094   8.034  0.00  0.00     0.184 C 
HETATM   24  C   UNK N   1      29.764  18.313   8.560  0.00  0.00     0.047 C 
BRANCH  23  25
HETATM   25  O   UNK N   1      27.438  18.265   9.069  0.00  0.00    -0.388 OA
HETATM   26  H   UNK N   1      26.633  18.788   8.921  0.00  0.00     0.210 HD
ENDBRANCH  23  25
ENDBRANCH  21  23
ENDBRANCH   1  21
TORSDOF 3
ENDMDL
MODEL 6
REMARK VINA RESULT:      -6.7     13.177     15.887
REMARK  3 active torsions:
REMARK  status: ('A' for Active; 'I' for Inactive)
REMARK    1  A    between atoms: C_2  and  C_3 
REMARK    2  A    between atoms: C_2  and  O_25 
REMARK    3  A    between atoms: C_5  and  C_3 
ROOT
HETATM    1  C   UNK N   1      34.094  16.262   7.957  0.00  0.00     0.027 C 
HETATM    2  C   UNK N   1      33.969  17.741   7.625  0.00  0.00     0.018 C 
HETATM    3  C   UNK N   1      32.556  18.105   8.077  0.00  0.00     0.007 C 
HETATM    4  C   UNK N   1      31.719  16.828   7.961  0.00  0.00     0.003 C 
HETATM    5  C   UNK N   1      32.711  15.728   7.490  0.00  0.00    -0.025 C 
HETATM    6  C   UNK N   1      32.657  15.590   5.941  0.00  0.00     0.015 C 
HETATM    7  C   UNK N   1      31.276  15.119   5.459  0.00  0.00     0.036 C 
HETATM    8  C   UNK N   1      30.183  15.931   6.101  0.00  0.00    -0.069 C 
HETATM    9  C   UNK N   1      28.881  15.638   5.899  0.00  0.00    -0.049 C 
HETATM   10  C   UNK N   1      28.448  14.510   4.998  0.00  0.00     0.047 C 
HETATM   11  C   UNK N   1      27.321  14.985   4.084  0.00  0.00     0.087 C 
HETATM   12  C   UNK N   1      26.227  15.628   4.897  0.00  0.00     0.150 C 
HETATM   13  O   UNK N   1      25.068  15.545   4.528  0.00  0.00    -0.293 OA
HETATM   14  C   UNK N   1      26.567  16.417   6.105  0.00  0.00     0.057 C 
HETATM   15  C   UNK N   1      27.829  16.449   6.561  0.00  0.00    -0.048 C 
HETATM   16  C   UNK N   1      28.199  17.293   7.740  0.00  0.00     0.040 C 
HETATM   17  C   UNK N   1      29.478  18.055   7.427  0.00  0.00     0.014 C 
HETATM   18  C   UNK N   1      30.601  17.121   6.942  0.00  0.00     0.020 C 
HETATM   19  C   UNK N   1      32.363  14.366   8.092  0.00  0.00     0.016 C 
HETATM   20  C   UNK N   1      35.258  15.645   7.185  0.00  0.00     0.024 C 
ENDROOT
BRANCH   1  21
HETATM   21  C   UNK N   1      34.378  16.060   9.449  0.00  0.00     0.164 C 
HETATM   22  O   UNK N   1      34.734  17.012  10.129  0.00  0.00    -0.294 OA
BRANCH  21  23
HETATM   23  C   UNK N   1      34.174  14.728  10.119  0.00  0.00     0.184 C 
HETATM   24  C   UNK N   1      35.507  14.085  10.449  0.00  0.00     0.047 C 
BRANCH  23  25
HETATM   25  O   UNK N   1      33.429  14.893  11.288  0.00  0.00    -0.388 OA
HETATM   26  H   UNK N   1      32.783  14.218  11.551  0.00  0.00     0.210 HD
ENDBRANCH  23  25
ENDBRANCH  21  23
ENDBRANCH   1  21
TORSDOF 3
ENDMDL
MODEL 7
REMARK VINA RESULT:      -6.7     17.897     21.757
REMARK  3 active torsions:
REMARK  status: ('A' for Active; 'I' for Inactive)
REMARK    1  A    between atoms: C_2  and  C_3 
REMARK    2  A    between atoms: C_2  and  O_25 
REMARK    3  A    between atoms: C_5  and  C_3 
ROOT
HETATM    1  C   UNK N   1      36.413  12.240  14.749  0.00  0.00     0.027 C 
HETATM    2  C   UNK N   1      37.272  13.478  14.955  0.00  0.00     0.018 C 
HETATM    3  C   UNK N   1      36.493  14.591  14.258  0.00  0.00     0.007 C 
HETATM    4  C   UNK N   1      35.689  13.926  13.137  0.00  0.00     0.003 C 
HETATM    5  C   UNK N   1      35.993  12.406  13.261  0.00  0.00    -0.025 C 
HETATM    6  C   UNK N   1      37.155  12.015  12.303  0.00  0.00     0.015 C 
HETATM    7  C   UNK N   1      36.775  12.230  10.830  0.00  0.00     0.036 C 
HETATM    8  C   UNK N   1      36.169  13.593  10.630  0.00  0.00    -0.069 C 
HETATM    9  C   UNK N   1      35.674  13.972   9.434  0.00  0.00    -0.049 C 
HETATM   10  C   UNK N   1      35.730  13.071   8.226  0.00  0.00     0.047 C 
HETATM   11  C   UNK N   1      36.212  13.865   7.014  0.00  0.00     0.087 C 
HETATM   12  C   UNK N   1      35.395  15.121   6.855  0.00  0.00     0.150 C 
HETATM   13  O   UNK N   1      35.182  15.571   5.741  0.00  0.00    -0.293 OA
HETATM   14  C   UNK N   1      34.905  15.845   8.052  0.00  0.00     0.057 C 
HETATM   15  C   UNK N   1      35.066  15.317   9.276  0.00  0.00    -0.048 C 
HETATM   16  C   UNK N   1      34.637  16.067  10.498  0.00  0.00     0.040 C 
HETATM   17  C   UNK N   1      35.741  15.992  11.543  0.00  0.00     0.014 C 
HETATM   18  C   UNK N   1      36.181  14.542  11.813  0.00  0.00     0.020 C 
HETATM   19  C   UNK N   1      34.775  11.560  12.886  0.00  0.00     0.016 C 
HETATM   20  C   UNK N   1      37.238  10.979  14.993  0.00  0.00     0.024 C 
ENDROOT
BRANCH   1  21
HETATM   21  C   UNK N   1      35.243  12.217  15.737  0.00  0.00     0.164 C 
HETATM   22  O   UNK N   1      34.106  12.408  15.329  0.00  0.00    -0.294 OA
BRANCH  21  23
HETATM   23  C   UNK N   1      35.446  11.905  17.195  0.00  0.00     0.184 C 
HETATM   24  C   UNK N   1      35.059  13.092  18.056  0.00  0.00     0.047 C 
BRANCH  23  25
HETATM   25  O   UNK N   1      34.680  10.795  17.555  0.00  0.00    -0.388 OA
HETATM   26  H   UNK N   1      33.957  10.497  16.980  0.00  0.00     0.210 HD
ENDBRANCH  23  25
ENDBRANCH  21  23
ENDBRANCH   1  21
TORSDOF 3
ENDMDL
MODEL 8
REMARK VINA RESULT:      -6.7      1.689      7.642
REMARK  3 active torsions:
REMARK  status: ('A' for Active; 'I' for Inactive)
REMARK    1  A    between atoms: C_2  and  C_3 
REMARK    2  A    between atoms: C_2  and  O_25 
REMARK    3  A    between atoms: C_5  and  C_3 
ROOT
HETATM    1  C   UNK N   1      33.134  21.017  -4.346  0.00  0.00     0.027 C 
HETATM    2  C   UNK N   1      32.333  19.770  -4.684  0.00  0.00     0.018 C 
HETATM    3  C   UNK N   1      31.448  20.202  -5.851  0.00  0.00     0.007 C 
HETATM    4  C   UNK N   1      31.214  21.707  -5.688  0.00  0.00     0.003 C 
HETATM    5  C   UNK N   1      32.038  22.116  -4.435  0.00  0.00    -0.025 C 
HETATM    6  C   UNK N   1      31.129  22.105  -3.173  0.00  0.00     0.015 C 
HETATM    7  C   UNK N   1      30.004  23.147  -3.272  0.00  0.00     0.036 C 
HETATM    8  C   UNK N   1      29.308  23.053  -4.603  0.00  0.00    -0.069 C 
HETATM    9  C   UNK N   1      28.344  23.929  -4.954  0.00  0.00    -0.049 C 
HETATM   10  C   UNK N   1      27.888  25.026  -4.026  0.00  0.00     0.047 C 
HETATM   11  C   UNK N   1      26.362  25.082  -4.007  0.00  0.00     0.087 C 
HETATM   12  C   UNK N   1      25.825  25.152  -5.413  0.00  0.00     0.150 C 
HETATM   13  O   UNK N   1      24.794  25.760  -5.641  0.00  0.00    -0.293 OA
HETATM   14  C   UNK N   1      26.514  24.426  -6.507  0.00  0.00     0.057 C 
HETATM   15  C   UNK N   1      27.690  23.820  -6.282  0.00  0.00    -0.048 C 
HETATM   16  C   UNK N   1      28.364  23.027  -7.358  0.00  0.00     0.040 C 
HETATM   17  C   UNK N   1      28.843  21.704  -6.779  0.00  0.00     0.014 C 
HETATM   18  C   UNK N   1      29.696  21.905  -5.514  0.00  0.00     0.020 C 
HETATM   19  C   UNK N   1      32.616  23.525  -4.581  0.00  0.00     0.016 C 
HETATM   20  C   UNK N   1      33.737  20.895  -2.949  0.00  0.00     0.024 C 
ENDROOT
BRANCH   1  21
HETATM   21  C   UNK N   1      34.296  21.202  -5.328  0.00  0.00     0.164 C 
HETATM   22  O   UNK N   1      35.131  22.071  -5.118  0.00  0.00    -0.294 OA
BRANCH  21  23
HETATM   23  C   UNK N   1      34.473  20.301  -6.521  0.00  0.00     0.184 C 
HETATM   24  C   UNK N   1      34.543  21.113  -7.800  0.00  0.00     0.047 C 
BRANCH  23  25
HETATM   25  O   UNK N   1      35.639  19.548  -6.378  0.00  0.00    -0.388 OA
HETATM   26  H   UNK N   1      36.464  19.847  -6.793  0.00  0.00     0.210 HD
ENDBRANCH  23  25
ENDBRANCH  21  23
ENDBRANCH   1  21
TORSDOF 3
ENDMDL
MODEL 9
REMARK VINA RESULT:      -6.6     23.920     27.153
REMARK  3 active torsions:
REMARK  status: ('A' for Active; 'I' for Inactive)
REMARK    1  A    between atoms: C_2  and  C_3 
REMARK    2  A    between atoms: C_2  and  O_25 
REMARK    3  A    between atoms: C_5  and  C_3 
ROOT
HETATM    1  C   UNK N   1      35.338  12.144  15.167  0.00  0.00     0.027 C 
HETATM    2  C   UNK N   1      34.405  12.954  16.052  0.00  0.00     0.018 C 
HETATM    3  C   UNK N   1      35.101  12.970  17.411  0.00  0.00     0.007 C 
HETATM    4  C   UNK N   1      35.930  11.684  17.491  0.00  0.00     0.003 C 
HETATM    5  C   UNK N   1      35.726  10.979  16.121  0.00  0.00    -0.025 C 
HETATM    6  C   UNK N   1      34.579   9.934  16.225  0.00  0.00     0.015 C 
HETATM    7  C   UNK N   1      34.923   8.806  17.210  0.00  0.00     0.036 C 
HETATM    8  C   UNK N   1      35.438   9.371  18.507  0.00  0.00    -0.069 C 
HETATM    9  C   UNK N   1      35.891   8.567  19.491  0.00  0.00    -0.049 C 
HETATM   10  C   UNK N   1      35.876   7.065  19.365  0.00  0.00     0.047 C 
HETATM   11  C   UNK N   1      35.327   6.446  20.648  0.00  0.00     0.087 C 
HETATM   12  C   UNK N   1      36.060   6.993  21.846  0.00  0.00     0.150 C 
HETATM   13  O   UNK N   1      36.228   6.291  22.828  0.00  0.00    -0.293 OA
HETATM   14  C   UNK N   1      36.519   8.403  21.855  0.00  0.00     0.057 C 
HETATM   15  C   UNK N   1      36.409   9.158  20.751  0.00  0.00    -0.048 C 
HETATM   16  C   UNK N   1      36.805  10.601  20.765  0.00  0.00     0.040 C 
HETATM   17  C   UNK N   1      35.724  11.423  20.080  0.00  0.00     0.014 C 
HETATM   18  C   UNK N   1      35.381  10.876  18.683  0.00  0.00     0.020 C 
HETATM   19  C   UNK N   1      36.990  10.241  15.679  0.00  0.00     0.016 C 
HETATM   20  C   UNK N   1      34.600  11.666  13.919  0.00  0.00     0.024 C 
ENDROOT
BRANCH   1  21
HETATM   21  C   UNK N   1      36.521  12.996  14.697  0.00  0.00     0.164 C 
HETATM   22  O   UNK N   1      37.560  12.449  14.355  0.00  0.00    -0.294 OA
BRANCH  21  23
HETATM   23  C   UNK N   1      36.421  14.494  14.586  0.00  0.00     0.184 C 
HETATM   24  C   UNK N   1      37.339  15.167  15.588  0.00  0.00     0.047 C 
BRANCH  23  25
HETATM   25  O   UNK N   1      36.759  14.899  13.294  0.00  0.00    -0.388 OA
HETATM   26  H   UNK N   1      36.727  14.262  12.562  0.00  0.00     0.210 HD
ENDBRANCH  23  25
ENDBRANCH  21  23
ENDBRANCH   1  21
TORSDOF 3
ENDMDL
