MODEL 1
REMARK VINA RESULT:      -6.3      0.000      0.000
REMARK  1 active torsions:
REMARK  status: ('A' for Active; 'I' for Inactive)
REMARK    1  A    between atoms: O_15  and  C_12 
ROOT
HETATM    1  C   UNK N   1      34.997  10.132  20.360  0.00  0.00     0.052 C 
HETATM    2  C   UNK N   1      35.019   8.818  17.747  0.00  0.00     0.052 C 
HETATM    3  C   UNK N   1      35.441  14.597  18.117  0.00  0.00     0.052 C 
HETATM    4  C   UNK N   1      36.393  10.935  13.463  0.00  0.00     0.046 C 
HETATM    5  C   UNK N   1      33.989  10.426  13.461  0.00  0.00     0.046 C 
HETATM    6  C   UNK N   1      35.518  13.254  15.493  0.00  0.00     0.045 C 
HETATM    7  C   UNK N   1      34.732  12.583  14.379  0.00  0.00     0.042 C 
HETATM    8  C   UNK N   1      35.114  10.940  19.106  0.00  0.00    -0.020 A 
HETATM    9  C   UNK N   1      35.126  10.307  17.850  0.00  0.00    -0.019 A 
HETATM   10  C   UNK N   1      35.328  13.107  18.018  0.00  0.00    -0.019 A 
HETATM   11  C   UNK N   1      35.349  12.472  16.763  0.00  0.00    -0.015 A 
HETATM   12  C   UNK N   1      35.210  12.339  19.187  0.00  0.00     0.078 A 
HETATM   13  C   UNK N   1      35.235  11.073  16.680  0.00  0.00     0.083 A 
HETATM   14  C   UNK N   1      35.100  11.097  14.241  0.00  0.00     0.061 C 
HETATM   15  O   UNK N   1      35.228  10.455  15.468  0.00  0.00    -0.340 OA
ENDROOT
BRANCH  12  16
HETATM   16  O   UNK N   1      35.193  12.944  20.391  0.00  0.00    -0.360 OA
HETATM   17  H   UNK N   1      35.487  13.829  20.476  0.00  0.00     0.217 HD
ENDBRANCH  12  16
TORSDOF 1
ENDMDL
MODEL 2
REMARK VINA RESULT:      -6.0     10.511     13.345
REMARK  1 active torsions:
REMARK  status: ('A' for Active; 'I' for Inactive)
REMARK    1  A    between atoms: O_15  and  C_12 
ROOT
HETATM    1  C   UNK N   1      27.943  17.555   5.919  0.00  0.00     0.052 C 
HETATM    2  C   UNK N   1      29.633  17.572   8.307  0.00  0.00     0.052 C 
HETATM    3  C   UNK N   1      32.023  17.106   3.035  0.00  0.00     0.052 C 
HETATM    4  C   UNK N   1      34.559  18.244   8.350  0.00  0.00     0.046 C 
HETATM    5  C   UNK N   1      33.978  15.958   9.039  0.00  0.00     0.046 C 
HETATM    6  C   UNK N   1      33.717  17.182   5.447  0.00  0.00     0.045 C 
HETATM    7  C   UNK N   1      34.271  16.424   6.643  0.00  0.00     0.042 C 
HETATM    8  C   UNK N   1      29.430  17.441   5.796  0.00  0.00    -0.020 A 
HETATM    9  C   UNK N   1      30.242  17.451   6.945  0.00  0.00    -0.019 A 
HETATM   10  C   UNK N   1      31.410  17.222   4.396  0.00  0.00    -0.019 A 
HETATM   11  C   UNK N   1      32.221  17.241   5.545  0.00  0.00    -0.015 A 
HETATM   12  C   UNK N   1      30.015  17.321   4.525  0.00  0.00     0.078 A 
HETATM   13  C   UNK N   1      31.635  17.343   6.820  0.00  0.00     0.083 A 
HETATM   14  C   UNK N   1      33.764  17.009   7.970  0.00  0.00     0.061 C 
HETATM   15  O   UNK N   1      32.413  17.336   7.936  0.00  0.00    -0.340 OA
ENDROOT
BRANCH  12  16
HETATM   16  O   UNK N   1      29.235  17.307   3.426  0.00  0.00    -0.360 OA
HETATM   17  H   UNK N   1      29.094  18.095   2.939  0.00  0.00     0.217 HD
ENDBRANCH  12  16
TORSDOF 1
ENDMDL
MODEL 3
REMARK VINA RESULT:      -5.9     11.298     13.168
REMARK  1 active torsions:
REMARK  status: ('A' for Active; 'I' for Inactive)
REMARK    1  A    between atoms: O_15  and  C_12 
ROOT
HETATM    1  C   UNK N   1      26.926  18.771   5.607  0.00  0.00     0.052 C 
HETATM    2  C   UNK N   1      29.039  17.298   4.219  0.00  0.00     0.052 C 
HETATM    3  C   UNK N   1      29.593  18.594   9.852  0.00  0.00     0.052 C 
HETATM    4  C   UNK N   1      32.759  14.835   6.414  0.00  0.00     0.046 C 
HETATM    5  C   UNK N   1      33.604  16.785   5.180  0.00  0.00     0.046 C 
HETATM    6  C   UNK N   1      31.688  17.061   8.454  0.00  0.00     0.045 C 
HETATM    7  C   UNK N   1      32.878  17.094   7.508  0.00  0.00     0.042 C 
HETATM    8  C   UNK N   1      28.161  18.346   6.338  0.00  0.00    -0.020 A 
HETATM    9  C   UNK N   1      29.176  17.637   5.670  0.00  0.00    -0.019 A 
HETATM   10  C   UNK N   1      29.455  18.261   8.398  0.00  0.00    -0.019 A 
HETATM   11  C   UNK N   1      30.465  17.544   7.731  0.00  0.00    -0.015 A 
HETATM   12  C   UNK N   1      28.305  18.662   7.699  0.00  0.00     0.078 A 
HETATM   13  C   UNK N   1      30.329  17.244   6.364  0.00  0.00     0.083 A 
HETATM   14  C   UNK N   1      32.589  16.329   6.207  0.00  0.00     0.061 C 
HETATM   15  O   UNK N   1      31.314  16.573   5.708  0.00  0.00    -0.340 OA
ENDROOT
BRANCH  12  16
HETATM   16  O   UNK N   1      27.334  19.347   8.336  0.00  0.00    -0.360 OA
HETATM   17  H   UNK N   1      26.447  19.287   8.042  0.00  0.00     0.217 HD
ENDBRANCH  12  16
TORSDOF 1
ENDMDL
MODEL 4
REMARK VINA RESULT:      -5.9      1.309      3.390
REMARK  1 active torsions:
REMARK  status: ('A' for Active; 'I' for Inactive)
REMARK    1  A    between atoms: O_15  and  C_12 
ROOT
HETATM    1  C   UNK N   1      35.304  15.040  18.129  0.00  0.00     0.052 C 
HETATM    2  C   UNK N   1      36.063  13.727  15.628  0.00  0.00     0.052 C 
HETATM    3  C   UNK N   1      34.941  10.567  20.369  0.00  0.00     0.052 C 
HETATM    4  C   UNK N   1      35.555   8.879  14.646  0.00  0.00     0.046 C 
HETATM    5  C   UNK N   1      37.928   9.503  14.789  0.00  0.00     0.046 C 
HETATM    6  C   UNK N   1      35.652   9.253  17.826  0.00  0.00     0.045 C 
HETATM    7  C   UNK N   1      36.754   8.866  16.854  0.00  0.00     0.042 C 
HETATM    8  C   UNK N   1      35.410  13.549  18.058  0.00  0.00    -0.020 A 
HETATM    9  C   UNK N   1      35.774  12.918  16.854  0.00  0.00    -0.019 A 
HETATM   10  C   UNK N   1      35.235  11.378  19.145  0.00  0.00    -0.019 A 
HETATM   11  C   UNK N   1      35.590  10.748  17.939  0.00  0.00    -0.015 A 
HETATM   12  C   UNK N   1      35.147  12.779  19.202  0.00  0.00     0.078 A 
HETATM   13  C   UNK N   1      35.871  11.520  16.797  0.00  0.00     0.083 A 
HETATM   14  C   UNK N   1      36.594   9.580  15.502  0.00  0.00     0.061 C 
HETATM   15  O   UNK N   1      36.240  10.918  15.635  0.00  0.00    -0.340 OA
ENDROOT
BRANCH  12  16
HETATM   16  O   UNK N   1      34.804  13.385  20.356  0.00  0.00    -0.360 OA
HETATM   17  H   UNK N   1      34.989  14.295  20.481  0.00  0.00     0.217 HD
ENDBRANCH  12  16
TORSDOF 1
ENDMDL
MODEL 5
REMARK VINA RESULT:      -5.8     11.170     13.523
REMARK  1 active torsions:
REMARK  status: ('A' for Active; 'I' for Inactive)
REMARK    1  A    between atoms: O_15  and  C_12 
ROOT
HETATM    1  C   UNK N   1      33.302  17.771   8.591  0.00  0.00     0.052 C 
HETATM    2  C   UNK N   1      30.415  17.374   8.845  0.00  0.00     0.052 C 
HETATM    3  C   UNK N   1      32.947  17.171   3.624  0.00  0.00     0.052 C 
HETATM    4  C   UNK N   1      27.437  15.520   5.322  0.00  0.00     0.046 C 
HETATM    5  C   UNK N   1      26.932  17.888   5.743  0.00  0.00     0.046 C 
HETATM    6  C   UNK N   1      30.047  16.717   3.901  0.00  0.00     0.045 C 
HETATM    7  C   UNK N   1      28.671  17.333   4.096  0.00  0.00     0.042 C 
HETATM    8  C   UNK N   1      32.462  17.517   7.379  0.00  0.00    -0.020 A 
HETATM    9  C   UNK N   1      31.074  17.324   7.502  0.00  0.00    -0.019 A 
HETATM   10  C   UNK N   1      32.290  17.227   4.968  0.00  0.00    -0.019 A 
HETATM   11  C   UNK N   1      30.904  17.026   5.094  0.00  0.00    -0.015 A 
HETATM   12  C   UNK N   1      33.067  17.473   6.112  0.00  0.00     0.078 A 
HETATM   13  C   UNK N   1      30.295  17.087   6.360  0.00  0.00     0.083 A 
HETATM   14  C   UNK N   1      28.043  16.907   5.432  0.00  0.00     0.061 C 
HETATM   15  O   UNK N   1      28.951  16.919   6.485  0.00  0.00    -0.340 OA
ENDROOT
BRANCH  12  16
HETATM   16  O   UNK N   1      34.396  17.663   5.995  0.00  0.00    -0.360 OA
HETATM   17  H   UNK N   1      34.822  18.324   6.503  0.00  0.00     0.217 HD
ENDBRANCH  12  16
TORSDOF 1
ENDMDL
MODEL 6
REMARK VINA RESULT:      -5.8     11.125     13.540
REMARK  1 active torsions:
REMARK  status: ('A' for Active; 'I' for Inactive)
REMARK    1  A    between atoms: O_15  and  C_12 
ROOT
HETATM    1  C   UNK N   1      33.868  17.061   6.564  0.00  0.00     0.052 C 
HETATM    2  C   UNK N   1      32.246  17.297   4.141  0.00  0.00     0.052 C 
HETATM    3  C   UNK N   1      29.720  17.353   9.369  0.00  0.00     0.052 C 
HETATM    4  C   UNK N   1      27.498  18.764   3.980  0.00  0.00     0.046 C 
HETATM    5  C   UNK N   1      27.709  16.397   3.350  0.00  0.00     0.046 C 
HETATM    6  C   UNK N   1      28.104  17.647   6.921  0.00  0.00     0.045 C 
HETATM    7  C   UNK N   1      27.454  16.961   5.730  0.00  0.00     0.042 C 
HETATM    8  C   UNK N   1      32.381  17.194   6.657  0.00  0.00    -0.020 A 
HETATM    9  C   UNK N   1      31.601  17.309   5.492  0.00  0.00    -0.019 A 
HETATM   10  C   UNK N   1      30.368  17.335   8.019  0.00  0.00    -0.019 A 
HETATM   11  C   UNK N   1      29.591  17.459   6.853  0.00  0.00    -0.015 A 
HETATM   12  C   UNK N   1      31.762  17.202   7.918  0.00  0.00     0.078 A 
HETATM   13  C   UNK N   1      30.208  17.433   5.590  0.00  0.00     0.083 A 
HETATM   14  C   UNK N   1      28.074  17.425   4.402  0.00  0.00     0.061 C 
HETATM   15  O   UNK N   1      29.459  17.527   4.458  0.00  0.00    -0.340 OA
ENDROOT
BRANCH  12  16
HETATM   16  O   UNK N   1      32.510  17.086   9.034  0.00  0.00    -0.360 OA
HETATM   17  H   UNK N   1      32.097  16.941   9.862  0.00  0.00     0.217 HD
ENDBRANCH  12  16
TORSDOF 1
ENDMDL
MODEL 7
REMARK VINA RESULT:      -5.7     10.877     13.094
REMARK  1 active torsions:
REMARK  status: ('A' for Active; 'I' for Inactive)
REMARK    1  A    between atoms: O_15  and  C_12 
ROOT
HETATM    1  C   UNK N   1      33.397  16.197   3.763  0.00  0.00     0.052 C 
HETATM    2  C   UNK N   1      30.516  16.687   3.882  0.00  0.00     0.052 C 
HETATM    3  C   UNK N   1      33.815  17.481   8.594  0.00  0.00     0.052 C 
HETATM    4  C   UNK N   1      28.154  19.138   7.507  0.00  0.00     0.046 C 
HETATM    5  C   UNK N   1      27.532  16.760   7.503  0.00  0.00     0.046 C 
HETATM    6  C   UNK N   1      30.919  18.026   8.683  0.00  0.00     0.045 C 
HETATM    7  C   UNK N   1      29.514  17.453   8.782  0.00  0.00     0.042 C 
HETATM    8  C   UNK N   1      32.757  16.652   5.037  0.00  0.00    -0.020 A 
HETATM    9  C   UNK N   1      31.372  16.889   5.093  0.00  0.00    -0.019 A 
HETATM   10  C   UNK N   1      32.961  17.274   7.382  0.00  0.00    -0.019 A 
HETATM   11  C   UNK N   1      31.576  17.519   7.434  0.00  0.00    -0.015 A 
HETATM   12  C   UNK N   1      33.548  16.839   6.182  0.00  0.00     0.078 A 
HETATM   13  C   UNK N   1      30.781  17.314   6.292  0.00  0.00     0.083 A 
HETATM   14  C   UNK N   1      28.701  17.722   7.505  0.00  0.00     0.061 C 
HETATM   15  O   UNK N   1      29.438  17.525   6.343  0.00  0.00    -0.340 OA
ENDROOT
BRANCH  12  16
HETATM   16  O   UNK N   1      34.874  16.606   6.128  0.00  0.00    -0.360 OA
HETATM   17  H   UNK N   1      35.431  17.173   5.631  0.00  0.00     0.217 HD
ENDBRANCH  12  16
TORSDOF 1
ENDMDL
MODEL 8
REMARK VINA RESULT:      -5.6     12.157     14.630
REMARK  1 active torsions:
REMARK  status: ('A' for Active; 'I' for Inactive)
REMARK    1  A    between atoms: O_15  and  C_12 
ROOT
HETATM    1  C   UNK N   1      31.083  16.669   8.712  0.00  0.00     0.052 C 
HETATM    2  C   UNK N   1      28.786  18.461   8.970  0.00  0.00     0.052 C 
HETATM    3  C   UNK N   1      30.537  16.688   3.726  0.00  0.00     0.052 C 
HETATM    4  C   UNK N   1      25.477  19.443   5.391  0.00  0.00     0.046 C 
HETATM    5  C   UNK N   1      26.816  21.434   5.920  0.00  0.00     0.046 C 
HETATM    6  C   UNK N   1      28.188  18.447   4.005  0.00  0.00     0.045 C 
HETATM    7  C   UNK N   1      27.669  19.857   4.237  0.00  0.00     0.042 C 
HETATM    8  C   UNK N   1      30.349  17.141   7.496  0.00  0.00    -0.020 A 
HETATM    9  C   UNK N   1      29.243  18.001   7.622  0.00  0.00    -0.019 A 
HETATM   10  C   UNK N   1      30.085  17.150   5.076  0.00  0.00    -0.019 A 
HETATM   11  C   UNK N   1      28.974  18.003   5.204  0.00  0.00    -0.015 A 
HETATM   12  C   UNK N   1      30.771  16.721   6.224  0.00  0.00     0.078 A 
HETATM   13  C   UNK N   1      28.562  18.438   6.476  0.00  0.00     0.083 A 
HETATM   14  C   UNK N   1      26.891  19.965   5.558  0.00  0.00     0.061 C 
HETATM   15  O   UNK N   1      27.504  19.283   6.603  0.00  0.00    -0.340 OA
ENDROOT
BRANCH  12  16
HETATM   16  O   UNK N   1      31.834  15.901   6.106  0.00  0.00    -0.360 OA
HETATM   17  H   UNK N   1      32.701  16.239   6.214  0.00  0.00     0.217 HD
ENDBRANCH  12  16
TORSDOF 1
ENDMDL
MODEL 9
REMARK VINA RESULT:      -5.5     11.067     12.766
REMARK  1 active torsions:
REMARK  status: ('A' for Active; 'I' for Inactive)
REMARK    1  A    between atoms: O_15  and  C_12 
ROOT
HETATM    1  C   UNK N   1      28.086  17.435   8.576  0.00  0.00     0.052 C 
HETATM    2  C   UNK N   1      28.249  16.385   5.851  0.00  0.00     0.052 C 
HETATM    3  C   UNK N   1      33.062  18.071   8.627  0.00  0.00     0.052 C 
HETATM    4  C   UNK N   1      32.414  14.911   3.570  0.00  0.00     0.046 C 
HETATM    5  C   UNK N   1      31.497  16.929   2.508  0.00  0.00     0.046 C 
HETATM    6  C   UNK N   1      33.216  16.957   5.901  0.00  0.00     0.045 C 
HETATM    7  C   UNK N   1      33.031  17.197   4.411  0.00  0.00     0.042 C 
HETATM    8  C   UNK N   1      29.408  17.329   7.882  0.00  0.00    -0.020 A 
HETATM    9  C   UNK N   1      29.485  16.822   6.572  0.00  0.00    -0.019 A 
HETATM   10  C   UNK N   1      31.823  17.638   7.907  0.00  0.00    -0.019 A 
HETATM   11  C   UNK N   1      31.899  17.123   6.600  0.00  0.00    -0.015 A 
HETATM   12  C   UNK N   1      30.575  17.741   8.544  0.00  0.00     0.078 A 
HETATM   13  C   UNK N   1      30.728  16.727   5.929  0.00  0.00     0.083 A 
HETATM   14  C   UNK N   1      31.910  16.319   3.831  0.00  0.00     0.061 C 
HETATM   15  O   UNK N   1      30.793  16.252   4.656  0.00  0.00    -0.340 OA
ENDROOT
BRANCH  12  16
HETATM   16  O   UNK N   1      30.499  18.231   9.798  0.00  0.00    -0.360 OA
HETATM   17  H   UNK N   1      30.549  17.652  10.532  0.00  0.00     0.217 HD
ENDBRANCH  12  16
TORSDOF 1
ENDMDL
