REMARK  9 active torsions:
REMARK  status: ('A' for Active; 'I' for Inactive)
REMARK    1  A    between atoms: C_2  and  C_3 
REMARK    2  A    between atoms: C_3  and  C_4 
REMARK    3  A    between atoms: C_8  and  C_11 
REMARK    4  A    between atoms: C_9  and  O_10 
REMARK    5  A    between atoms: N_12  and  N_14 
REMARK       I    between atoms: N_14  and  C_15 
REMARK    6  A    between atoms: C_15  and  C_17 
REMARK    7  A    between atoms: C_17  and  N_18 
REMARK    8  A    between atoms: N_21  and  C_24 
REMARK    9  A    between atoms: C_24  and  C_25 
ROOT
HETATM    1  N   UNK N   1      -5.835  -8.784  -0.739  0.00  0.00    -0.269 N 
HETATM    2  C   UNK N   1      -6.964  -8.054  -0.615  0.00  0.00     0.253 C 
HETATM    3  O   UNK N   1      -7.389  -7.430  -1.572  0.00  0.00    -0.270 OA
HETATM    4  H   UNK N   1      -5.332  -8.766  -1.585  0.00  0.00     0.190 HD
ENDROOT
BRANCH   1   5
HETATM    5  N   UNK N   1      -5.384  -9.551   0.308  0.00  0.00    -0.308 N 
HETATM    6  C   UNK N   1      -4.174  -9.475   0.746  0.00  0.00     0.121 C 
ATOM      7  HN  UNK N   1      -6.029 -10.203   0.754  1.00  0.00     0.186 HD
BRANCH   6   8
HETATM    8  C   UNK N   1      -3.218  -8.414   0.360  0.00  0.00     0.014 A 
HETATM    9  C   UNK N   1      -1.900  -8.801   0.112  0.00  0.00     0.016 A 
HETATM   10  C   UNK N   1      -0.945  -7.861  -0.271  0.00  0.00     0.002 A 
HETATM   11  C   UNK N   1      -1.299  -6.520  -0.407  0.00  0.00     0.010 A 
HETATM   12  C   UNK N   1      -2.606  -6.103  -0.131  0.00  0.00    -0.021 A 
HETATM   13  C   UNK N   1      -3.571  -7.045   0.262  0.00  0.00     0.084 A 
BRANCH  12  14
HETATM   14  C   UNK N   1      -2.967  -4.658  -0.287  0.00  0.00     0.067 C 
BRANCH  14  15
HETATM   15  C   UNK N   1      -2.135  -3.792   0.600  0.00  0.00    -0.032 C 
HETATM   16  C   UNK N   1      -2.150  -2.473   0.441  0.00  0.00     0.007 C 
ENDBRANCH  14  15
ENDBRANCH  12  14
BRANCH  13  17
HETATM   17  O   UNK N   1      -4.814  -6.627   0.561  0.00  0.00    -0.359 OA
HETATM   18  H   UNK N   1      -4.995  -5.732   0.769  0.00  0.00     0.217 HD
ENDBRANCH  13  17
ENDBRANCH   6   8
ENDBRANCH   1   5
BRANCH   2  19
HETATM   19  C   UNK N   1      -7.631  -7.970   0.737  0.00  0.00     0.221 C 
BRANCH  19  20
HETATM   20  N   UNK N   1      -8.884  -7.231   0.770  0.00  0.00    -0.401 N 
HETATM   21  C   UNK N   1      -9.974  -7.957   0.118  0.00  0.00     0.147 C 
HETATM   22  C   UNK N   1     -10.428  -7.314  -1.189  0.00  0.00     0.292 C 
HETATM   23  N   UNK N   1     -10.645  -5.874  -1.036  0.00  0.00     0.095 N 
HETATM   24  C   UNK N   1      -9.346  -5.270  -0.742  0.00  0.00     0.292 C 
HETATM   25  C   UNK N   1      -8.765  -5.775   0.589  0.00  0.00     0.147 C 
BRANCH  23  26
HETATM   26  C   UNK N   1     -11.608  -5.490   0.016  0.00  0.00     0.311 C 
BRANCH  26  27
HETATM   27  C   UNK N   1     -12.866  -6.313   0.060  0.00  0.00    -0.030 A 
HETATM   28  C   UNK N   1     -12.851  -7.607   0.600  0.00  0.00     0.009 A 
HETATM   29  C   UNK N   1     -14.025  -8.354   0.687  0.00  0.00     0.001 A 
HETATM   30  C   UNK N   1     -15.231  -7.802   0.251  0.00  0.00     0.000 A 
HETATM   31  C   UNK N   1     -15.258  -6.503  -0.269  0.00  0.00     0.001 A 
HETATM   32  C   UNK N   1     -14.077  -5.757  -0.359  0.00  0.00     0.009 A 
ENDBRANCH  26  27
ENDBRANCH  23  26
ENDBRANCH  19  20
ENDBRANCH   2  19
TORSDOF 9
