MODEL 1
REMARK VINA RESULT:      -2.8      0.000      0.000
REMARK  0 active torsions:
REMARK  status: ('A' for Active; 'I' for Inactive)
ROOT
HETATM    1  C   UNK N   1      23.369  12.015  10.445  0.00  0.00     0.199 C 
HETATM    2  F   UNK N   1      23.314  11.961  13.969  0.00  0.00    -0.105 F 
HETATM    3  O   UNK N   1      24.750  11.954  11.646  0.00  0.00    -0.195 OA
HETATM    4  O   UNK N   1      21.951  12.040  11.604  0.00  0.00    -0.195 OA
HETATM    5  S   UNK N   1      23.341  11.987  12.258  0.00  0.00     0.296 S 
ENDROOT
TORSDOF 0
ENDMDL
MODEL 2
REMARK VINA RESULT:      -2.8     19.229     19.420
REMARK  0 active torsions:
REMARK  status: ('A' for Active; 'I' for Inactive)
ROOT
HETATM    1  C   UNK N   1      31.249  22.583  -2.942  0.00  0.00     0.199 C 
HETATM    2  F   UNK N   1      27.885  23.298  -2.168  0.00  0.00    -0.105 F 
HETATM    3  O   UNK N   1      29.770  22.617  -4.022  0.00  0.00    -0.195 OA
HETATM    4  O   UNK N   1      30.474  23.028  -1.344  0.00  0.00    -0.195 OA
HETATM    5  S   UNK N   1      29.518  22.951  -2.544  0.00  0.00     0.296 S 
ENDROOT
TORSDOF 0
ENDMDL
MODEL 3
REMARK VINA RESULT:      -2.8     13.290     13.437
REMARK  0 active torsions:
REMARK  status: ('A' for Active; 'I' for Inactive)
ROOT
HETATM    1  C   UNK N   1      21.133  19.764   3.480  0.00  0.00     0.199 C 
HETATM    2  F   UNK N   1      20.883  20.888   0.148  0.00  0.00    -0.105 F 
HETATM    3  O   UNK N   1      20.200  19.068   2.066  0.00  0.00    -0.195 OA
HETATM    4  O   UNK N   1      21.898  21.213   2.662  0.00  0.00    -0.195 OA
HETATM    5  S   UNK N   1      21.004  20.342   1.765  0.00  0.00     0.296 S 
ENDROOT
TORSDOF 0
ENDMDL
MODEL 4
REMARK VINA RESULT:      -2.7     12.524     12.891
REMARK  0 active torsions:
REMARK  status: ('A' for Active; 'I' for Inactive)
ROOT
HETATM    1  C   UNK N   1      32.649  17.204   6.806  0.00  0.00     0.199 C 
HETATM    2  F   UNK N   1      35.204  18.951   8.493  0.00  0.00    -0.105 F 
HETATM    3  O   UNK N   1      34.290  17.761   6.212  0.00  0.00    -0.195 OA
HETATM    4  O   UNK N   1      32.721  17.818   8.530  0.00  0.00    -0.195 OA
HETATM    5  S   UNK N   1      33.964  18.103   7.674  0.00  0.00     0.296 S 
ENDROOT
TORSDOF 0
ENDMDL
MODEL 5
REMARK VINA RESULT:      -2.6     19.511     19.699
REMARK  0 active torsions:
REMARK  status: ('A' for Active; 'I' for Inactive)
ROOT
HETATM    1  C   UNK N   1      29.454  23.244  -2.971  0.00  0.00     0.199 C 
HETATM    2  F   UNK N   1      32.526  21.573  -2.527  0.00  0.00    -0.105 F 
HETATM    3  O   UNK N   1      30.476  23.032  -1.466  0.00  0.00    -0.195 OA
HETATM    4  O   UNK N   1      30.491  22.337  -4.179  0.00  0.00    -0.195 OA
HETATM    5  S   UNK N   1      31.035  22.384  -2.742  0.00  0.00     0.296 S 
ENDROOT
TORSDOF 0
ENDMDL
MODEL 6
REMARK VINA RESULT:      -2.6     23.148     23.211
REMARK  0 active torsions:
REMARK  status: ('A' for Active; 'I' for Inactive)
ROOT
HETATM    1  C   UNK N   1      26.910  28.807  -3.357  0.00  0.00     0.199 C 
HETATM    2  F   UNK N   1      24.440  27.381  -5.429  0.00  0.00    -0.105 F 
HETATM    3  O   UNK N   1      25.450  27.789  -2.925  0.00  0.00    -0.195 OA
HETATM    4  O   UNK N   1      26.715  28.870  -5.177  0.00  0.00    -0.195 OA
HETATM    5  S   UNK N   1      25.639  28.073  -4.423  0.00  0.00     0.296 S 
ENDROOT
TORSDOF 0
ENDMDL
MODEL 7
REMARK VINA RESULT:      -2.6      3.374      3.549
REMARK  0 active torsions:
REMARK  status: ('A' for Active; 'I' for Inactive)
ROOT
HETATM    1  C   UNK N   1      21.049  14.690   9.163  0.00  0.00     0.199 C 
HETATM    2  F   UNK N   1      20.755  11.932  11.338  0.00  0.00    -0.105 F 
HETATM    3  O   UNK N   1      22.345  13.652   9.935  0.00  0.00    -0.195 OA
HETATM    4  O   UNK N   1      19.556  13.880   9.848  0.00  0.00    -0.195 OA
HETATM    5  S   UNK N   1      20.898  13.271  10.282  0.00  0.00     0.296 S 
ENDROOT
TORSDOF 0
ENDMDL
MODEL 8
REMARK VINA RESULT:      -2.6     12.395     12.532
REMARK  0 active torsions:
REMARK  status: ('A' for Active; 'I' for Inactive)
ROOT
HETATM    1  C   UNK N   1      21.269  20.829   2.417  0.00  0.00     0.199 C 
HETATM    2  F   UNK N   1      19.075  18.171   3.156  0.00  0.00    -0.105 F 
HETATM    3  O   UNK N   1      20.682  19.454   1.360  0.00  0.00    -0.195 OA
HETATM    4  O   UNK N   1      20.386  20.423   3.970  0.00  0.00    -0.195 OA
HETATM    5  S   UNK N   1      20.140  19.461   2.797  0.00  0.00     0.296 S 
ENDROOT
TORSDOF 0
ENDMDL
MODEL 9
REMARK VINA RESULT:      -2.6      2.372      2.372
REMARK  0 active torsions:
REMARK  status: ('A' for Active; 'I' for Inactive)
ROOT
HETATM    1  C   UNK N   1      23.181  11.921  12.963  0.00  0.00     0.199 C 
HETATM    2  F   UNK N   1      23.399  12.101   9.449  0.00  0.00    -0.105 F 
HETATM    3  O   UNK N   1      24.651  11.935  11.870  0.00  0.00    -0.195 OA
HETATM    4  O   UNK N   1      21.858  12.027  11.701  0.00  0.00    -0.195 OA
HETATM    5  S   UNK N   1      23.293  12.013  11.155  0.00  0.00     0.296 S 
ENDROOT
TORSDOF 0
ENDMDL
