MODEL 1
REMARK VINA RESULT:      -5.5      0.000      0.000
REMARK  2 active torsions:
REMARK  status: ('A' for Active; 'I' for Inactive)
REMARK    1  A    between atoms: C_7  and  C_8 
REMARK    2  A    between atoms: C_7  and  N_13 
ROOT
HETATM    1  C   UNK N   1      26.578  26.869  -3.297  0.00  0.00     0.013 C 
HETATM    2  C   UNK N   1      26.201  25.803  -4.323  0.00  0.00     0.026 C 
HETATM    3  C   UNK N   1      25.163  26.376  -5.295  0.00  0.00     0.007 C 
HETATM    4  C   UNK N   1      25.778  27.453  -6.188  0.00  0.00     0.001 C 
HETATM    5  C   UNK N   1      26.980  26.895  -6.941  0.00  0.00     0.003 C 
HETATM    6  C   UNK N   1      28.019  26.349  -5.959  0.00  0.00     0.048 C 
HETATM    7  C   UNK N   1      27.446  25.221  -5.070  0.00  0.00     0.196 C 
ENDROOT
BRANCH   7   8
HETATM    8  C   UNK N   1      27.040  24.042  -5.967  0.00  0.00     0.021 A 
HETATM    9  C   UNK N   1      25.821  23.359  -5.962  0.00  0.00     0.018 A 
HETATM   10  C   UNK N   1      25.747  22.333  -6.948  0.00  0.00     0.008 A 
HETATM   11  C   UNK N   1      26.900  22.210  -7.733  0.00  0.00     0.050 A 
HETATM   12  S   UNK N   1      27.954  23.363  -7.177  0.00  0.00    -0.104 SA
ENDBRANCH   7   8
BRANCH   7  13
HETATM   13  N   UNK N   1      28.467  24.819  -4.070  0.00  0.00     0.103 N 
HETATM   14  C   UNK N   1      29.845  24.847  -4.588  0.00  0.00     0.274 C 
HETATM   15  C   UNK N   1      30.847  24.616  -3.457  0.00  0.00     0.030 C 
HETATM   16  C   UNK N   1      30.552  23.293  -2.755  0.00  0.00     0.003 C 
HETATM   17  C   UNK N   1      29.099  23.251  -2.298  0.00  0.00     0.030 C 
HETATM   18  C   UNK N   1      28.192  23.492  -3.499  0.00  0.00     0.274 C 
ENDBRANCH   7  13
TORSDOF 2
ENDMDL
MODEL 2
REMARK VINA RESULT:      -5.5     21.741     24.899
REMARK  2 active torsions:
REMARK  status: ('A' for Active; 'I' for Inactive)
REMARK    1  A    between atoms: C_7  and  C_8 
REMARK    2  A    between atoms: C_7  and  N_13 
ROOT
HETATM    1  C   UNK N   1      36.772  10.259  16.254  0.00  0.00     0.013 C 
HETATM    2  C   UNK N   1      36.742  10.880  14.859  0.00  0.00     0.026 C 
HETATM    3  C   UNK N   1      36.349   9.808  13.834  0.00  0.00     0.007 C 
HETATM    4  C   UNK N   1      34.892   9.384  14.010  0.00  0.00     0.001 C 
HETATM    5  C   UNK N   1      33.970  10.595  13.914  0.00  0.00     0.003 C 
HETATM    6  C   UNK N   1      34.357  11.645  14.957  0.00  0.00     0.048 C 
HETATM    7  C   UNK N   1      35.813  12.136  14.780  0.00  0.00     0.196 C 
ENDROOT
BRANCH   7   8
HETATM    8  C   UNK N   1      35.940  12.822  13.412  0.00  0.00     0.021 A 
HETATM    9  C   UNK N   1      35.048  13.733  12.840  0.00  0.00     0.018 A 
HETATM   10  C   UNK N   1      35.476  14.216  11.570  0.00  0.00     0.008 A 
HETATM   11  C   UNK N   1      36.703  13.694  11.142  0.00  0.00     0.050 A 
HETATM   12  S   UNK N   1      37.201  12.663  12.342  0.00  0.00    -0.104 SA
ENDBRANCH   7   8
BRANCH   7  13
HETATM   13  N   UNK N   1      36.156  13.062  15.889  0.00  0.00     0.103 N 
HETATM   14  C   UNK N   1      35.021  13.368  16.776  0.00  0.00     0.274 C 
HETATM   15  C   UNK N   1      35.493  14.160  17.995  0.00  0.00     0.030 C 
HETATM   16  C   UNK N   1      36.200  15.437  17.550  0.00  0.00     0.003 C 
HETATM   17  C   UNK N   1      37.320  15.107  16.570  0.00  0.00     0.030 C 
HETATM   18  C   UNK N   1      36.741  14.319  15.400  0.00  0.00     0.274 C 
ENDBRANCH   7  13
TORSDOF 2
ENDMDL
MODEL 3
REMARK VINA RESULT:      -5.5     13.871     15.706
REMARK  2 active torsions:
REMARK  status: ('A' for Active; 'I' for Inactive)
REMARK    1  A    between atoms: C_7  and  C_8 
REMARK    2  A    between atoms: C_7  and  N_13 
ROOT
HETATM    1  C   UNK N   1      30.174  14.662   5.481  0.00  0.00     0.013 C 
HETATM    2  C   UNK N   1      31.475  15.055   6.178  0.00  0.00     0.026 C 
HETATM    3  C   UNK N   1      32.663  14.703   5.273  0.00  0.00     0.007 C 
HETATM    4  C   UNK N   1      32.698  15.597   4.036  0.00  0.00     0.001 C 
HETATM    5  C   UNK N   1      32.740  17.066   4.443  0.00  0.00     0.003 C 
HETATM    6  C   UNK N   1      31.537  17.410   5.323  0.00  0.00     0.048 C 
HETATM    7  C   UNK N   1      31.495  16.557   6.613  0.00  0.00     0.196 C 
ENDROOT
BRANCH   7   8
HETATM    8  C   UNK N   1      32.744  16.865   7.451  0.00  0.00     0.021 A 
HETATM    9  C   UNK N   1      33.448  18.072   7.503  0.00  0.00     0.018 A 
HETATM   10  C   UNK N   1      34.545  18.043   8.411  0.00  0.00     0.008 A 
HETATM   11  C   UNK N   1      34.704  16.823   9.079  0.00  0.00     0.050 A 
HETATM   12  S   UNK N   1      33.492  15.838   8.520  0.00  0.00    -0.104 SA
ENDBRANCH   7   8
BRANCH   7  13
HETATM   13  N   UNK N   1      30.247  16.862   7.360  0.00  0.00     0.103 N 
HETATM   14  C   UNK N   1      29.352  17.798   6.659  0.00  0.00     0.274 C 
HETATM   15  C   UNK N   1      28.014  17.907   7.390  0.00  0.00     0.030 C 
HETATM   16  C   UNK N   1      28.238  18.341   8.836  0.00  0.00     0.003 C 
HETATM   17  C   UNK N   1      29.230  17.407   9.520  0.00  0.00     0.030 C 
HETATM   18  C   UNK N   1      30.522  17.373   8.710  0.00  0.00     0.274 C 
ENDBRANCH   7  13
TORSDOF 2
ENDMDL
MODEL 4
REMARK VINA RESULT:      -5.2      2.193      4.498
REMARK  2 active torsions:
REMARK  status: ('A' for Active; 'I' for Inactive)
REMARK    1  A    between atoms: C_7  and  C_8 
REMARK    2  A    between atoms: C_7  and  N_13 
ROOT
HETATM    1  C   UNK N   1      27.907  29.061  -6.689  0.00  0.00     0.013 C 
HETATM    2  C   UNK N   1      28.051  27.996  -5.603  0.00  0.00     0.026 C 
HETATM    3  C   UNK N   1      27.949  28.659  -4.223  0.00  0.00     0.007 C 
HETATM    4  C   UNK N   1      26.534  29.172  -3.961  0.00  0.00     0.001 C 
HETATM    5  C   UNK N   1      25.524  28.038  -4.097  0.00  0.00     0.003 C 
HETATM    6  C   UNK N   1      25.619  27.402  -5.485  0.00  0.00     0.048 C 
HETATM    7  C   UNK N   1      27.026  26.826  -5.768  0.00  0.00     0.196 C 
ENDROOT
BRANCH   7   8
HETATM    8  C   UNK N   1      27.314  25.704  -4.760  0.00  0.00     0.021 A 
HETATM    9  C   UNK N   1      26.384  24.842  -4.170  0.00  0.00     0.018 A 
HETATM   10  C   UNK N   1      26.980  23.882  -3.303  0.00  0.00     0.008 A 
HETATM   11  C   UNK N   1      28.374  23.980  -3.212  0.00  0.00     0.050 A 
HETATM   12  S   UNK N   1      28.806  25.242  -4.198  0.00  0.00    -0.104 SA
ENDBRANCH   7   8
BRANCH   7  13
HETATM   13  N   UNK N   1      27.079  26.330  -7.167  0.00  0.00     0.103 N 
HETATM   14  C   UNK N   1      25.754  26.187  -7.795  0.00  0.00     0.274 C 
HETATM   15  C   UNK N   1      25.898  25.866  -9.282  0.00  0.00     0.030 C 
HETATM   16  C   UNK N   1      26.732  24.601  -9.468  0.00  0.00     0.003 C 
HETATM   17  C   UNK N   1      28.066  24.737  -8.744  0.00  0.00     0.030 C 
HETATM   18  C   UNK N   1      27.806  25.056  -7.276  0.00  0.00     0.274 C 
ENDBRANCH   7  13
TORSDOF 2
ENDMDL
MODEL 5
REMARK VINA RESULT:      -5.1      1.203      4.339
REMARK  2 active torsions:
REMARK  status: ('A' for Active; 'I' for Inactive)
REMARK    1  A    between atoms: C_7  and  C_8 
REMARK    2  A    between atoms: C_7  and  N_13 
ROOT
HETATM    1  C   UNK N   1      30.595  26.448  -3.456  0.00  0.00     0.013 C 
HETATM    2  C   UNK N   1      30.239  25.483  -4.584  0.00  0.00     0.026 C 
HETATM    3  C   UNK N   1      31.210  24.296  -4.564  0.00  0.00     0.007 C 
HETATM    4  C   UNK N   1      30.986  23.420  -3.332  0.00  0.00     0.001 C 
HETATM    5  C   UNK N   1      29.539  22.942  -3.277  0.00  0.00     0.003 C 
HETATM    6  C   UNK N   1      28.582  24.136  -3.273  0.00  0.00     0.048 C 
HETATM    7  C   UNK N   1      28.746  25.020  -4.531  0.00  0.00     0.196 C 
ENDROOT
BRANCH   7   8
HETATM    8  C   UNK N   1      28.389  24.187  -5.771  0.00  0.00     0.021 A 
HETATM    9  C   UNK N   1      27.288  23.342  -5.930  0.00  0.00     0.018 A 
HETATM   10  C   UNK N   1      27.223  22.740  -7.219  0.00  0.00     0.008 A 
HETATM   11  C   UNK N   1      28.265  23.112  -8.077  0.00  0.00     0.050 A 
HETATM   12  S   UNK N   1      29.216  24.159  -7.211  0.00  0.00    -0.104 SA
ENDBRANCH   7   8
BRANCH   7  13
HETATM   13  N   UNK N   1      27.873  26.215  -4.406  0.00  0.00     0.103 N 
HETATM   14  C   UNK N   1      26.687  25.995  -3.561  0.00  0.00     0.274 C 
HETATM   15  C   UNK N   1      25.950  27.312  -3.321  0.00  0.00     0.030 C 
HETATM   16  C   UNK N   1      25.563  27.949  -4.653  0.00  0.00     0.003 C 
HETATM   17  C   UNK N   1      26.790  28.094  -5.546  0.00  0.00     0.030 C 
HETATM   18  C   UNK N   1      27.445  26.727  -5.716  0.00  0.00     0.274 C 
ENDBRANCH   7  13
TORSDOF 2
ENDMDL
MODEL 6
REMARK VINA RESULT:      -5.1      1.538      4.408
REMARK  2 active torsions:
REMARK  status: ('A' for Active; 'I' for Inactive)
REMARK    1  A    between atoms: C_7  and  C_8 
REMARK    2  A    between atoms: C_7  and  N_13 
ROOT
HETATM    1  C   UNK N   1      25.937  26.191  -8.483  0.00  0.00     0.013 C 
HETATM    2  C   UNK N   1      27.021  26.028  -7.419  0.00  0.00     0.026 C 
HETATM    3  C   UNK N   1      27.162  27.337  -6.632  0.00  0.00     0.007 C 
HETATM    4  C   UNK N   1      25.928  27.599  -5.771  0.00  0.00     0.001 C 
HETATM    5  C   UNK N   1      25.675  26.424  -4.833  0.00  0.00     0.003 C 
HETATM    6  C   UNK N   1      25.511  25.129  -5.632  0.00  0.00     0.048 C 
HETATM    7  C   UNK N   1      26.763  24.804  -6.480  0.00  0.00     0.196 C 
ENDROOT
BRANCH   7   8
HETATM    8  C   UNK N   1      27.954  24.580  -5.538  0.00  0.00     0.021 A 
HETATM    9  C   UNK N   1      27.938  23.937  -4.297  0.00  0.00     0.018 A 
HETATM   10  C   UNK N   1      29.223  23.862  -3.686  0.00  0.00     0.008 A 
HETATM   11  C   UNK N   1      30.251  24.437  -4.444  0.00  0.00     0.050 A 
HETATM   12  S   UNK N   1      29.533  25.012  -5.823  0.00  0.00    -0.104 SA
ENDBRANCH   7   8
BRANCH   7  13
HETATM   13  N   UNK N   1      26.493  23.604  -7.313  0.00  0.00     0.103 N 
HETATM   14  C   UNK N   1      25.563  22.649  -6.687  0.00  0.00     0.274 C 
HETATM   15  C   UNK N   1      25.182  21.547  -7.677  0.00  0.00     0.030 C 
HETATM   16  C   UNK N   1      26.435  20.840  -8.184  0.00  0.00     0.003 C 
HETATM   17  C   UNK N   1      27.420  21.854  -8.754  0.00  0.00     0.030 C 
HETATM   18  C   UNK N   1      27.728  22.901  -7.689  0.00  0.00     0.274 C 
ENDBRANCH   7  13
TORSDOF 2
ENDMDL
MODEL 7
REMARK VINA RESULT:      -5.1     11.332     13.419
REMARK  2 active torsions:
REMARK  status: ('A' for Active; 'I' for Inactive)
REMARK    1  A    between atoms: C_7  and  C_8 
REMARK    2  A    between atoms: C_7  and  N_13 
ROOT
HETATM    1  C   UNK N   1      25.944  16.070   5.634  0.00  0.00     0.013 C 
HETATM    2  C   UNK N   1      27.460  15.971   5.786  0.00  0.00     0.026 C 
HETATM    3  C   UNK N   1      27.930  14.587   5.320  0.00  0.00     0.007 C 
HETATM    4  C   UNK N   1      27.765  14.429   3.810  0.00  0.00     0.001 C 
HETATM    5  C   UNK N   1      28.514  15.535   3.074  0.00  0.00     0.003 C 
HETATM    6  C   UNK N   1      28.019  16.909   3.531  0.00  0.00     0.048 C 
HETATM    7  C   UNK N   1      28.215  17.126   5.049  0.00  0.00     0.196 C 
ENDROOT
BRANCH   7   8
HETATM    8  C   UNK N   1      29.717  17.083   5.365  0.00  0.00     0.021 A 
HETATM    9  C   UNK N   1      30.760  17.562   4.567  0.00  0.00     0.018 A 
HETATM   10  C   UNK N   1      32.043  17.404   5.165  0.00  0.00     0.008 A 
HETATM   11  C   UNK N   1      32.015  16.809   6.433  0.00  0.00     0.050 A 
HETATM   12  S   UNK N   1      30.417  16.503   6.755  0.00  0.00    -0.104 SA
ENDBRANCH   7   8
BRANCH   7  13
HETATM   13  N   UNK N   1      27.612  18.426   5.440  0.00  0.00     0.103 N 
HETATM   14  C   UNK N   1      27.685  19.452   4.386  0.00  0.00     0.274 C 
HETATM   15  C   UNK N   1      26.876  20.686   4.785  0.00  0.00     0.030 C 
HETATM   16  C   UNK N   1      27.375  21.234   6.119  0.00  0.00     0.003 C 
HETATM   17  C   UNK N   1      27.369  20.136   7.176  0.00  0.00     0.030 C 
HETATM   18  C   UNK N   1      28.200  18.960   6.677  0.00  0.00     0.274 C 
ENDBRANCH   7  13
TORSDOF 2
ENDMDL
MODEL 8
REMARK VINA RESULT:      -5.1     15.060     17.688
REMARK  2 active torsions:
REMARK  status: ('A' for Active; 'I' for Inactive)
REMARK    1  A    between atoms: C_7  and  C_8 
REMARK    2  A    between atoms: C_7  and  N_13 
ROOT
HETATM    1  C   UNK N   1      33.433  17.445   5.768  0.00  0.00     0.013 C 
HETATM    2  C   UNK N   1      33.855  17.280   7.226  0.00  0.00     0.026 C 
HETATM    3  C   UNK N   1      33.036  18.235   8.104  0.00  0.00     0.007 C 
HETATM    4  C   UNK N   1      31.570  17.810   8.162  0.00  0.00     0.001 C 
HETATM    5  C   UNK N   1      31.452  16.374   8.662  0.00  0.00     0.003 C 
HETATM    6  C   UNK N   1      32.253  15.430   7.763  0.00  0.00     0.048 C 
HETATM    7  C   UNK N   1      33.754  15.799   7.718  0.00  0.00     0.196 C 
ENDROOT
BRANCH   7   8
HETATM    8  C   UNK N   1      34.342  15.652   9.129  0.00  0.00     0.021 A 
HETATM    9  C   UNK N   1      35.104  16.594   9.827  0.00  0.00     0.018 A 
HETATM   10  C   UNK N   1      35.467  16.164  11.136  0.00  0.00     0.008 A 
HETATM   11  C   UNK N   1      34.989  14.892  11.474  0.00  0.00     0.050 A 
HETATM   12  S   UNK N   1      34.148  14.356  10.149  0.00  0.00    -0.104 SA
ENDBRANCH   7   8
BRANCH   7  13
HETATM   13  N   UNK N   1      34.446  14.917   6.744  0.00  0.00     0.103 N 
HETATM   14  C   UNK N   1      33.827  13.588   6.606  0.00  0.00     0.274 C 
HETATM   15  C   UNK N   1      34.468  12.816   5.453  0.00  0.00     0.030 C 
HETATM   16  C   UNK N   1      35.974  12.699   5.672  0.00  0.00     0.003 C 
HETATM   17  C   UNK N   1      36.585  14.077   5.894  0.00  0.00     0.030 C 
HETATM   18  C   UNK N   1      35.873  14.755   7.060  0.00  0.00     0.274 C 
ENDBRANCH   7  13
TORSDOF 2
ENDMDL
MODEL 9
REMARK VINA RESULT:      -5.1      2.018      4.475
REMARK  2 active torsions:
REMARK  status: ('A' for Active; 'I' for Inactive)
REMARK    1  A    between atoms: C_7  and  C_8 
REMARK    2  A    between atoms: C_7  and  N_13 
ROOT
HETATM    1  C   UNK N   1      24.325  27.172  -5.851  0.00  0.00     0.013 C 
HETATM    2  C   UNK N   1      25.850  27.258  -5.882  0.00  0.00     0.026 C 
HETATM    3  C   UNK N   1      26.317  28.362  -4.925  0.00  0.00     0.007 C 
HETATM    4  C   UNK N   1      26.063  27.974  -3.470  0.00  0.00     0.001 C 
HETATM    5  C   UNK N   1      26.745  26.649  -3.146  0.00  0.00     0.003 C 
HETATM    6  C   UNK N   1      26.252  25.551  -4.091  0.00  0.00     0.048 C 
HETATM    7  C   UNK N   1      26.536  25.886  -5.574  0.00  0.00     0.196 C 
ENDROOT
BRANCH   7   8
HETATM    8  C   UNK N   1      28.055  25.980  -5.778  0.00  0.00     0.021 A 
HETATM    9  C   UNK N   1      29.033  25.152  -5.219  0.00  0.00     0.018 A 
HETATM   10  C   UNK N   1      30.354  25.482  -5.638  0.00  0.00     0.008 A 
HETATM   11  C   UNK N   1      30.420  26.560  -6.529  0.00  0.00     0.050 A 
HETATM   12  S   UNK N   1      28.855  27.058  -6.756  0.00  0.00    -0.104 SA
ENDBRANCH   7   8
BRANCH   7  13
HETATM   13  N   UNK N   1      25.933  24.838  -6.437  0.00  0.00     0.103 N 
HETATM   14  C   UNK N   1      26.214  23.466  -5.983  0.00  0.00     0.274 C 
HETATM   15  C   UNK N   1      25.404  22.457  -6.798  0.00  0.00     0.030 C 
HETATM   16  C   UNK N   1      25.708  22.617  -8.285  0.00  0.00     0.003 C 
HETATM   17  C   UNK N   1      25.489  24.062  -8.717  0.00  0.00     0.030 C 
HETATM   18  C   UNK N   1      26.339  24.977  -7.843  0.00  0.00     0.274 C 
ENDBRANCH   7  13
TORSDOF 2
ENDMDL
