REMARK  8 active torsions:
REMARK  status: ('A' for Active; 'I' for Inactive)
REMARK    1  A    between atoms: C_4  and  N_25 
REMARK    2  A    between atoms: C_13  and  N_9 
REMARK    3  A    between atoms: C_14  and  O_24 
REMARK    4  A    between atoms: C_15  and  O_23 
REMARK    5  A    between atoms: C_16  and  C_18 
REMARK    6  A    between atoms: C_18  and  O_19 
REMARK    7  A    between atoms: O_19  and  N_20 
REMARK    8  A    between atoms: N_25  and  C_26 
ROOT
HETATM    1  C   UNK N   1       4.404   1.840   0.397  0.00  0.00     0.183 A 
HETATM    2  N   UNK N   1       4.429   0.466   0.358  0.00  0.00    -0.337 N 
ATOM      3  HN  UNK N   1       5.305  -0.024   0.540  1.00  0.00     0.168 HD
HETATM    4  C   UNK N   1       3.302  -0.257   0.080  0.00  0.00     0.133 A 
HETATM    5  C   UNK N   1       2.129   0.457  -0.169  0.00  0.00     0.122 A 
HETATM    6  C   UNK N   1       2.127   1.804  -0.122  0.00  0.00     0.142 A 
HETATM    7  N   UNK N   1       3.242   2.523   0.153  0.00  0.00    -0.336 N 
ATOM      8  HN  UNK N   1       3.217   3.542   0.178  1.00  0.00     0.168 HD
HETATM    9  N   UNK N   1       0.900   2.256  -0.426  0.00  0.00    -0.297 N 
HETATM   10  C   UNK N   1       0.163   1.142  -0.663  0.00  0.00     0.188 A 
HETATM   11  N   UNK N   1       0.902   0.014  -0.500  0.00  0.00    -0.346 N 
ATOM     12  HN  UNK N   1       0.595  -0.953  -0.605  1.00  0.00     0.167 HD
ENDROOT
BRANCH   9  13
HETATM   13  C   UNK N   1       0.421   3.630  -0.569  0.00  0.00     0.262 C 
HETATM   14  C   UNK N   1      -0.865   3.883   0.169  0.00  0.00     0.198 C 
HETATM   15  C   UNK N   1      -0.886   5.360   0.029  0.00  0.00     0.182 C 
HETATM   16  C   UNK N   1       0.577   5.703   0.258  0.00  0.00     0.182 C 
HETATM   17  O   UNK N   1       1.348   4.569  -0.083  0.00  0.00    -0.353 OA
BRANCH  14  18
HETATM   18  O   UNK N   1      -1.949   3.316  -0.504  0.00  0.00    -0.388 OA
HETATM   19  H   UNK N   1      -2.667   3.771  -0.971  0.00  0.00     0.210 HD
ENDBRANCH  14  18
BRANCH  15  20
HETATM   20  O   UNK N   1      -1.714   5.951   0.984  0.00  0.00    -0.390 OA
HETATM   21  H   UNK N   1      -1.646   6.655   1.647  0.00  0.00     0.210 HD
ENDBRANCH  15  20
BRANCH  16  22
HETATM   22  C   UNK N   1       0.998   6.859  -0.636  0.00  0.00     0.242 C 
BRANCH  22  23
HETATM   23  O   UNK N   1       0.283   7.998  -0.350  0.00  0.00    -0.219 OA
BRANCH  23  24
HETATM   24  N   UNK N   1       0.881   9.114   0.022  0.00  0.00     0.005 N 
HETATM   25  O   UNK N   1       0.237  10.104   0.184  0.00  0.00    -0.511 OA
HETATM   26  O   UNK N   1       2.186   9.149   0.206  0.00  0.00    -0.511 OA
ENDBRANCH  23  24
ENDBRANCH  22  23
ENDBRANCH  16  22
ENDBRANCH   9  13
BRANCH   4  27
HETATM   27  N   UNK N   1       3.362  -1.678   0.027  0.00  0.00    -0.370 N 
HETATM   28  H   UNK N   1       4.234  -2.118   0.142  0.00  0.00     0.161 HD
BRANCH  27  29
HETATM   29  C   UNK N   1       2.194  -2.500  -0.189  0.00  0.00     0.083 C 
HETATM   30  C   UNK N   1       2.555  -3.941  -0.416  0.00  0.00     0.025 C 
HETATM   31  C   UNK N   1       1.264  -4.680  -0.111  0.00  0.00     0.002 C 
HETATM   32  C   UNK N   1       0.471  -3.785   0.834  0.00  0.00     0.002 C 
HETATM   33  C   UNK N   1       1.313  -2.543   1.038  0.00  0.00     0.025 C 
ENDBRANCH  27  29
ENDBRANCH   4  27
TORSDOF 8
