REMARK  24 active torsions:
REMARK  status: ('A' for Active; 'I' for Inactive)
REMARK    1  A    between atoms: C_2  and  C_3 
REMARK    2  A    between atoms: C_3  and  C_4 
REMARK    3  A    between atoms: C_4  and  C_5 
REMARK    4  A    between atoms: C_5  and  C_6 
REMARK    5  A    between atoms: C_6  and  C_7 
REMARK    6  A    between atoms: C_7  and  C_8 
REMARK    7  A    between atoms: C_8  and  C_9 
REMARK    8  A    between atoms: C_9  and  C_10 
REMARK    9  A    between atoms: C_10  and  C_11 
REMARK   10  A    between atoms: C_11  and  C_12 
REMARK   11  A    between atoms: C_12  and  N_13 
REMARK   12  A    between atoms: N_13  and  C_14 
REMARK   13  A    between atoms: C_14  and  C_15 
REMARK   14  A    between atoms: C_15  and  C_16 
REMARK   15  A    between atoms: C_15  and  O_39 
REMARK   16  A    between atoms: C_16  and  C_17 
REMARK   17  A    between atoms: C_17  and  C_18 
REMARK   18  A    between atoms: C_18  and  C_19 
REMARK   19  A    between atoms: C_19  and  C_20 
REMARK   20  A    between atoms: C_20  and  C_21 
REMARK   21  A    between atoms: C_21  and  C_22 
REMARK   22  A    between atoms: C_22  and  C_23 
REMARK   23  A    between atoms: C_23  and  C_24 
REMARK   24  A    between atoms: C_24  and  N_25 
ROOT
HETATM    1  C   UNK N   1      20.735 -16.343  -0.576  0.00  0.00     0.000 C 
ENDROOT
BRANCH   1   2
HETATM    2  C   UNK N   1      19.775 -17.226   0.212  0.00  0.00     0.002 C 
BRANCH   2   3
HETATM    3  C   UNK N   1      18.580 -16.437   0.728  0.00  0.00     0.033 C 
BRANCH   3   4
HETATM    4  C   UNK N   1      17.673 -16.048  -0.425  0.00  0.00     0.135 C 
BRANCH   4   5
HETATM    5  C   UNK N   1      17.538 -14.533  -0.534  0.00  0.00     0.145 C 
BRANCH   5   6
HETATM    6  N   UNK N   1      16.847 -13.988   0.628  0.00  0.00    -0.419 N 
HETATM    7  H   UNK N   1      17.074 -14.178   1.604  0.00  0.00     0.153 HD
BRANCH   6   8
HETATM    8  C   UNK N   1      15.773 -13.123   0.152  0.00  0.00     0.113 C 
BRANCH   8   9
HETATM    9  C   UNK N   1      14.635 -13.942  -0.443  0.00  0.00     0.019 C 
BRANCH   9  10
HETATM   10  C   UNK N   1      14.024 -14.860   0.603  0.00  0.00     0.002 C 
BRANCH  10  11
HETATM   11  C   UNK N   1      13.291 -16.001  -0.082  0.00  0.00     0.000 C 
BRANCH  11  12
HETATM   12  C   UNK N   1      11.995 -15.510  -0.697  0.00  0.00     0.000 C 
BRANCH  12  13
HETATM   13  C   UNK N   1      10.920 -15.464   0.365  0.00  0.00     0.000 C 
BRANCH  13  14
HETATM   14  C   UNK N   1       9.726 -14.703  -0.161  0.00  0.00     0.000 C 
BRANCH  14  15
HETATM   15  C   UNK N   1       8.474 -15.368   0.355  0.00  0.00     0.000 C 
BRANCH  15  16
HETATM   16  C   UNK N   1       7.252 -14.598  -0.087  0.00  0.00     0.000 C 
BRANCH  16  17
HETATM   17  C   UNK N   1       6.052 -15.507   0.056  0.00  0.00    -0.000 C 
BRANCH  17  18
HETATM   18  C   UNK N   1       4.774 -14.718  -0.108  0.00  0.00    -0.005 C 
HETATM   19  C   UNK N   1       3.599 -15.667  -0.005  0.00  0.00     0.005 C 
ENDBRANCH  17  18
ENDBRANCH  16  17
ENDBRANCH  15  16
ENDBRANCH  14  15
ENDBRANCH  13  14
ENDBRANCH  12  13
ENDBRANCH  11  12
ENDBRANCH  10  11
ENDBRANCH   9  10
ENDBRANCH   8   9
ENDBRANCH   6   8
ENDBRANCH   5   6
ENDBRANCH   4   5
BRANCH   4  20
HETATM   20  O   UNK N   1      16.424 -16.649  -0.270  0.00  0.00    -0.394 OA
HETATM   21  H   UNK N   1      15.628 -16.105  -0.162  0.00  0.00     0.210 HD
ENDBRANCH   4  20
ENDBRANCH   3   4
ENDBRANCH   2   3
ENDBRANCH   1   2
BRANCH   1  22
HETATM   22  C   UNK N   1      21.458 -15.380   0.349  0.00  0.00     0.000 C 
BRANCH  22  23
HETATM   23  C   UNK N   1      20.905 -13.977   0.178  0.00  0.00     0.000 C 
BRANCH  23  24
HETATM   24  C   UNK N   1      21.916 -13.083  -0.524  0.00  0.00     0.000 C 
BRANCH  24  25
HETATM   25  C   UNK N   1      22.929 -12.519   0.466  0.00  0.00     0.002 C 
BRANCH  25  26
HETATM   26  C   UNK N   1      24.049 -13.508   0.752  0.00  0.00     0.020 C 
BRANCH  26  27
HETATM   27  C   UNK N   1      24.987 -13.592  -0.443  0.00  0.00     0.137 C 
BRANCH  27  28
HETATM   28  N   UNK N   1      26.011 -14.624  -0.249  0.00  0.00    -0.264 N 
HETATM   29  C   UNK N   1      27.343 -14.252  -0.169  0.00  0.00     0.282 A 
HETATM   30  O   UNK N   1      27.674 -13.079  -0.236  0.00  0.00    -0.265 OA
HETATM   31  C   UNK N   1      28.295 -15.252  -0.017  0.00  0.00     0.149 A 
HETATM   32  C   UNK N   1      27.926 -16.548   0.053  0.00  0.00     0.145 A 
HETATM   33  N   UNK N   1      29.630 -15.183   0.079  0.00  0.00    -0.340 N 
HETATM   34  N   UNK N   1      29.011 -17.334   0.194  0.00  0.00    -0.336 N 
HETATM   35  N   UNK N   1      26.632 -16.944  -0.020  0.00  0.00    -0.287 N 
HETATM   36  C   UNK N   1      30.057 -16.463   0.207  0.00  0.00     0.184 A 
ATOM     37  HN  UNK N   1      29.042 -18.350   0.274  1.00  0.00     0.168 HD
HETATM   38  C   UNK N   1      25.654 -15.972  -0.176  0.00  0.00     0.332 A 
HETATM   39  C   UNK N   1      26.286 -18.358   0.056  0.00  0.00     0.163 C 
HETATM   40  O   UNK N   1      24.481 -16.300  -0.258  0.00  0.00    -0.246 OA
HETATM   41  C   UNK N   1      30.473 -14.000   0.049  0.00  0.00     0.157 C 
ENDBRANCH  27  28
ENDBRANCH  26  27
ENDBRANCH  25  26
ENDBRANCH  24  25
ENDBRANCH  23  24
ENDBRANCH  22  23
ENDBRANCH   1  22
TORSDOF 24
