MODEL 1
REMARK VINA RESULT:      -7.5      0.000      0.000
REMARK  8 active torsions:
REMARK  status: ('A' for Active; 'I' for Inactive)
REMARK    1  A    between atoms: C_2  and  C_3 
REMARK    2  A    between atoms: C_2  and  O_12 
REMARK    3  A    between atoms: O_12  and  C_13 
REMARK    4  A    between atoms: C_19  and  C_23 
REMARK    5  A    between atoms: C_24  and  C_25 
REMARK    6  A    between atoms: N_29  and  C_31 
REMARK    7  A    between atoms: C_31  and  C_32 
REMARK    8  A    between atoms: C_32  and  O_33 
ROOT
HETATM    1  C   UNK N   1      22.808  19.733   3.494  0.00  0.00     0.070 A 
HETATM    2  C   UNK N   1      21.898  20.467   2.680  0.00  0.00     0.039 A 
HETATM    3  C   UNK N   1      20.615  19.939   2.384  0.00  0.00     0.034 A 
HETATM    4  C   UNK N   1      20.291  18.686   2.915  0.00  0.00     0.060 A 
HETATM    5  C   UNK N   1      21.166  18.005   3.687  0.00  0.00     0.023 A 
HETATM    6  C   UNK N   1      22.426  18.491   3.997  0.00  0.00     0.053 A 
HETATM    7  C   UNK N   1      20.512  16.859   4.077  0.00  0.00     0.060 A 
HETATM    8  N   UNK N   1      19.271  16.874   3.540  0.00  0.00    -0.299 N 
ATOM      9  HN  UNK N   1      18.559  16.155   3.664  1.00  0.00     0.187 HD
HETATM   10  N   UNK N   1      19.139  17.994   2.818  0.00  0.00    -0.299 N 
HETATM   11  H   UNK N   1      18.343  18.263   2.306  0.00  0.00     0.187 HD
ENDROOT
BRANCH   1  12
HETATM   12  O   UNK N   1      24.047  20.177   3.811  0.00  0.00    -0.342 OA
BRANCH  12  13
HETATM   13  C   UNK N   1      25.236  19.639   3.381  0.00  0.00     0.161 C 
HETATM   14  C   UNK N   1      26.089  20.711   2.714  0.00  0.00     0.045 C 
BRANCH  13  15
HETATM   15  C   UNK N   1      26.026  18.971   4.498  0.00  0.00     0.017 A 
HETATM   16  C   UNK N   1      26.647  19.681   5.567  0.00  0.00     0.059 A 
HETATM   17  C   UNK N   1      27.348  18.969   6.543  0.00  0.00     0.112 A 
HETATM   18 Cl   UNK N   1      26.620  21.433   5.739  0.00  0.00    -0.082 Cl
HETATM   19  N   UNK N   1      27.440  17.616   6.486  0.00  0.00    -0.372 N 
HETATM   20  C   UNK N   1      26.860  16.912   5.482  0.00  0.00     0.112 A 
ATOM     21  HN  UNK N   1      27.956  17.120   7.212  1.00  0.00     0.164 HD
HETATM   22  C   UNK N   1      26.149  17.565   4.476  0.00  0.00     0.059 A 
HETATM   23 Cl   UNK N   1      25.408  16.589   3.214  0.00  0.00    -0.082 Cl
ENDBRANCH  13  15
ENDBRANCH  12  13
ENDBRANCH   1  12
BRANCH   7  24
HETATM   24  C   UNK N   1      21.037  15.881   5.056  0.00  0.00     0.033 C 
HETATM   25  C   UNK N   1      21.000  16.266   6.331  0.00  0.00     0.016 C 
BRANCH  25  26
HETATM   26  C   UNK N   1      20.915  15.412   7.499  0.00  0.00    -0.002 A 
HETATM   27  C   UNK N   1      20.063  15.489   8.581  0.00  0.00     0.120 A 
HETATM   28  N   UNK N   1      20.564  14.688   9.546  0.00  0.00    -0.309 N 
HETATM   29  N   UNK N   1      21.694  14.155   9.107  0.00  0.00    -0.301 N 
ATOM     30  HN  UNK N   1      20.144  14.523  10.460  1.00  0.00     0.186 HD
HETATM   31  C   UNK N   1      21.945  14.580   7.859  0.00  0.00     0.122 A 
BRANCH  29  32
HETATM   32  C   UNK N   1      22.573  13.335   9.939  0.00  0.00     0.174 C 
BRANCH  32  33
HETATM   33  C   UNK N   1      21.824  12.230  10.684  0.00  0.00     0.185 C 
BRANCH  33  34
HETATM   34  O   UNK N   1      22.663  11.135  10.879  0.00  0.00    -0.399 OA
HETATM   35  H   UNK N   1      23.049  10.424  11.414  0.00  0.00     0.209 HD
ENDBRANCH  33  34
ENDBRANCH  32  33
ENDBRANCH  29  32
ENDBRANCH  25  26
ENDBRANCH   7  24
TORSDOF 8
ENDMDL
MODEL 2
REMARK VINA RESULT:      -7.2      1.022      2.008
REMARK  8 active torsions:
REMARK  status: ('A' for Active; 'I' for Inactive)
REMARK    1  A    between atoms: C_2  and  C_3 
REMARK    2  A    between atoms: C_2  and  O_12 
REMARK    3  A    between atoms: O_12  and  C_13 
REMARK    4  A    between atoms: C_19  and  C_23 
REMARK    5  A    between atoms: C_24  and  C_25 
REMARK    6  A    between atoms: N_29  and  C_31 
REMARK    7  A    between atoms: C_31  and  C_32 
REMARK    8  A    between atoms: C_32  and  O_33 
ROOT
HETATM    1  C   UNK N   1      22.814  19.161   3.716  0.00  0.00     0.070 A 
HETATM    2  C   UNK N   1      21.820  19.818   2.935  0.00  0.00     0.039 A 
HETATM    3  C   UNK N   1      20.551  19.216   2.734  0.00  0.00     0.034 A 
HETATM    4  C   UNK N   1      20.325  17.969   3.327  0.00  0.00     0.060 A 
HETATM    5  C   UNK N   1      21.278  17.361   4.067  0.00  0.00     0.023 A 
HETATM    6  C   UNK N   1      22.527  17.922   4.283  0.00  0.00     0.053 A 
HETATM    7  C   UNK N   1      20.709  16.200   4.534  0.00  0.00     0.060 A 
HETATM    8  N   UNK N   1      19.439  16.132   4.073  0.00  0.00    -0.299 N 
ATOM      9  HN  UNK N   1      18.774  15.384   4.264  1.00  0.00     0.187 HD
HETATM   10  N   UNK N   1      19.207  17.217   3.322  0.00  0.00    -0.299 N 
HETATM   11  H   UNK N   1      18.369  17.427   2.851  0.00  0.00     0.187 HD
ENDROOT
BRANCH   1  12
HETATM   12  O   UNK N   1      24.044  19.678   3.944  0.00  0.00    -0.342 OA
BRANCH  12  13
HETATM   13  C   UNK N   1      25.199  19.345   3.277  0.00  0.00     0.161 C 
HETATM   14  C   UNK N   1      25.869  20.597   2.724  0.00  0.00     0.045 C 
BRANCH  13  15
HETATM   15  C   UNK N   1      26.184  18.572   4.143  0.00  0.00     0.017 A 
HETATM   16  C   UNK N   1      26.594  17.232   3.879  0.00  0.00     0.059 A 
HETATM   17  C   UNK N   1      27.506  16.615   4.738  0.00  0.00     0.112 A 
HETATM   18 Cl   UNK N   1      26.000  16.263   2.534  0.00  0.00    -0.082 Cl
HETATM   19  N   UNK N   1      28.005  17.275   5.813  0.00  0.00    -0.372 N 
HETATM   20  C   UNK N   1      27.636  18.550   6.092  0.00  0.00     0.112 A 
ATOM     21  HN  UNK N   1      28.671  16.803   6.424  1.00  0.00     0.164 HD
HETATM   22  C   UNK N   1      26.726  19.221   5.274  0.00  0.00     0.059 A 
HETATM   23 Cl   UNK N   1      26.304  20.878   5.683  0.00  0.00    -0.082 Cl
ENDBRANCH  13  15
ENDBRANCH  12  13
ENDBRANCH   1  12
BRANCH   7  24
HETATM   24  C   UNK N   1      21.340  15.286   5.513  0.00  0.00     0.033 C 
HETATM   25  C   UNK N   1      21.218  15.640   6.792  0.00  0.00     0.016 C 
BRANCH  25  26
HETATM   26  C   UNK N   1      21.224  14.760   7.944  0.00  0.00    -0.002 A 
HETATM   27  C   UNK N   1      20.368  14.727   9.025  0.00  0.00     0.120 A 
HETATM   28  N   UNK N   1      20.951  13.967   9.978  0.00  0.00    -0.309 N 
HETATM   29  N   UNK N   1      22.131  13.566   9.533  0.00  0.00    -0.301 N 
ATOM     30  HN  UNK N   1      20.550  13.742  10.888  1.00  0.00     0.186 HD
HETATM   31  C   UNK N   1      22.337  14.038   8.293  0.00  0.00     0.122 A 
BRANCH  29  32
HETATM   32  C   UNK N   1      23.093  12.830  10.353  0.00  0.00     0.174 C 
BRANCH  32  33
HETATM   33  C   UNK N   1      24.494  12.802   9.744  0.00  0.00     0.185 C 
BRANCH  33  34
HETATM   34  O   UNK N   1      25.437  13.164  10.703  0.00  0.00    -0.399 OA
HETATM   35  H   UNK N   1      25.862  13.087  11.572  0.00  0.00     0.209 HD
ENDBRANCH  33  34
ENDBRANCH  32  33
ENDBRANCH  29  32
ENDBRANCH  25  26
ENDBRANCH   7  24
TORSDOF 8
ENDMDL
MODEL 3
REMARK VINA RESULT:      -7.2      3.220      4.554
REMARK  8 active torsions:
REMARK  status: ('A' for Active; 'I' for Inactive)
REMARK    1  A    between atoms: C_2  and  C_3 
REMARK    2  A    between atoms: C_2  and  O_12 
REMARK    3  A    between atoms: O_12  and  C_13 
REMARK    4  A    between atoms: C_19  and  C_23 
REMARK    5  A    between atoms: C_24  and  C_25 
REMARK    6  A    between atoms: N_29  and  C_31 
REMARK    7  A    between atoms: C_31  and  C_32 
REMARK    8  A    between atoms: C_32  and  O_33 
ROOT
HETATM    1  C   UNK N   1      27.545  18.412   4.403  0.00  0.00     0.070 A 
HETATM    2  C   UNK N   1      27.767  19.770   4.032  0.00  0.00     0.039 A 
HETATM    3  C   UNK N   1      26.683  20.587   3.619  0.00  0.00     0.034 A 
HETATM    4  C   UNK N   1      25.410  20.009   3.591  0.00  0.00     0.060 A 
HETATM    5  C   UNK N   1      25.217  18.720   3.949  0.00  0.00     0.023 A 
HETATM    6  C   UNK N   1      26.252  17.895   4.358  0.00  0.00     0.053 A 
HETATM    7  C   UNK N   1      23.862  18.502   3.859  0.00  0.00     0.060 A 
HETATM    8  N   UNK N   1      23.272  19.650   3.454  0.00  0.00    -0.299 N 
ATOM      9  HN  UNK N   1      22.273  19.788   3.307  1.00  0.00     0.187 HD
HETATM   10  N   UNK N   1      24.226  20.574   3.281  0.00  0.00    -0.299 N 
HETATM   11  H   UNK N   1      24.088  21.500   2.980  0.00  0.00     0.187 HD
ENDROOT
BRANCH   1  12
HETATM   12  O   UNK N   1      28.534  17.579   4.803  0.00  0.00    -0.342 OA
BRANCH  12  13
HETATM   13  C   UNK N   1      28.539  16.817   5.946  0.00  0.00     0.161 C 
HETATM   14  C   UNK N   1      28.542  15.334   5.592  0.00  0.00     0.045 C 
BRANCH  13  15
HETATM   15  C   UNK N   1      29.711  17.131   6.866  0.00  0.00     0.017 A 
HETATM   16  C   UNK N   1      31.071  17.157   6.439  0.00  0.00     0.059 A 
HETATM   17  C   UNK N   1      32.072  17.459   7.366  0.00  0.00     0.112 A 
HETATM   18 Cl   UNK N   1      31.601  16.802   4.798  0.00  0.00    -0.082 Cl
HETATM   19  N   UNK N   1      31.763  17.728   8.660  0.00  0.00    -0.372 N 
HETATM   20  C   UNK N   1      30.479  17.711   9.097  0.00  0.00     0.112 A 
ATOM     21  HN  UNK N   1      32.511  17.947   9.317  1.00  0.00     0.164 HD
HETATM   22  C   UNK N   1      29.435  17.414   8.221  0.00  0.00     0.059 A 
HETATM   23 Cl   UNK N   1      27.792  17.425   8.849  0.00  0.00    -0.082 Cl
ENDBRANCH  13  15
ENDBRANCH  12  13
ENDBRANCH   1  12
BRANCH   7  24
HETATM   24  C   UNK N   1      23.176  17.268   4.301  0.00  0.00     0.033 C 
HETATM   25  C   UNK N   1      23.079  17.103   5.619  0.00  0.00     0.016 C 
BRANCH  25  26
HETATM   26  C   UNK N   1      22.061  16.358   6.333  0.00  0.00    -0.002 A 
HETATM   27  C   UNK N   1      20.925  16.813   6.969  0.00  0.00     0.120 A 
HETATM   28  N   UNK N   1      20.471  15.810   7.750  0.00  0.00    -0.309 N 
HETATM   29  N   UNK N   1      21.295  14.781   7.638  0.00  0.00    -0.301 N 
ATOM     30  HN  UNK N   1      19.632  15.840   8.330  1.00  0.00     0.186 HD
HETATM   31  C   UNK N   1      22.287  15.081   6.783  0.00  0.00     0.122 A 
BRANCH  29  32
HETATM   32  C   UNK N   1      21.181  13.565   8.442  0.00  0.00     0.174 C 
BRANCH  32  33
HETATM   33  C   UNK N   1      20.727  13.843   9.875  0.00  0.00     0.185 C 
BRANCH  33  34
HETATM   34  O   UNK N   1      19.357  14.098   9.899  0.00  0.00    -0.399 OA
HETATM   35  H   UNK N   1      18.505  14.292   9.478  0.00  0.00     0.209 HD
ENDBRANCH  33  34
ENDBRANCH  32  33
ENDBRANCH  29  32
ENDBRANCH  25  26
ENDBRANCH   7  24
TORSDOF 8
ENDMDL
MODEL 4
REMARK VINA RESULT:      -7.2     13.895     18.245
REMARK  8 active torsions:
REMARK  status: ('A' for Active; 'I' for Inactive)
REMARK    1  A    between atoms: C_2  and  C_3 
REMARK    2  A    between atoms: C_2  and  O_12 
REMARK    3  A    between atoms: O_12  and  C_13 
REMARK    4  A    between atoms: C_19  and  C_23 
REMARK    5  A    between atoms: C_24  and  C_25 
REMARK    6  A    between atoms: N_29  and  C_31 
REMARK    7  A    between atoms: C_31  and  C_32 
REMARK    8  A    between atoms: C_32  and  O_33 
ROOT
HETATM    1  C   UNK N   1      37.272  10.137  14.566  0.00  0.00     0.070 A 
HETATM    2  C   UNK N   1      37.632   8.855  14.059  0.00  0.00     0.039 A 
HETATM    3  C   UNK N   1      37.915   8.683  12.679  0.00  0.00     0.034 A 
HETATM    4  C   UNK N   1      37.824   9.808  11.854  0.00  0.00     0.060 A 
HETATM    5  C   UNK N   1      37.482  11.017  12.352  0.00  0.00     0.023 A 
HETATM    6  C   UNK N   1      37.201  11.220  13.694  0.00  0.00     0.053 A 
HETATM    7  C   UNK N   1      37.542  11.893  11.292  0.00  0.00     0.060 A 
HETATM    8  N   UNK N   1      37.914  11.202  10.191  0.00  0.00    -0.299 N 
ATOM      9  HN  UNK N   1      38.047  11.593   9.258  1.00  0.00     0.187 HD
HETATM   10  N   UNK N   1      38.078   9.918  10.535  0.00  0.00    -0.299 N 
HETATM   11  H   UNK N   1      38.337   9.186   9.932  0.00  0.00     0.187 HD
ENDROOT
BRANCH   1  12
HETATM   12  O   UNK N   1      36.987  10.368  15.869  0.00  0.00    -0.342 OA
BRANCH  12  13
HETATM   13  C   UNK N   1      35.801  10.854  16.365  0.00  0.00     0.161 C 
HETATM   14  C   UNK N   1      34.653   9.921  15.997  0.00  0.00     0.045 C 
BRANCH  13  15
HETATM   15  C   UNK N   1      35.830  11.067  17.873  0.00  0.00     0.017 A 
HETATM   16  C   UNK N   1      36.341  10.113  18.801  0.00  0.00     0.059 A 
HETATM   17  C   UNK N   1      36.321  10.410  20.166  0.00  0.00     0.112 A 
HETATM   18 Cl   UNK N   1      36.982   8.537  18.348  0.00  0.00    -0.082 Cl
HETATM   19  N   UNK N   1      35.828  11.593  20.613  0.00  0.00    -0.372 N 
HETATM   20  C   UNK N   1      35.336  12.522  19.755  0.00  0.00     0.112 A 
ATOM     21  HN  UNK N   1      35.827  11.787  21.614  1.00  0.00     0.164 HD
HETATM   22  C   UNK N   1      35.324  12.283  18.381  0.00  0.00     0.059 A 
HETATM   23 Cl   UNK N   1      34.688  13.537  17.324  0.00  0.00    -0.082 Cl
ENDBRANCH  13  15
ENDBRANCH  12  13
ENDBRANCH   1  12
BRANCH   7  24
HETATM   24  C   UNK N   1      37.390  13.360  11.403  0.00  0.00     0.033 C 
HETATM   25  C   UNK N   1      36.994  13.983  10.293  0.00  0.00     0.016 C 
BRANCH  25  26
HETATM   26  C   UNK N   1      36.262  15.231  10.207  0.00  0.00    -0.002 A 
HETATM   27  C   UNK N   1      35.997  16.161  11.191  0.00  0.00     0.120 A 
HETATM   28  N   UNK N   1      35.029  16.978  10.722  0.00  0.00    -0.309 N 
HETATM   29  N   UNK N   1      34.678  16.567   9.514  0.00  0.00    -0.301 N 
ATOM     30  HN  UNK N   1      34.634  17.778  11.217  1.00  0.00     0.186 HD
HETATM   31  C   UNK N   1      35.407  15.495   9.167  0.00  0.00     0.122 A 
BRANCH  29  32
HETATM   32  C   UNK N   1      33.566  17.143   8.760  0.00  0.00     0.174 C 
BRANCH  32  33
HETATM   33  C   UNK N   1      34.012  18.230   7.783  0.00  0.00     0.185 C 
BRANCH  33  34
HETATM   34  O   UNK N   1      35.013  19.008   8.362  0.00  0.00    -0.399 OA
HETATM   35  H   UNK N   1      35.339  19.794   8.828  0.00  0.00     0.209 HD
ENDBRANCH  33  34
ENDBRANCH  32  33
ENDBRANCH  29  32
ENDBRANCH  25  26
ENDBRANCH   7  24
TORSDOF 8
ENDMDL
MODEL 5
REMARK VINA RESULT:      -7.1      4.020      7.871
REMARK  8 active torsions:
REMARK  status: ('A' for Active; 'I' for Inactive)
REMARK    1  A    between atoms: C_2  and  C_3 
REMARK    2  A    between atoms: C_2  and  O_12 
REMARK    3  A    between atoms: O_12  and  C_13 
REMARK    4  A    between atoms: C_19  and  C_23 
REMARK    5  A    between atoms: C_24  and  C_25 
REMARK    6  A    between atoms: N_29  and  C_31 
REMARK    7  A    between atoms: C_31  and  C_32 
REMARK    8  A    between atoms: C_32  and  O_33 
ROOT
HETATM    1  C   UNK N   1      23.454  19.028   4.254  0.00  0.00     0.070 A 
HETATM    2  C   UNK N   1      23.454  19.938   3.158  0.00  0.00     0.039 A 
HETATM    3  C   UNK N   1      24.668  20.519   2.708  0.00  0.00     0.034 A 
HETATM    4  C   UNK N   1      25.843  20.165   3.379  0.00  0.00     0.060 A 
HETATM    5  C   UNK N   1      25.825  19.298   4.415  0.00  0.00     0.023 A 
HETATM    6  C   UNK N   1      24.658  18.712   4.879  0.00  0.00     0.053 A 
HETATM    7  C   UNK N   1      27.137  19.138   4.796  0.00  0.00     0.060 A 
HETATM    8  N   UNK N   1      27.910  19.901   3.990  0.00  0.00    -0.299 N 
ATOM      9  HN  UNK N   1      28.926  19.977   4.035  1.00  0.00     0.187 HD
HETATM   10  N   UNK N   1      27.113  20.540   3.125  0.00  0.00    -0.299 N 
HETATM   11  H   UNK N   1      27.402  21.171   2.428  0.00  0.00     0.187 HD
ENDROOT
BRANCH   1  12
HETATM   12  O   UNK N   1      22.333  18.441   4.734  0.00  0.00    -0.342 OA
BRANCH  12  13
HETATM   13  C   UNK N   1      22.006  17.111   4.631  0.00  0.00     0.161 C 
HETATM   14  C   UNK N   1      20.980  16.735   5.694  0.00  0.00     0.045 C 
BRANCH  13  15
HETATM   15  C   UNK N   1      21.484  16.730   3.252  0.00  0.00     0.017 A 
HETATM   16  C   UNK N   1      20.544  17.508   2.515  0.00  0.00     0.059 A 
HETATM   17  C   UNK N   1      20.131  17.068   1.255  0.00  0.00     0.112 A 
HETATM   18 Cl   UNK N   1      19.823  19.004   3.101  0.00  0.00    -0.082 Cl
HETATM   19  N   UNK N   1      20.618  15.916   0.728  0.00  0.00    -0.372 N 
HETATM   20  C   UNK N   1      21.513  15.154   1.403  0.00  0.00     0.112 A 
ATOM     21  HN  UNK N   1      20.303  15.618  -0.195  1.00  0.00     0.164 HD
HETATM   22  C   UNK N   1      21.962  15.537   2.667  0.00  0.00     0.059 A 
HETATM   23 Cl   UNK N   1      23.137  14.511   3.480  0.00  0.00    -0.082 Cl
ENDBRANCH  13  15
ENDBRANCH  12  13
ENDBRANCH   1  12
BRANCH   7  24
HETATM   24  C   UNK N   1      27.609  18.160   5.801  0.00  0.00     0.033 C 
HETATM   25  C   UNK N   1      28.920  17.919   5.800  0.00  0.00     0.016 C 
BRANCH  25  26
HETATM   26  C   UNK N   1      29.729  17.485   6.922  0.00  0.00    -0.002 A 
HETATM   27  C   UNK N   1      29.567  17.738   8.268  0.00  0.00     0.120 A 
HETATM   28  N   UNK N   1      30.722  17.404   8.882  0.00  0.00    -0.309 N 
HETATM   29  N   UNK N   1      31.583  16.989   7.966  0.00  0.00    -0.301 N 
ATOM     30  HN  UNK N   1      30.902  17.462   9.884  1.00  0.00     0.186 HD
HETATM   31  C   UNK N   1      31.012  17.032   6.751  0.00  0.00     0.122 A 
BRANCH  29  32
HETATM   32  C   UNK N   1      32.979  16.668   8.259  0.00  0.00     0.174 C 
BRANCH  32  33
HETATM   33  C   UNK N   1      33.905  17.876   8.130  0.00  0.00     0.185 C 
BRANCH  33  34
HETATM   34  O   UNK N   1      34.458  17.917   6.851  0.00  0.00    -0.399 OA
HETATM   35  H   UNK N   1      35.099  18.231   6.195  0.00  0.00     0.209 HD
ENDBRANCH  33  34
ENDBRANCH  32  33
ENDBRANCH  29  32
ENDBRANCH  25  26
ENDBRANCH   7  24
TORSDOF 8
ENDMDL
MODEL 6
REMARK VINA RESULT:      -7.0      4.879      8.452
REMARK  8 active torsions:
REMARK  status: ('A' for Active; 'I' for Inactive)
REMARK    1  A    between atoms: C_2  and  C_3 
REMARK    2  A    between atoms: C_2  and  O_12 
REMARK    3  A    between atoms: O_12  and  C_13 
REMARK    4  A    between atoms: C_19  and  C_23 
REMARK    5  A    between atoms: C_24  and  C_25 
REMARK    6  A    between atoms: N_29  and  C_31 
REMARK    7  A    between atoms: C_31  and  C_32 
REMARK    8  A    between atoms: C_32  and  O_33 
ROOT
HETATM    1  C   UNK N   1      30.703  16.987   6.372  0.00  0.00     0.070 A 
HETATM    2  C   UNK N   1      30.812  16.687   7.760  0.00  0.00     0.039 A 
HETATM    3  C   UNK N   1      29.925  17.283   8.694  0.00  0.00     0.034 A 
HETATM    4  C   UNK N   1      28.959  18.164   8.199  0.00  0.00     0.060 A 
HETATM    5  C   UNK N   1      28.869  18.435   6.878  0.00  0.00     0.023 A 
HETATM    6  C   UNK N   1      29.717  17.870   5.939  0.00  0.00     0.053 A 
HETATM    7  C   UNK N   1      27.793  19.282   6.739  0.00  0.00     0.060 A 
HETATM    8  N   UNK N   1      27.263  19.500   7.964  0.00  0.00    -0.299 N 
ATOM      9  HN  UNK N   1      26.452  20.083   8.168  1.00  0.00     0.187 HD
HETATM   10  N   UNK N   1      27.986  18.820   8.863  0.00  0.00    -0.299 N 
HETATM   11  H   UNK N   1      27.835  18.802   9.834  0.00  0.00     0.187 HD
ENDROOT
BRANCH   1  12
HETATM   12  O   UNK N   1      31.518  16.456   5.430  0.00  0.00    -0.342 OA
BRANCH  12  13
HETATM   13  C   UNK N   1      31.163  16.128   4.144  0.00  0.00     0.161 C 
HETATM   14  C   UNK N   1      32.399  16.077   3.252  0.00  0.00     0.045 C 
BRANCH  13  15
HETATM   15  C   UNK N   1      30.406  14.810   4.052  0.00  0.00     0.017 A 
HETATM   16  C   UNK N   1      30.934  13.558   4.485  0.00  0.00     0.059 A 
HETATM   17  C   UNK N   1      30.153  12.407   4.357  0.00  0.00     0.112 A 
HETATM   18 Cl   UNK N   1      32.546  13.344   5.159  0.00  0.00    -0.082 Cl
HETATM   19  N   UNK N   1      28.904  12.469   3.831  0.00  0.00    -0.372 N 
HETATM   20  C   UNK N   1      28.373  13.644   3.411  0.00  0.00     0.112 A 
ATOM     21  HN  UNK N   1      28.353  11.615   3.751  1.00  0.00     0.164 HD
HETATM   22  C   UNK N   1      29.103  14.828   3.509  0.00  0.00     0.059 A 
HETATM   23 Cl   UNK N   1      28.349  16.319   2.960  0.00  0.00    -0.082 Cl
ENDBRANCH  13  15
ENDBRANCH  12  13
ENDBRANCH   1  12
BRANCH   7  24
HETATM   24  C   UNK N   1      27.230  19.723   5.444  0.00  0.00     0.033 C 
HETATM   25  C   UNK N   1      26.294  18.930   4.923  0.00  0.00     0.016 C 
BRANCH  25  26
HETATM   26  C   UNK N   1      25.222  19.317   4.028  0.00  0.00    -0.002 A 
HETATM   27  C   UNK N   1      25.162  20.365   3.133  0.00  0.00     0.120 A 
HETATM   28  N   UNK N   1      23.870  20.511   2.769  0.00  0.00    -0.309 N 
HETATM   29  N   UNK N   1      23.144  19.619   3.425  0.00  0.00    -0.301 N 
ATOM     30  HN  UNK N   1      23.513  21.194   2.101  1.00  0.00     0.186 HD
HETATM   31  C   UNK N   1      23.936  18.874   4.211  0.00  0.00     0.122 A 
BRANCH  29  32
HETATM   32  C   UNK N   1      21.683  19.575   3.371  0.00  0.00     0.174 C 
BRANCH  32  33
HETATM   33  C   UNK N   1      21.097  20.558   2.358  0.00  0.00     0.185 C 
BRANCH  33  34
HETATM   34  O   UNK N   1      20.166  19.908   1.550  0.00  0.00    -0.399 OA
HETATM   35  H   UNK N   1      19.762  19.693   0.694  0.00  0.00     0.209 HD
ENDBRANCH  33  34
ENDBRANCH  32  33
ENDBRANCH  29  32
ENDBRANCH  25  26
ENDBRANCH   7  24
TORSDOF 8
ENDMDL
MODEL 7
REMARK VINA RESULT:      -7.0     13.348     15.797
REMARK  8 active torsions:
REMARK  status: ('A' for Active; 'I' for Inactive)
REMARK    1  A    between atoms: C_2  and  C_3 
REMARK    2  A    between atoms: C_2  and  O_12 
REMARK    3  A    between atoms: O_12  and  C_13 
REMARK    4  A    between atoms: C_19  and  C_23 
REMARK    5  A    between atoms: C_24  and  C_25 
REMARK    6  A    between atoms: N_29  and  C_31 
REMARK    7  A    between atoms: C_31  and  C_32 
REMARK    8  A    between atoms: C_32  and  O_33 
ROOT
HETATM    1  C   UNK N   1      29.049  23.648  -4.311  0.00  0.00     0.070 A 
HETATM    2  C   UNK N   1      29.467  23.739  -2.952  0.00  0.00     0.039 A 
HETATM    3  C   UNK N   1      30.380  22.794  -2.417  0.00  0.00     0.034 A 
HETATM    4  C   UNK N   1      30.842  21.786  -3.268  0.00  0.00     0.060 A 
HETATM    5  C   UNK N   1      30.437  21.716  -4.556  0.00  0.00     0.023 A 
HETATM    6  C   UNK N   1      29.548  22.622  -5.110  0.00  0.00     0.053 A 
HETATM    7  C   UNK N   1      31.118  20.655  -5.108  0.00  0.00     0.060 A 
HETATM    8  N   UNK N   1      31.909  20.115  -4.154  0.00  0.00    -0.299 N 
ATOM      9  HN  UNK N   1      32.534  19.319  -4.278  1.00  0.00     0.187 HD
HETATM   10  N   UNK N   1      31.733  20.805  -3.020  0.00  0.00    -0.299 N 
HETATM   11  H   UNK N   1      32.173  20.628  -2.159  0.00  0.00     0.187 HD
ENDROOT
BRANCH   1  12
HETATM   12  O   UNK N   1      28.179  24.514  -4.882  0.00  0.00    -0.342 OA
BRANCH  12  13
HETATM   13  C   UNK N   1      28.457  25.800  -5.276  0.00  0.00     0.161 C 
HETATM   14  C   UNK N   1      28.259  25.946  -6.780  0.00  0.00     0.045 C 
BRANCH  13  15
HETATM   15  C   UNK N   1      27.623  26.841  -4.541  0.00  0.00     0.017 A 
HETATM   16  C   UNK N   1      26.204  26.936  -4.639  0.00  0.00     0.059 A 
HETATM   17  C   UNK N   1      25.535  27.930  -3.920  0.00  0.00     0.112 A 
HETATM   18 Cl   UNK N   1      25.209  25.888  -5.644  0.00  0.00    -0.082 Cl
HETATM   19  N   UNK N   1      26.219  28.798  -3.133  0.00  0.00    -0.372 N 
HETATM   20  C   UNK N   1      27.569  28.734  -3.018  0.00  0.00     0.112 A 
ATOM     21  HN  UNK N   1      25.708  29.513  -2.616  1.00  0.00     0.164 HD
HETATM   22  C   UNK N   1      28.295  27.766  -3.713  0.00  0.00     0.059 A 
HETATM   23 Cl   UNK N   1      30.041  27.728  -3.506  0.00  0.00    -0.082 Cl
ENDBRANCH  13  15
ENDBRANCH  12  13
ENDBRANCH   1  12
BRANCH   7  24
HETATM   24  C   UNK N   1      31.099  20.298  -6.544  0.00  0.00     0.033 C 
HETATM   25  C   UNK N   1      29.968  19.749  -6.986  0.00  0.00     0.016 C 
BRANCH  25  26
HETATM   26  C   UNK N   1      29.446  19.794  -8.337  0.00  0.00    -0.002 A 
HETATM   27  C   UNK N   1      30.047  19.421  -9.522  0.00  0.00     0.120 A 
HETATM   28  N   UNK N   1      29.309  19.938 -10.528  0.00  0.00    -0.309 N 
HETATM   29  N   UNK N   1      28.309  20.629 -10.006  0.00  0.00    -0.301 N 
ATOM     30  HN  UNK N   1      29.493  19.816 -11.524  1.00  0.00     0.186 HD
HETATM   31  C   UNK N   1      28.363  20.570  -8.665  0.00  0.00     0.122 A 
BRANCH  29  32
HETATM   32  C   UNK N   1      27.382  21.432 -10.803  0.00  0.00     0.174 C 
BRANCH  32  33
HETATM   33  C   UNK N   1      26.172  21.911 -10.002  0.00  0.00     0.185 C 
BRANCH  33  34
HETATM   34  O   UNK N   1      25.124  21.003 -10.136  0.00  0.00    -0.399 OA
HETATM   35  H   UNK N   1      24.756  20.127 -10.333  0.00  0.00     0.209 HD
ENDBRANCH  33  34
ENDBRANCH  32  33
ENDBRANCH  29  32
ENDBRANCH  25  26
ENDBRANCH   7  24
TORSDOF 8
ENDMDL
MODEL 8
REMARK VINA RESULT:      -6.9     13.129     15.505
REMARK  8 active torsions:
REMARK  status: ('A' for Active; 'I' for Inactive)
REMARK    1  A    between atoms: C_2  and  C_3 
REMARK    2  A    between atoms: C_2  and  O_12 
REMARK    3  A    between atoms: O_12  and  C_13 
REMARK    4  A    between atoms: C_19  and  C_23 
REMARK    5  A    between atoms: C_24  and  C_25 
REMARK    6  A    between atoms: N_29  and  C_31 
REMARK    7  A    between atoms: C_31  and  C_32 
REMARK    8  A    between atoms: C_32  and  O_33 
ROOT
HETATM    1  C   UNK N   1      29.859  20.502  -7.125  0.00  0.00     0.070 A 
HETATM    2  C   UNK N   1      30.976  19.631  -7.278  0.00  0.00     0.039 A 
HETATM    3  C   UNK N   1      31.941  19.514  -6.244  0.00  0.00     0.034 A 
HETATM    4  C   UNK N   1      31.750  20.279  -5.089  0.00  0.00     0.060 A 
HETATM    5  C   UNK N   1      30.683  21.099  -4.961  0.00  0.00     0.023 A 
HETATM    6  C   UNK N   1      29.722  21.237  -5.950  0.00  0.00     0.053 A 
HETATM    7  C   UNK N   1      30.778  21.647  -3.702  0.00  0.00     0.060 A 
HETATM    8  N   UNK N   1      31.885  21.152  -3.105  0.00  0.00    -0.299 N 
ATOM      9  HN  UNK N   1      32.207  21.375  -2.164  1.00  0.00     0.187 HD
HETATM   10  N   UNK N   1      32.488  20.318  -3.962  0.00  0.00    -0.299 N 
HETATM   11  H   UNK N   1      33.321  19.822  -3.799  0.00  0.00     0.187 HD
ENDROOT
BRANCH   1  12
HETATM   12  O   UNK N   1      28.906  20.663  -8.073  0.00  0.00    -0.342 OA
BRANCH  12  13
HETATM   13  C   UNK N   1      28.660  21.810  -8.788  0.00  0.00     0.161 C 
HETATM   14  C   UNK N   1      28.339  21.470 -10.239  0.00  0.00     0.045 C 
BRANCH  13  15
HETATM   15  C   UNK N   1      27.538  22.652  -8.195  0.00  0.00     0.017 A 
HETATM   16  C   UNK N   1      26.242  22.146  -7.886  0.00  0.00     0.059 A 
HETATM   17  C   UNK N   1      25.284  23.005  -7.342  0.00  0.00     0.112 A 
HETATM   18 Cl   UNK N   1      25.735  20.484  -8.173  0.00  0.00    -0.082 Cl
HETATM   19  N   UNK N   1      25.576  24.309  -7.103  0.00  0.00    -0.372 N 
HETATM   20  C   UNK N   1      26.800  24.821  -7.385  0.00  0.00     0.112 A 
ATOM     21  HN  UNK N   1      24.861  24.915  -6.704  1.00  0.00     0.164 HD
HETATM   22  C   UNK N   1      27.798  24.015  -7.932  0.00  0.00     0.059 A 
HETATM   23 Cl   UNK N   1      29.368  24.739  -8.258  0.00  0.00    -0.082 Cl
ENDBRANCH  13  15
ENDBRANCH  12  13
ENDBRANCH   1  12
BRANCH   7  24
HETATM   24  C   UNK N   1      29.741  22.494  -3.072  0.00  0.00     0.033 C 
HETATM   25  C   UNK N   1      29.671  23.747  -3.518  0.00  0.00     0.016 C 
BRANCH  25  26
HETATM   26  C   UNK N   1      28.505  24.608  -3.524  0.00  0.00    -0.002 A 
HETATM   27  C   UNK N   1      27.175  24.282  -3.357  0.00  0.00     0.120 A 
HETATM   28  N   UNK N   1      26.446  25.347  -3.756  0.00  0.00    -0.309 N 
HETATM   29  N   UNK N   1      27.273  26.288  -4.184  0.00  0.00    -0.301 N 
ATOM     30  HN  UNK N   1      25.429  25.414  -3.734  1.00  0.00     0.186 HD
HETATM   31  C   UNK N   1      28.543  25.869  -4.063  0.00  0.00     0.122 A 
BRANCH  29  32
HETATM   32  C   UNK N   1      26.824  27.531  -4.808  0.00  0.00     0.174 C 
BRANCH  32  33
HETATM   33  C   UNK N   1      25.481  28.017  -4.264  0.00  0.00     0.185 C 
BRANCH  33  34
HETATM   34  O   UNK N   1      25.468  27.916  -2.874  0.00  0.00    -0.399 OA
HETATM   35  H   UNK N   1      25.245  27.474  -2.040  0.00  0.00     0.209 HD
ENDBRANCH  33  34
ENDBRANCH  32  33
ENDBRANCH  29  32
ENDBRANCH  25  26
ENDBRANCH   7  24
TORSDOF 8
ENDMDL
MODEL 9
REMARK VINA RESULT:      -6.9     15.248     19.443
REMARK  8 active torsions:
REMARK  status: ('A' for Active; 'I' for Inactive)
REMARK    1  A    between atoms: C_2  and  C_3 
REMARK    2  A    between atoms: C_2  and  O_12 
REMARK    3  A    between atoms: O_12  and  C_13 
REMARK    4  A    between atoms: C_19  and  C_23 
REMARK    5  A    between atoms: C_24  and  C_25 
REMARK    6  A    between atoms: N_29  and  C_31 
REMARK    7  A    between atoms: C_31  and  C_32 
REMARK    8  A    between atoms: C_32  and  O_33 
ROOT
HETATM    1  C   UNK N   1      35.122   9.385  17.879  0.00  0.00     0.070 A 
HETATM    2  C   UNK N   1      35.137   9.342  19.303  0.00  0.00     0.039 A 
HETATM    3  C   UNK N   1      35.216  10.543  20.055  0.00  0.00     0.034 A 
HETATM    4  C   UNK N   1      35.279  11.748  19.348  0.00  0.00     0.060 A 
HETATM    5  C   UNK N   1      35.261  11.769  17.997  0.00  0.00     0.023 A 
HETATM    6  C   UNK N   1      35.183  10.617  17.232  0.00  0.00     0.053 A 
HETATM    7  C   UNK N   1      35.280  13.098  17.641  0.00  0.00     0.060 A 
HETATM    8  N   UNK N   1      35.309  13.841  18.770  0.00  0.00    -0.299 N 
ATOM      9  HN  UNK N   1      35.321  14.859  18.815  1.00  0.00     0.187 HD
HETATM   10  N   UNK N   1      35.317  13.009  19.820  0.00  0.00    -0.299 N 
HETATM   11  H   UNK N   1      35.347  13.272  20.767  0.00  0.00     0.187 HD
ENDROOT
BRANCH   1  12
HETATM   12  O   UNK N   1      35.051   8.278  17.102  0.00  0.00    -0.342 OA
BRANCH  12  13
HETATM   13  C   UNK N   1      36.022   7.314  16.976  0.00  0.00     0.161 C 
HETATM   14  C   UNK N   1      35.418   6.025  16.430  0.00  0.00     0.045 C 
BRANCH  13  15
HETATM   15  C   UNK N   1      37.186   7.752  16.097  0.00  0.00     0.017 A 
HETATM   16  C   UNK N   1      37.031   8.324  14.800  0.00  0.00     0.059 A 
HETATM   17  C   UNK N   1      38.168   8.693  14.077  0.00  0.00     0.112 A 
HETATM   18 Cl   UNK N   1      35.478   8.580  14.011  0.00  0.00    -0.082 Cl
HETATM   19  N   UNK N   1      39.409   8.516  14.595  0.00  0.00    -0.372 N 
HETATM   20  C   UNK N   1      39.590   7.975  15.825  0.00  0.00     0.112 A 
ATOM     21  HN  UNK N   1      40.223   8.796  14.048  1.00  0.00     0.164 HD
HETATM   22  C   UNK N   1      38.495   7.583  16.596  0.00  0.00     0.059 A 
HETATM   23 Cl   UNK N   1      38.800   6.904  18.190  0.00  0.00    -0.082 Cl
ENDBRANCH  13  15
ENDBRANCH  12  13
ENDBRANCH   1  12
BRANCH   7  24
HETATM   24  C   UNK N   1      35.121  13.602  16.259  0.00  0.00     0.033 C 
HETATM   25  C   UNK N   1      36.231  13.622  15.522  0.00  0.00     0.016 C 
BRANCH  25  26
HETATM   26  C   UNK N   1      36.322  13.529  14.078  0.00  0.00    -0.002 A 
HETATM   27  C   UNK N   1      37.016  12.626  13.300  0.00  0.00     0.120 A 
HETATM   28  N   UNK N   1      37.059  13.124  12.045  0.00  0.00    -0.309 N 
HETATM   29  N   UNK N   1      36.449  14.299  12.037  0.00  0.00    -0.301 N 
ATOM     30  HN  UNK N   1      37.490  12.672  11.239  1.00  0.00     0.186 HD
HETATM   31  C   UNK N   1      35.990  14.584  13.266  0.00  0.00     0.122 A 
BRANCH  29  32
HETATM   32  C   UNK N   1      36.417  15.181  10.871  0.00  0.00     0.174 C 
BRANCH  32  33
HETATM   33  C   UNK N   1      35.288  16.209  10.936  0.00  0.00     0.185 C 
BRANCH  33  34
HETATM   34  O   UNK N   1      35.728  17.430  10.428  0.00  0.00    -0.399 OA
HETATM   35  H   UNK N   1      36.398  18.116  10.280  0.00  0.00     0.209 HD
ENDBRANCH  33  34
ENDBRANCH  32  33
ENDBRANCH  29  32
ENDBRANCH  25  26
ENDBRANCH   7  24
TORSDOF 8
ENDMDL
