REMARK  4 active torsions:
REMARK  status: ('A' for Active; 'I' for Inactive)
REMARK    1  A    between atoms: B_1  and  O_26 
REMARK    2  A    between atoms: C_4  and  N_12 
REMARK       I    between atoms: N_12  and  C_13 
REMARK    3  A    between atoms: C_13  and  C_15 
REMARK    4  A    between atoms: C_20  and  C_21 
ROOT
HETATM    1  N   UNK N   1       4.177  -0.235   0.054  0.00  0.00    -0.323 N 
HETATM    2  C   UNK N   1       4.330   1.085   0.376  0.00  0.00     0.257 C 
HETATM    3  O   UNK N   1       3.379   1.721   0.804  0.00  0.00    -0.267 OA
HETATM    4  H   UNK N   1       4.981  -0.762  -0.159  0.00  0.00     0.169 HD
ENDROOT
BRANCH   1   5
HETATM    5  C   UNK N   1       2.907  -0.883   0.014  0.00  0.00     0.034 A 
HETATM    6  C   UNK N   1       1.722  -0.130  -0.073  0.00  0.00     0.030 A 
HETATM    7  C   UNK N   1       0.510  -0.787  -0.090  0.00  0.00    -0.021 A 
HETATM    8  B   UNK N   1      -0.890  -0.273  -0.129  0.00  0.00     0.533 B 
HETATM    9  C   UNK N   1       0.409  -2.128  -0.025  0.00  0.00    -0.025 A 
HETATM   10  O   UNK N   1      -1.860  -1.380  -0.053  0.00  0.00    -0.410 OA
HETATM   11  C   UNK N   1      -1.039  -2.559   0.023  0.00  0.00     0.064 A 
HETATM   12  C   UNK N   1      -1.312  -3.274   1.336  0.00  0.00     0.049 C 
HETATM   13  C   UNK N   1      -1.365  -3.481  -1.138  0.00  0.00     0.049 C 
HETATM   14  C   UNK N   1       1.563  -2.926   0.029  0.00  0.00     0.012 A 
HETATM   15  C   UNK N   1       2.825  -2.293   0.036  0.00  0.00     0.030 A 
BRANCH   8  16
HETATM   16  O   UNK N   1      -1.258   1.139  -0.075  0.00  0.00    -0.433 OA
HETATM   17  H   UNK N   1      -0.568   1.820  -0.039  0.00  0.00     0.185 HD
ENDBRANCH   8  16
ENDBRANCH   1   5
BRANCH   2  18
HETATM   18  C   UNK N   1       5.613   1.809   0.153  0.00  0.00     0.047 A 
HETATM   19  C   UNK N   1       5.541   3.211   0.245  0.00  0.00     0.021 A 
HETATM   20  C   UNK N   1       6.646   4.015  -0.003  0.00  0.00     0.043 A 
HETATM   21  C   UNK N   1       7.859   3.433  -0.344  0.00  0.00     0.117 A 
HETATM   22  C   UNK N   1       7.972   2.044  -0.413  0.00  0.00     0.059 A 
HETATM   23  F   UNK N   1       8.928   4.218  -0.612  0.00  0.00    -0.206 F 
HETATM   24  C   UNK N   1       6.867   1.208  -0.171  0.00  0.00     0.066 A 
BRANCH  24  25
HETATM   25  C   UNK N   1       7.085  -0.288  -0.248  0.00  0.00     0.418 C 
HETATM   26  F   UNK N   1       6.740  -0.873   0.958  0.00  0.00    -0.166 F 
HETATM   27  F   UNK N   1       6.338  -0.838  -1.272  0.00  0.00    -0.166 F 
HETATM   28  F   UNK N   1       8.417  -0.580  -0.496  0.00  0.00    -0.166 F 
ENDBRANCH  24  25
ENDBRANCH   2  18
TORSDOF 4
