REMARK  1 active torsions:
REMARK  status: ('A' for Active; 'I' for Inactive)
REMARK       I    between atoms: C_2  and  N_11 
REMARK       I    between atoms: N_11  and  C_12 
REMARK    1  A    between atoms: C_12  and  O_14 
ROOT
HETATM    1  N   UNK N   1       1.641  -0.421   0.034  0.00  0.00    -0.189 N 
HETATM    2  C   UNK N   1       0.791   0.636  -0.027  0.00  0.00     0.687 A 
HETATM    3  N   UNK N   1      -0.514   0.264  -0.038  0.00  0.00    -0.189 N 
ATOM      4  HN  UNK N   1      -1.338   0.863  -0.065  1.00  0.00     0.184 HD
HETATM    5  C   UNK N   1      -0.466  -1.075  -0.004  0.00  0.00     0.076 A 
HETATM    6  C   UNK N   1      -1.530  -1.972  -0.006  0.00  0.00     0.032 A 
HETATM    7  C   UNK N   1      -1.220  -3.345   0.052  0.00  0.00     0.002 A 
HETATM    8  C   UNK N   1       0.128  -3.773   0.115  0.00  0.00     0.002 A 
HETATM    9  C   UNK N   1       1.176  -2.832   0.111  0.00  0.00     0.032 A 
HETATM   10  C   UNK N   1       0.828  -1.487   0.047  0.00  0.00     0.076 A 
HETATM   11  N   UNK N   1       1.265   1.979   0.003  0.00  0.00    -0.135 N 
HETATM   12  C   UNK N   1       0.593   3.170  -0.015  0.00  0.00     0.378 C 
HETATM   13  O   UNK N   1       1.236   4.189   0.169  0.00  0.00    -0.238 OA
HETATM   14  H   UNK N   1       2.625  -0.408   0.063  0.00  0.00     0.184 HD
HETATM   15  H   UNK N   1       2.245   2.065   0.044  0.00  0.00     0.189 HD
ENDROOT
BRANCH  12  16
HETATM   16  O   UNK N   1      -0.751   3.293  -0.189  0.00  0.00    -0.308 OA
HETATM   17  C   UNK N   1      -1.522   2.524  -1.023  0.00  0.00     0.215 C 
ENDBRANCH  12  16
TORSDOF 1
