MODEL 1
REMARK VINA RESULT:      -7.4      0.000      0.000
REMARK  7 active torsions:
REMARK  status: ('A' for Active; 'I' for Inactive)
REMARK    1  A    between atoms: C_2  and  C_3 
REMARK    2  A    between atoms: C_3  and  C_4 
REMARK    3  A    between atoms: C_3  and  C_6 
REMARK    4  A    between atoms: C_6  and  C_7 
REMARK    5  A    between atoms: C_6  and  N_24 
REMARK    6  A    between atoms: C_10  and  N_13 
REMARK    7  A    between atoms: N_13  and  C_14 
ROOT
HETATM    1  C   UNK N   1      32.970  16.686   8.647  0.00  0.00    -0.033 A 
HETATM    2  C   UNK N   1      34.277  17.084   8.939  0.00  0.00     0.011 A 
HETATM    3  C   UNK N   1      35.100  16.269   9.715  0.00  0.00     0.030 A 
HETATM    4  C   UNK N   1      34.612  15.059  10.220  0.00  0.00     0.034 A 
HETATM    5  C   UNK N   1      33.294  14.671   9.947  0.00  0.00     0.030 A 
HETATM    6  C   UNK N   1      32.467  15.491   9.181  0.00  0.00     0.011 A 
ENDROOT
BRANCH   1   7
HETATM    7  C   UNK N   1      32.148  17.523   7.711  0.00  0.00     0.146 C 
BRANCH   7   8
HETATM    8  C   UNK N   1      32.139  16.929   6.274  0.00  0.00     0.014 C 
BRANCH   8   9
HETATM    9  C   UNK N   1      33.209  17.532   5.378  0.00  0.00     0.002 C 
HETATM   10  C   UNK N   1      32.734  17.542   3.938  0.00  0.00     0.005 C 
ENDBRANCH   8   9
BRANCH   8  11
HETATM   11  C   UNK N   1      32.363  15.421   6.287  0.00  0.00     0.002 C 
HETATM   12  C   UNK N   1      31.124  14.695   5.800  0.00  0.00     0.005 C 
ENDBRANCH   8  11
ENDBRANCH   7   8
BRANCH   7  13
HETATM   13  N   UNK N   1      30.806  17.766   8.252  0.00  0.00    -0.277 N 
HETATM   14  C   UNK N   1      29.645  17.477   7.645  0.00  0.00     0.202 A 
HETATM   15  N   UNK N   1      28.616  17.916   8.394  0.00  0.00    -0.346 N 
HETATM   16  C   UNK N   1      29.201  18.492   9.467  0.00  0.00     0.198 A 
ATOM     17  HN  UNK N   1      27.619  17.833   8.196  1.00  0.00     0.167 HD
HETATM   18  N   UNK N   1      30.541  18.407   9.375  0.00  0.00    -0.292 N 
ATOM     19  HN  UNK N   1      31.221  18.769  10.045  1.00  0.00     0.188 HD
ENDBRANCH   7  13
ENDBRANCH   1   7
BRANCH   4  20
HETATM   20  N   UNK N   1      35.520  14.084  10.680  0.00  0.00    -0.337 N 
HETATM   21  H   UNK N   1      36.299  13.813  10.142  0.00  0.00     0.168 HD
BRANCH  20  22
HETATM   22  C   UNK N   1      35.264  13.512  11.952  0.00  0.00     0.150 A 
HETATM   23  N   UNK N   1      34.585  12.349  12.152  0.00  0.00    -0.335 N 
HETATM   24  C   UNK N   1      34.624  11.983  13.484  0.00  0.00     0.051 A 
ATOM     25  HN  UNK N   1      34.112  11.820  11.420  1.00  0.00     0.168 HD
HETATM   26  C   UNK N   1      34.047  10.827  14.006  0.00  0.00     0.031 A 
HETATM   27  C   UNK N   1      35.326  12.848  14.329  0.00  0.00     0.035 A 
HETATM   28  C   UNK N   1      34.191  10.567  15.383  0.00  0.00     0.002 A 
HETATM   29  C   UNK N   1      34.901  11.458  16.218  0.00  0.00     0.002 A 
HETATM   30  C   UNK N   1      35.482  12.619  15.687  0.00  0.00     0.021 A 
HETATM   31  S   UNK N   1      35.896  14.063  13.396  0.00  0.00    -0.052 SA
ENDBRANCH  20  22
ENDBRANCH   4  20
TORSDOF 7
ENDMDL
MODEL 2
REMARK VINA RESULT:      -7.3      1.357      2.139
REMARK  7 active torsions:
REMARK  status: ('A' for Active; 'I' for Inactive)
REMARK    1  A    between atoms: C_2  and  C_3 
REMARK    2  A    between atoms: C_3  and  C_4 
REMARK    3  A    between atoms: C_3  and  C_6 
REMARK    4  A    between atoms: C_6  and  C_7 
REMARK    5  A    between atoms: C_6  and  N_24 
REMARK    6  A    between atoms: C_10  and  N_13 
REMARK    7  A    between atoms: N_13  and  C_14 
ROOT
HETATM    1  C   UNK N   1      32.603  16.695   8.390  0.00  0.00    -0.033 A 
HETATM    2  C   UNK N   1      33.789  17.352   8.723  0.00  0.00     0.011 A 
HETATM    3  C   UNK N   1      34.792  16.677   9.418  0.00  0.00     0.030 A 
HETATM    4  C   UNK N   1      34.603  15.344   9.800  0.00  0.00     0.034 A 
HETATM    5  C   UNK N   1      33.404  14.692   9.486  0.00  0.00     0.030 A 
HETATM    6  C   UNK N   1      32.397  15.370   8.802  0.00  0.00     0.011 A 
ENDROOT
BRANCH   1   7
HETATM    7  C   UNK N   1      31.592  17.407   7.538  0.00  0.00     0.146 C 
BRANCH   7   8
HETATM    8  C   UNK N   1      31.308  16.630   6.221  0.00  0.00     0.014 C 
BRANCH   8   9
HETATM    9  C   UNK N   1      30.404  17.394   5.267  0.00  0.00     0.002 C 
HETATM   10  C   UNK N   1      29.631  16.422   4.396  0.00  0.00     0.005 C 
ENDBRANCH   8   9
BRANCH   8  11
HETATM   11  C   UNK N   1      32.594  16.315   5.465  0.00  0.00     0.002 C 
HETATM   12  C   UNK N   1      33.178  17.579   4.861  0.00  0.00     0.005 C 
ENDBRANCH   8  11
ENDBRANCH   7   8
BRANCH   7  13
HETATM   13  N   UNK N   1      30.382  17.727   8.302  0.00  0.00    -0.277 N 
HETATM   14  C   UNK N   1      30.252  18.719   9.197  0.00  0.00     0.202 A 
HETATM   15  N   UNK N   1      29.034  18.663   9.768  0.00  0.00    -0.346 N 
HETATM   16  C   UNK N   1      28.441  17.593   9.194  0.00  0.00     0.198 A 
ATOM     17  HN  UNK N   1      28.645  19.287  10.474  1.00  0.00     0.167 HD
HETATM   18  N   UNK N   1      29.270  17.015   8.304  0.00  0.00    -0.292 N 
ATOM     19  HN  UNK N   1      29.076  16.188   7.741  1.00  0.00     0.188 HD
ENDBRANCH   7  13
ENDBRANCH   1   7
BRANCH   4  20
HETATM   20  N   UNK N   1      35.719  14.564  10.165  0.00  0.00    -0.337 N 
HETATM   21  H   UNK N   1      36.390  14.285   9.501  0.00  0.00     0.168 HD
BRANCH  20  22
HETATM   22  C   UNK N   1      35.833  14.198  11.530  0.00  0.00     0.150 A 
HETATM   23  N   UNK N   1      36.512  14.915  12.467  0.00  0.00    -0.335 N 
HETATM   24  C   UNK N   1      36.321  14.379  13.727  0.00  0.00     0.051 A 
ATOM     25  HN  UNK N   1      37.085  15.735  12.267  1.00  0.00     0.168 HD
HETATM   26  C   UNK N   1      36.860  14.901  14.900  0.00  0.00     0.031 A 
HETATM   27  C   UNK N   1      35.498  13.250  13.785  0.00  0.00     0.035 A 
HETATM   28  C   UNK N   1      36.556  14.266  16.120  0.00  0.00     0.002 A 
HETATM   29  C   UNK N   1      35.725  13.124  16.154  0.00  0.00     0.002 A 
HETATM   30  C   UNK N   1      35.183  12.604  14.970  0.00  0.00     0.021 A 
HETATM   31  S   UNK N   1      35.015  12.936  12.256  0.00  0.00    -0.052 SA
ENDBRANCH  20  22
ENDBRANCH   4  20
TORSDOF 7
ENDMDL
MODEL 3
REMARK VINA RESULT:      -7.3      2.329      3.952
REMARK  7 active torsions:
REMARK  status: ('A' for Active; 'I' for Inactive)
REMARK    1  A    between atoms: C_2  and  C_3 
REMARK    2  A    between atoms: C_3  and  C_4 
REMARK    3  A    between atoms: C_3  and  C_6 
REMARK    4  A    between atoms: C_6  and  C_7 
REMARK    5  A    between atoms: C_6  and  N_24 
REMARK    6  A    between atoms: C_10  and  N_13 
REMARK    7  A    between atoms: N_13  and  C_14 
ROOT
HETATM    1  C   UNK N   1      31.762  16.626   7.715  0.00  0.00    -0.033 A 
HETATM    2  C   UNK N   1      32.134  15.570   8.550  0.00  0.00     0.011 A 
HETATM    3  C   UNK N   1      33.286  15.665   9.328  0.00  0.00     0.030 A 
HETATM    4  C   UNK N   1      34.083  16.813   9.260  0.00  0.00     0.034 A 
HETATM    5  C   UNK N   1      33.723  17.862   8.406  0.00  0.00     0.030 A 
HETATM    6  C   UNK N   1      32.578  17.763   7.618  0.00  0.00     0.011 A 
ENDROOT
BRANCH   1   7
HETATM    7  C   UNK N   1      30.455  16.547   6.980  0.00  0.00     0.146 C 
BRANCH   7   8
HETATM    8  C   UNK N   1      29.490  17.689   7.408  0.00  0.00     0.014 C 
BRANCH   8   9
HETATM    9  C   UNK N   1      28.246  17.769   6.539  0.00  0.00     0.002 C 
HETATM   10  C   UNK N   1      27.837  19.218   6.351  0.00  0.00     0.005 C 
ENDBRANCH   8   9
BRANCH   8  11
HETATM   11  C   UNK N   1      29.020  17.517   8.849  0.00  0.00     0.002 C 
HETATM   12  C   UNK N   1      29.601  18.607   9.730  0.00  0.00     0.005 C 
ENDBRANCH   8  11
ENDBRANCH   7   8
BRANCH   7  13
HETATM   13  N   UNK N   1      30.662  16.468   5.531  0.00  0.00    -0.277 N 
HETATM   14  C   UNK N   1      31.111  17.457   4.742  0.00  0.00     0.202 A 
HETATM   15  N   UNK N   1      31.094  17.058   3.456  0.00  0.00    -0.346 N 
HETATM   16  C   UNK N   1      30.605  15.799   3.498  0.00  0.00     0.198 A 
ATOM     17  HN  UNK N   1      31.384  17.588   2.634  1.00  0.00     0.167 HD
HETATM   18  N   UNK N   1      30.333  15.442   4.767  0.00  0.00    -0.292 N 
ATOM     19  HN  UNK N   1      29.947  14.551   5.078  1.00  0.00     0.188 HD
ENDBRANCH   7  13
ENDBRANCH   1   7
BRANCH   4  20
HETATM   20  N   UNK N   1      35.019  17.068  10.284  0.00  0.00    -0.337 N 
HETATM   21  H   UNK N   1      35.215  17.985  10.584  0.00  0.00     0.168 HD
BRANCH  20  22
HETATM   22  C   UNK N   1      35.665  15.946  10.863  0.00  0.00     0.150 A 
HETATM   23  N   UNK N   1      35.483  15.528  12.146  0.00  0.00    -0.335 N 
HETATM   24  C   UNK N   1      36.138  14.332  12.368  0.00  0.00     0.051 A 
ATOM     25  HN  UNK N   1      34.939  16.030  12.848  1.00  0.00     0.168 HD
HETATM   26  C   UNK N   1      36.121  13.631  13.572  0.00  0.00     0.031 A 
HETATM   27  C   UNK N   1      36.830  13.809  11.272  0.00  0.00     0.035 A 
HETATM   28  C   UNK N   1      36.812  12.405  13.645  0.00  0.00     0.002 A 
HETATM   29  C   UNK N   1      37.508  11.898  12.525  0.00  0.00     0.002 A 
HETATM   30  C   UNK N   1      37.519  12.607  11.315  0.00  0.00     0.021 A 
HETATM   31  S   UNK N   1      36.612  14.850  10.032  0.00  0.00    -0.052 SA
ENDBRANCH  20  22
ENDBRANCH   4  20
TORSDOF 7
ENDMDL
MODEL 4
REMARK VINA RESULT:      -7.1      1.928      2.657
REMARK  7 active torsions:
REMARK  status: ('A' for Active; 'I' for Inactive)
REMARK    1  A    between atoms: C_2  and  C_3 
REMARK    2  A    between atoms: C_3  and  C_4 
REMARK    3  A    between atoms: C_3  and  C_6 
REMARK    4  A    between atoms: C_6  and  C_7 
REMARK    5  A    between atoms: C_6  and  N_24 
REMARK    6  A    between atoms: C_10  and  N_13 
REMARK    7  A    between atoms: N_13  and  C_14 
ROOT
HETATM    1  C   UNK N   1      32.361  17.251   7.687  0.00  0.00    -0.033 A 
HETATM    2  C   UNK N   1      32.335  16.250   8.660  0.00  0.00     0.011 A 
HETATM    3  C   UNK N   1      33.409  16.096   9.536  0.00  0.00     0.030 A 
HETATM    4  C   UNK N   1      34.524  16.935   9.429  0.00  0.00     0.034 A 
HETATM    5  C   UNK N   1      34.561  17.924   8.439  0.00  0.00     0.030 A 
HETATM    6  C   UNK N   1      33.493  18.069   7.555  0.00  0.00     0.011 A 
ENDROOT
BRANCH   1   7
HETATM    7  C   UNK N   1      31.143  17.471   6.837  0.00  0.00     0.146 C 
BRANCH   7   8
HETATM    8  C   UNK N   1      31.010  16.379   5.738  0.00  0.00     0.014 C 
BRANCH   8   9
HETATM    9  C   UNK N   1      30.820  16.959   4.347  0.00  0.00     0.002 C 
HETATM   10  C   UNK N   1      32.156  17.400   3.781  0.00  0.00     0.005 C 
ENDBRANCH   8   9
BRANCH   8  11
HETATM   11  C   UNK N   1      32.242  15.482   5.685  0.00  0.00     0.002 C 
HETATM   12  C   UNK N   1      31.837  14.020   5.702  0.00  0.00     0.005 C 
ENDBRANCH   8  11
ENDBRANCH   7   8
BRANCH   7  13
HETATM   13  N   UNK N   1      29.939  17.622   7.661  0.00  0.00    -0.277 N 
HETATM   14  C   UNK N   1      28.745  17.058   7.426  0.00  0.00     0.202 A 
HETATM   15  N   UNK N   1      27.850  17.485   8.337  0.00  0.00    -0.346 N 
HETATM   16  C   UNK N   1      28.547  18.338   9.120  0.00  0.00     0.198 A 
ATOM     17  HN  UNK N   1      26.868  17.224   8.418  1.00  0.00     0.167 HD
HETATM   18  N   UNK N   1      29.822  18.428   8.700  0.00  0.00    -0.292 N 
ATOM     19  HN  UNK N   1      30.557  19.008   9.107  1.00  0.00     0.188 HD
ENDBRANCH   7  13
ENDBRANCH   1   7
BRANCH   4  20
HETATM   20  N   UNK N   1      35.425  17.029  10.509  0.00  0.00    -0.337 N 
HETATM   21  H   UNK N   1      35.643  17.896  10.922  0.00  0.00     0.168 HD
BRANCH  20  22
HETATM   22  C   UNK N   1      36.004  15.821  10.976  0.00  0.00     0.150 A 
HETATM   23  N   UNK N   1      35.925  15.373  12.259  0.00  0.00    -0.335 N 
HETATM   24  C   UNK N   1      36.463  14.105  12.368  0.00  0.00     0.051 A 
ATOM     25  HN  UNK N   1      35.525  15.902  13.034  1.00  0.00     0.168 HD
HETATM   26  C   UNK N   1      36.506  13.361  13.545  0.00  0.00     0.031 A 
HETATM   27  C   UNK N   1      36.961  13.556  11.183  0.00  0.00     0.035 A 
HETATM   28  C   UNK N   1      37.059  12.066  13.501  0.00  0.00     0.002 A 
HETATM   29  C   UNK N   1      37.561  11.533  12.293  0.00  0.00     0.002 A 
HETATM   30  C   UNK N   1      37.512  12.286  11.110  0.00  0.00     0.021 A 
HETATM   31  S   UNK N   1      36.720  14.665  10.007  0.00  0.00    -0.052 SA
ENDBRANCH  20  22
ENDBRANCH   4  20
TORSDOF 7
ENDMDL
MODEL 5
REMARK VINA RESULT:      -7.0      2.355      8.436
REMARK  7 active torsions:
REMARK  status: ('A' for Active; 'I' for Inactive)
REMARK    1  A    between atoms: C_2  and  C_3 
REMARK    2  A    between atoms: C_3  and  C_4 
REMARK    3  A    between atoms: C_3  and  C_6 
REMARK    4  A    between atoms: C_6  and  C_7 
REMARK    5  A    between atoms: C_6  and  N_24 
REMARK    6  A    between atoms: C_10  and  N_13 
REMARK    7  A    between atoms: N_13  and  C_14 
ROOT
HETATM    1  C   UNK N   1      35.775  13.366  11.282  0.00  0.00    -0.033 A 
HETATM    2  C   UNK N   1      35.287  14.345  12.151  0.00  0.00     0.011 A 
HETATM    3  C   UNK N   1      35.131  15.658  11.709  0.00  0.00     0.030 A 
HETATM    4  C   UNK N   1      35.480  16.002  10.399  0.00  0.00     0.034 A 
HETATM    5  C   UNK N   1      35.991  15.026   9.534  0.00  0.00     0.030 A 
HETATM    6  C   UNK N   1      36.159  13.716   9.979  0.00  0.00     0.011 A 
ENDROOT
BRANCH   1   7
HETATM    7  C   UNK N   1      35.820  11.939  11.746  0.00  0.00     0.146 C 
BRANCH   7   8
HETATM    8  C   UNK N   1      35.585  11.831  13.279  0.00  0.00     0.014 C 
BRANCH   8   9
HETATM    9  C   UNK N   1      34.859  10.557  13.678  0.00  0.00     0.002 C 
HETATM   10  C   UNK N   1      33.650  10.893  14.529  0.00  0.00     0.005 C 
ENDBRANCH   8   9
BRANCH   8  11
HETATM   11  C   UNK N   1      36.899  11.860  14.053  0.00  0.00     0.002 C 
HETATM   12  C   UNK N   1      36.840  12.893  15.162  0.00  0.00     0.005 C 
ENDBRANCH   8  11
ENDBRANCH   7   8
BRANCH   7  13
HETATM   13  N   UNK N   1      34.920  11.093  10.954  0.00  0.00    -0.277 N 
HETATM   14  C   UNK N   1      35.276  10.015  10.240  0.00  0.00     0.202 A 
HETATM   15  N   UNK N   1      34.209   9.537   9.572  0.00  0.00    -0.346 N 
HETATM   16  C   UNK N   1      33.202  10.376   9.900  0.00  0.00     0.198 A 
ATOM     17  HN  UNK N   1      34.169   8.724   8.957  1.00  0.00     0.167 HD
HETATM   18  N   UNK N   1      33.641  11.333  10.738  0.00  0.00    -0.292 N 
ATOM     19  HN  UNK N   1      33.089  12.097  11.130  1.00  0.00     0.188 HD
ENDBRANCH   7  13
ENDBRANCH   1   7
BRANCH   4  20
HETATM   20  N   UNK N   1      34.995  17.205   9.846  0.00  0.00    -0.337 N 
HETATM   21  H   UNK N   1      35.354  18.079  10.122  0.00  0.00     0.168 HD
BRANCH  20  22
HETATM   22  C   UNK N   1      33.966  17.101   8.875  0.00  0.00     0.150 A 
HETATM   23  N   UNK N   1      32.639  17.020   9.163  0.00  0.00    -0.335 N 
HETATM   24  C   UNK N   1      31.883  17.073   8.007  0.00  0.00     0.051 A 
ATOM     25  HN  UNK N   1      32.254  16.929  10.103  1.00  0.00     0.168 HD
HETATM   26  C   UNK N   1      30.491  17.041   7.968  0.00  0.00     0.031 A 
HETATM   27  C   UNK N   1      32.606  17.196   6.817  0.00  0.00     0.035 A 
HETATM   28  C   UNK N   1      29.852  17.133   6.716  0.00  0.00     0.002 A 
HETATM   29  C   UNK N   1      30.603  17.254   5.527  0.00  0.00     0.002 A 
HETATM   30  C   UNK N   1      32.005  17.288   5.572  0.00  0.00     0.021 A 
HETATM   31  S   UNK N   1      34.188  17.241   7.226  0.00  0.00    -0.052 SA
ENDBRANCH  20  22
ENDBRANCH   4  20
TORSDOF 7
ENDMDL
MODEL 6
REMARK VINA RESULT:      -6.9      1.770      2.598
REMARK  7 active torsions:
REMARK  status: ('A' for Active; 'I' for Inactive)
REMARK    1  A    between atoms: C_2  and  C_3 
REMARK    2  A    between atoms: C_3  and  C_4 
REMARK    3  A    between atoms: C_3  and  C_6 
REMARK    4  A    between atoms: C_6  and  C_7 
REMARK    5  A    between atoms: C_6  and  N_24 
REMARK    6  A    between atoms: C_10  and  N_13 
REMARK    7  A    between atoms: N_13  and  C_14 
ROOT
HETATM    1  C   UNK N   1      34.535  15.578   9.314  0.00  0.00    -0.033 A 
HETATM    2  C   UNK N   1      35.236  16.382  10.216  0.00  0.00     0.011 A 
HETATM    3  C   UNK N   1      36.012  15.799  11.217  0.00  0.00     0.030 A 
HETATM    4  C   UNK N   1      36.075  14.406  11.331  0.00  0.00     0.034 A 
HETATM    5  C   UNK N   1      35.354  13.600  10.442  0.00  0.00     0.030 A 
HETATM    6  C   UNK N   1      34.568  14.182   9.449  0.00  0.00     0.011 A 
ENDROOT
BRANCH   1   7
HETATM    7  C   UNK N   1      33.806  16.229   8.175  0.00  0.00     0.146 C 
BRANCH   7   8
HETATM    8  C   UNK N   1      33.767  15.308   6.922  0.00  0.00     0.014 C 
BRANCH   8   9
HETATM    9  C   UNK N   1      32.561  15.566   6.035  0.00  0.00     0.002 C 
HETATM   10  C   UNK N   1      31.717  14.311   5.929  0.00  0.00     0.005 C 
ENDBRANCH   8   9
BRANCH   8  11
HETATM   11  C   UNK N   1      35.009  15.488   6.055  0.00  0.00     0.002 C 
HETATM   12  C   UNK N   1      35.745  14.170   5.902  0.00  0.00     0.005 C 
ENDBRANCH   8  11
ENDBRANCH   7   8
BRANCH   7  13
HETATM   13  N   UNK N   1      32.483  16.705   8.592  0.00  0.00    -0.277 N 
HETATM   14  C   UNK N   1      32.028  17.964   8.489  0.00  0.00     0.202 A 
HETATM   15  N   UNK N   1      30.807  18.056   9.050  0.00  0.00    -0.346 N 
HETATM   16  C   UNK N   1      30.551  16.810   9.507  0.00  0.00     0.198 A 
ATOM     17  HN  UNK N   1      30.210  18.880   9.116  1.00  0.00     0.167 HD
HETATM   18  N   UNK N   1      31.581  15.987   9.234  0.00  0.00    -0.292 N 
ATOM     19  HN  UNK N   1      31.650  14.999   9.477  1.00  0.00     0.188 HD
ENDBRANCH   7  13
ENDBRANCH   1   7
BRANCH   4  20
HETATM   20  N   UNK N   1      37.115  13.820  12.081  0.00  0.00    -0.337 N 
HETATM   21  H   UNK N   1      38.037  13.781  11.738  0.00  0.00     0.168 HD
BRANCH  20  22
HETATM   22  C   UNK N   1      36.776  13.288  13.351  0.00  0.00     0.150 A 
HETATM   23  N   UNK N   1      36.405  14.036  14.426  0.00  0.00    -0.335 N 
HETATM   24  C   UNK N   1      36.002  13.225  15.470  0.00  0.00     0.051 A 
ATOM     25  HN  UNK N   1      36.423  15.055  14.458  1.00  0.00     0.168 HD
HETATM   26  C   UNK N   1      35.537  13.687  16.699  0.00  0.00     0.031 A 
HETATM   27  C   UNK N   1      36.053  11.850  15.223  0.00  0.00     0.035 A 
HETATM   28  C   UNK N   1      35.131  12.743  17.663  0.00  0.00     0.002 A 
HETATM   29  C   UNK N   1      35.196  11.358  17.392  0.00  0.00     0.002 A 
HETATM   30  C   UNK N   1      35.663  10.898  16.152  0.00  0.00     0.021 A 
HETATM   31  S   UNK N   1      36.601  11.663  13.694  0.00  0.00    -0.052 SA
ENDBRANCH  20  22
ENDBRANCH   4  20
TORSDOF 7
ENDMDL
MODEL 7
REMARK VINA RESULT:      -6.9      4.332      9.752
REMARK  7 active torsions:
REMARK  status: ('A' for Active; 'I' for Inactive)
REMARK    1  A    between atoms: C_2  and  C_3 
REMARK    2  A    between atoms: C_3  and  C_4 
REMARK    3  A    between atoms: C_3  and  C_6 
REMARK    4  A    between atoms: C_6  and  C_7 
REMARK    5  A    between atoms: C_6  and  N_24 
REMARK    6  A    between atoms: C_10  and  N_13 
REMARK    7  A    between atoms: N_13  and  C_14 
ROOT
HETATM    1  C   UNK N   1      31.667  16.095   7.086  0.00  0.00    -0.033 A 
HETATM    2  C   UNK N   1      31.262  17.162   7.891  0.00  0.00     0.011 A 
HETATM    3  C   UNK N   1      29.962  17.657   7.797  0.00  0.00     0.030 A 
HETATM    4  C   UNK N   1      29.065  17.097   6.880  0.00  0.00     0.034 A 
HETATM    5  C   UNK N   1      29.477  16.043   6.056  0.00  0.00     0.030 A 
HETATM    6  C   UNK N   1      30.780  15.556   6.141  0.00  0.00     0.011 A 
ENDROOT
BRANCH   1   7
HETATM    7  C   UNK N   1      33.031  15.505   7.293  0.00  0.00     0.146 C 
BRANCH   7   8
HETATM    8  C   UNK N   1      34.077  16.133   6.329  0.00  0.00     0.014 C 
BRANCH   8   9
HETATM    9  C   UNK N   1      34.314  15.293   5.085  0.00  0.00     0.002 C 
HETATM   10  C   UNK N   1      34.615  13.859   5.477  0.00  0.00     0.005 C 
ENDBRANCH   8   9
BRANCH   8  11
HETATM   11  C   UNK N   1      33.646  17.518   5.858  0.00  0.00     0.002 C 
HETATM   12  C   UNK N   1      33.275  17.489   4.387  0.00  0.00     0.005 C 
ENDBRANCH   8  11
ENDBRANCH   7   8
BRANCH   7  13
HETATM   13  N   UNK N   1      33.427  15.561   8.704  0.00  0.00    -0.277 N 
HETATM   14  C   UNK N   1      34.344  16.386   9.234  0.00  0.00     0.202 A 
HETATM   15  N   UNK N   1      34.513  16.101  10.539  0.00  0.00    -0.346 N 
HETATM   16  C   UNK N   1      33.676  15.066  10.771  0.00  0.00     0.198 A 
ATOM     17  HN  UNK N   1      35.134  16.563  11.204  1.00  0.00     0.167 HD
HETATM   18  N   UNK N   1      33.019  14.731   9.645  0.00  0.00    -0.292 N 
ATOM     19  HN  UNK N   1      32.337  13.980   9.540  1.00  0.00     0.188 HD
ENDBRANCH   7  13
ENDBRANCH   1   7
BRANCH   4  20
HETATM   20  N   UNK N   1      27.684  17.335   7.030  0.00  0.00    -0.337 N 
HETATM   21  H   UNK N   1      27.199  17.051   7.839  0.00  0.00     0.168 HD
BRANCH  20  22
HETATM   22  C   UNK N   1      27.023  18.001   5.966  0.00  0.00     0.150 A 
HETATM   23  N   UNK N   1      25.697  17.878   5.685  0.00  0.00    -0.335 N 
HETATM   24  C   UNK N   1      25.326  18.756   4.684  0.00  0.00     0.051 A 
ATOM     25  HN  UNK N   1      25.064  17.226   6.148  1.00  0.00     0.168 HD
HETATM   26  C   UNK N   1      24.031  18.894   4.190  0.00  0.00     0.031 A 
HETATM   27  C   UNK N   1      26.349  19.565   4.181  0.00  0.00     0.035 A 
HETATM   28  C   UNK N   1      23.793  19.853   3.186  0.00  0.00     0.002 A 
HETATM   29  C   UNK N   1      24.843  20.657   2.690  0.00  0.00     0.002 A 
HETATM   30  C   UNK N   1      26.145  20.516   3.193  0.00  0.00     0.021 A 
HETATM   31  S   UNK N   1      27.709  19.175   4.997  0.00  0.00    -0.052 SA
ENDBRANCH  20  22
ENDBRANCH   4  20
TORSDOF 7
ENDMDL
MODEL 8
REMARK VINA RESULT:      -6.8      2.704      8.633
REMARK  7 active torsions:
REMARK  status: ('A' for Active; 'I' for Inactive)
REMARK    1  A    between atoms: C_2  and  C_3 
REMARK    2  A    between atoms: C_3  and  C_4 
REMARK    3  A    between atoms: C_3  and  C_6 
REMARK    4  A    between atoms: C_6  and  C_7 
REMARK    5  A    between atoms: C_6  and  N_24 
REMARK    6  A    between atoms: C_10  and  N_13 
REMARK    7  A    between atoms: N_13  and  C_14 
ROOT
HETATM    1  C   UNK N   1      35.656  13.805  11.169  0.00  0.00    -0.033 A 
HETATM    2  C   UNK N   1      36.321  15.010  11.405  0.00  0.00     0.011 A 
HETATM    3  C   UNK N   1      35.864  16.189  10.819  0.00  0.00     0.030 A 
HETATM    4  C   UNK N   1      34.746  16.164   9.978  0.00  0.00     0.034 A 
HETATM    5  C   UNK N   1      34.093  14.953   9.722  0.00  0.00     0.030 A 
HETATM    6  C   UNK N   1      34.557  13.772  10.298  0.00  0.00     0.011 A 
ENDROOT
BRANCH   1   7
HETATM    7  C   UNK N   1      36.097  12.574  11.907  0.00  0.00     0.146 C 
BRANCH   7   8
HETATM    8  C   UNK N   1      37.464  12.054  11.380  0.00  0.00     0.014 C 
BRANCH   8   9
HETATM    9  C   UNK N   1      37.701  10.586  11.697  0.00  0.00     0.002 C 
HETATM   10  C   UNK N   1      37.274   9.726  10.523  0.00  0.00     0.005 C 
ENDBRANCH   8   9
BRANCH   8  11
HETATM   11  C   UNK N   1      37.581  12.210   9.868  0.00  0.00     0.002 C 
HETATM   12  C   UNK N   1      38.846  12.965   9.507  0.00  0.00     0.005 C 
ENDBRANCH   8  11
ENDBRANCH   7   8
BRANCH   7  13
HETATM   13  N   UNK N   1      36.070  12.784  13.358  0.00  0.00    -0.277 N 
HETATM   14  C   UNK N   1      34.979  12.765  14.138  0.00  0.00     0.202 A 
HETATM   15  N   UNK N   1      35.316  13.083  15.403  0.00  0.00    -0.346 N 
HETATM   16  C   UNK N   1      36.647  13.309  15.351  0.00  0.00     0.198 A 
ATOM     17  HN  UNK N   1      34.704  13.141  16.217  1.00  0.00     0.167 HD
HETATM   18  N   UNK N   1      37.106  13.135  14.098  0.00  0.00    -0.292 N 
ATOM     19  HN  UNK N   1      38.068  13.251  13.781  1.00  0.00     0.188 HD
ENDBRANCH   7  13
ENDBRANCH   1   7
BRANCH   4  20
HETATM   20  N   UNK N   1      34.073  17.368   9.685  0.00  0.00    -0.337 N 
HETATM   21  H   UNK N   1      34.080  18.126  10.313  0.00  0.00     0.168 HD
BRANCH  20  22
HETATM   22  C   UNK N   1      33.386  17.440   8.447  0.00  0.00     0.150 A 
HETATM   23  N   UNK N   1      33.993  17.551   7.233  0.00  0.00    -0.335 N 
HETATM   24  C   UNK N   1      33.067  17.454   6.212  0.00  0.00     0.051 A 
ATOM     25  HN  UNK N   1      34.994  17.688   7.096  1.00  0.00     0.168 HD
HETATM   26  C   UNK N   1      33.375  17.501   4.855  0.00  0.00     0.031 A 
HETATM   27  C   UNK N   1      31.741  17.268   6.615  0.00  0.00     0.035 A 
HETATM   28  C   UNK N   1      32.329  17.360   3.923  0.00  0.00     0.002 A 
HETATM   29  C   UNK N   1      30.996  17.176   4.353  0.00  0.00     0.002 A 
HETATM   30  C   UNK N   1      30.691  17.127   5.721  0.00  0.00     0.021 A 
HETATM   31  S   UNK N   1      31.743  17.223   8.248  0.00  0.00    -0.052 SA
ENDBRANCH  20  22
ENDBRANCH   4  20
TORSDOF 7
ENDMDL
MODEL 9
REMARK VINA RESULT:      -6.7      7.996     10.903
REMARK  7 active torsions:
REMARK  status: ('A' for Active; 'I' for Inactive)
REMARK    1  A    between atoms: C_2  and  C_3 
REMARK    2  A    between atoms: C_3  and  C_4 
REMARK    3  A    between atoms: C_3  and  C_6 
REMARK    4  A    between atoms: C_6  and  C_7 
REMARK    5  A    between atoms: C_6  and  N_24 
REMARK    6  A    between atoms: C_10  and  N_13 
REMARK    7  A    between atoms: N_13  and  C_14 
ROOT
HETATM    1  C   UNK N   1      24.581  17.221   4.485  0.00  0.00    -0.033 A 
HETATM    2  C   UNK N   1      23.589  17.532   5.417  0.00  0.00     0.011 A 
HETATM    3  C   UNK N   1      22.533  16.649   5.638  0.00  0.00     0.030 A 
HETATM    4  C   UNK N   1      22.456  15.456   4.911  0.00  0.00     0.034 A 
HETATM    5  C   UNK N   1      23.438  15.154   3.960  0.00  0.00     0.030 A 
HETATM    6  C   UNK N   1      24.487  16.043   3.730  0.00  0.00     0.011 A 
ENDROOT
BRANCH   1   7
HETATM    7  C   UNK N   1      25.767  18.132   4.355  0.00  0.00     0.146 C 
BRANCH   7   8
HETATM    8  C   UNK N   1      25.391  19.607   4.672  0.00  0.00     0.014 C 
BRANCH   8   9
HETATM    9  C   UNK N   1      26.605  20.503   4.848  0.00  0.00     0.002 C 
HETATM   10  C   UNK N   1      26.567  21.167   6.211  0.00  0.00     0.005 C 
ENDBRANCH   8   9
BRANCH   8  11
HETATM   11  C   UNK N   1      24.539  20.220   3.565  0.00  0.00     0.002 C 
HETATM   12  C   UNK N   1      25.409  20.641   2.396  0.00  0.00     0.005 C 
ENDBRANCH   8  11
ENDBRANCH   7   8
BRANCH   7  13
HETATM   13  N   UNK N   1      26.906  17.638   5.135  0.00  0.00    -0.277 N 
HETATM   14  C   UNK N   1      28.075  17.204   4.638  0.00  0.00     0.202 A 
HETATM   15  N   UNK N   1      28.853  16.745   5.637  0.00  0.00    -0.346 N 
HETATM   16  C   UNK N   1      28.104  16.904   6.750  0.00  0.00     0.198 A 
ATOM     17  HN  UNK N   1      29.796  16.362   5.569  1.00  0.00     0.167 HD
HETATM   18  N   UNK N   1      26.910  17.442   6.441  0.00  0.00    -0.292 N 
ATOM     19  HN  UNK N   1      26.153  17.657   7.090  1.00  0.00     0.188 HD
ENDBRANCH   7  13
ENDBRANCH   1   7
BRANCH   4  20
HETATM   20  N   UNK N   1      21.624  14.416   5.373  0.00  0.00    -0.337 N 
HETATM   21  H   UNK N   1      20.863  14.091   4.839  0.00  0.00     0.168 HD
BRANCH  20  22
HETATM   22  C   UNK N   1      21.930  13.857   6.640  0.00  0.00     0.150 A 
HETATM   23  N   UNK N   1      21.159  13.999   7.753  0.00  0.00    -0.335 N 
HETATM   24  C   UNK N   1      21.646  13.225   8.788  0.00  0.00     0.051 A 
ATOM     25  HN  UNK N   1      20.334  14.597   7.814  1.00  0.00     0.168 HD
HETATM   26  C   UNK N   1      21.063  13.130  10.050  0.00  0.00     0.031 A 
HETATM   27  C   UNK N   1      22.792  12.478   8.497  0.00  0.00     0.035 A 
HETATM   28  C   UNK N   1      21.655  12.276  11.001  0.00  0.00     0.002 A 
HETATM   29  C   UNK N   1      22.815  11.534  10.685  0.00  0.00     0.002 A 
HETATM   30  C   UNK N   1      23.396  11.631   9.413  0.00  0.00     0.021 A 
HETATM   31  S   UNK N   1      23.181  12.793   6.941  0.00  0.00    -0.052 SA
ENDBRANCH  20  22
ENDBRANCH   4  20
TORSDOF 7
ENDMDL
