MODEL 1
REMARK VINA RESULT:      -4.0      0.000      0.000
REMARK  0 active torsions:
REMARK  status: ('A' for Active; 'I' for Inactive)
REMARK       I    between atoms: C_1  and  N_4 
REMARK       I    between atoms: C_1  and  N_5 
REMARK       I    between atoms: N_5  and  C_6 
REMARK       I    between atoms: C_6  and  N_9 
ROOT
HETATM    1  C   UNK N   1      22.828  12.195  11.273  0.00  0.00     0.683 C 
HETATM    2  N   UNK N   1      21.624  11.771  11.367  0.00  0.00    -0.234 N 
ATOM      3  HN  UNK N   1      21.254  11.483  12.273  1.00  0.00     0.174 HD
HETATM    4  N   UNK N   1      23.633  12.259  12.433  0.00  0.00    -0.234 N 
HETATM    5  N   UNK N   1      23.331  12.593  10.002  0.00  0.00    -0.024 N 
HETATM    6  C   UNK N   1      24.646  13.081   9.762  0.00  0.00     0.683 C 
HETATM    7  N   UNK N   1      24.988  13.410   8.572  0.00  0.00    -0.234 N 
ATOM      8  HN  UNK N   1      24.319  13.321   7.807  1.00  0.00     0.174 HD
HETATM    9  N   UNK N   1      25.584  13.210  10.811  0.00  0.00    -0.234 N 
HETATM   10  H   UNK N   1      21.055  11.722  10.565  0.00  0.00     0.174 HD
HETATM   11  H   UNK N   1      23.265  11.979  13.303  0.00  0.00     0.174 HD
HETATM   12  H   UNK N   1      24.560  12.583  12.372  0.00  0.00     0.174 HD
HETATM   13  H   UNK N   1      22.722  12.526   9.231  0.00  0.00     0.203 HD
HETATM   14  H   UNK N   1      25.896  13.749   8.396  0.00  0.00     0.174 HD
HETATM   15  H   UNK N   1      25.333  12.960  11.730  0.00  0.00     0.174 HD
HETATM   16  H   UNK N   1      26.489  13.550  10.624  0.00  0.00     0.174 HD
ENDROOT
TORSDOF 0
ENDMDL
MODEL 2
REMARK VINA RESULT:      -4.0      0.011      3.187
REMARK  0 active torsions:
REMARK  status: ('A' for Active; 'I' for Inactive)
REMARK       I    between atoms: C_1  and  N_4 
REMARK       I    between atoms: C_1  and  N_5 
REMARK       I    between atoms: N_5  and  C_6 
REMARK       I    between atoms: C_6  and  N_9 
ROOT
HETATM    1  C   UNK N   1      24.640  13.080   9.756  0.00  0.00     0.683 C 
HETATM    2  N   UNK N   1      24.983  13.409   8.567  0.00  0.00    -0.234 N 
ATOM      3  HN  UNK N   1      25.924  13.758   8.385  1.00  0.00     0.174 HD
HETATM    4  N   UNK N   1      25.578  13.206  10.806  0.00  0.00    -0.234 N 
HETATM    5  N   UNK N   1      23.323  12.595   9.995  0.00  0.00    -0.024 N 
HETATM    6  C   UNK N   1      22.819  12.198  11.265  0.00  0.00     0.683 C 
HETATM    7  N   UNK N   1      21.613  11.776  11.359  0.00  0.00    -0.234 N 
ATOM      8  HN  UNK N   1      21.024  11.728  10.528  1.00  0.00     0.174 HD
HETATM    9  N   UNK N   1      23.623  12.259  12.427  0.00  0.00    -0.234 N 
HETATM   10  H   UNK N   1      24.337  13.325   7.828  0.00  0.00     0.174 HD
HETATM   11  H   UNK N   1      26.484  13.544  10.620  0.00  0.00     0.174 HD
HETATM   12  H   UNK N   1      25.325  12.957  11.724  0.00  0.00     0.174 HD
HETATM   13  H   UNK N   1      22.716  12.530   9.222  0.00  0.00     0.203 HD
HETATM   14  H   UNK N   1      21.255  11.499  12.234  0.00  0.00     0.174 HD
HETATM   15  H   UNK N   1      24.551  12.582  12.366  0.00  0.00     0.174 HD
HETATM   16  H   UNK N   1      23.255  11.979  13.296  0.00  0.00     0.174 HD
ENDROOT
TORSDOF 0
ENDMDL
MODEL 3
REMARK VINA RESULT:      -4.0     22.912     23.730
REMARK  0 active torsions:
REMARK  status: ('A' for Active; 'I' for Inactive)
REMARK       I    between atoms: C_1  and  N_4 
REMARK       I    between atoms: C_1  and  N_5 
REMARK       I    between atoms: N_5  and  C_6 
REMARK       I    between atoms: C_6  and  N_9 
ROOT
HETATM    1  C   UNK N   1      43.121  23.068   2.986  0.00  0.00     0.683 C 
HETATM    2  N   UNK N   1      42.030  23.344   2.376  0.00  0.00    -0.234 N 
ATOM      3  HN  UNK N   1      41.570  24.240   2.535  1.00  0.00     0.174 HD
HETATM    4  N   UNK N   1      43.676  24.016   3.876  0.00  0.00    -0.234 N 
HETATM    5  N   UNK N   1      43.752  21.813   2.755  0.00  0.00    -0.024 N 
HETATM    6  C   UNK N   1      44.964  21.385   3.367  0.00  0.00     0.683 C 
HETATM    7  N   UNK N   1      45.439  20.230   3.081  0.00  0.00    -0.234 N 
ATOM      8  HN  UNK N   1      44.950  19.628   2.420  1.00  0.00     0.174 HD
HETATM    9  N   UNK N   1      45.654  22.209   4.285  0.00  0.00    -0.234 N 
HETATM   10  H   UNK N   1      41.635  22.691   1.754  0.00  0.00     0.174 HD
HETATM   11  H   UNK N   1      43.223  24.878   4.022  0.00  0.00     0.174 HD
HETATM   12  H   UNK N   1      44.514  23.814   4.350  0.00  0.00     0.174 HD
HETATM   13  H   UNK N   1      43.317  21.195   2.123  0.00  0.00     0.203 HD
HETATM   14  H   UNK N   1      46.277  19.926   3.499  0.00  0.00     0.174 HD
HETATM   15  H   UNK N   1      45.298  23.099   4.512  0.00  0.00     0.174 HD
HETATM   16  H   UNK N   1      46.491  21.895   4.697  0.00  0.00     0.174 HD
ENDROOT
TORSDOF 0
ENDMDL
MODEL 4
REMARK VINA RESULT:      -4.0     10.340     11.400
REMARK  0 active torsions:
REMARK  status: ('A' for Active; 'I' for Inactive)
REMARK       I    between atoms: C_1  and  N_4 
REMARK       I    between atoms: C_1  and  N_5 
REMARK       I    between atoms: N_5  and  C_6 
REMARK       I    between atoms: C_6  and  N_9 
ROOT
HETATM    1  C   UNK N   1      20.058  18.533   2.948  0.00  0.00     0.683 C 
HETATM    2  N   UNK N   1      19.481  17.395   3.045  0.00  0.00    -0.234 N 
ATOM      3  HN  UNK N   1      19.523  16.874   3.921  1.00  0.00     0.174 HD
HETATM    4  N   UNK N   1      20.750  19.055   4.065  0.00  0.00    -0.234 N 
HETATM    5  N   UNK N   1      19.991  19.248   1.719  0.00  0.00    -0.024 N 
HETATM    6  C   UNK N   1      20.588  20.519   1.482  0.00  0.00     0.683 C 
HETATM    7  N   UNK N   1      20.460  21.068   0.331  0.00  0.00    -0.234 N 
ATOM      8  HN  UNK N   1      19.935  20.595  -0.404  1.00  0.00     0.174 HD
HETATM    9  N   UNK N   1      21.319  21.187   2.491  0.00  0.00    -0.234 N 
HETATM   10  H   UNK N   1      18.996  17.021   2.273  0.00  0.00     0.174 HD
HETATM   11  H   UNK N   1      20.784  18.545   4.906  0.00  0.00     0.174 HD
HETATM   12  H   UNK N   1      21.197  19.930   4.001  0.00  0.00     0.174 HD
HETATM   13  H   UNK N   1      19.494  18.832   0.978  0.00  0.00     0.203 HD
HETATM   14  H   UNK N   1      20.870  21.947   0.158  0.00  0.00     0.174 HD
HETATM   15  H   UNK N   1      21.423  20.774   3.379  0.00  0.00     0.174 HD
HETATM   16  H   UNK N   1      21.723  22.065   2.306  0.00  0.00     0.174 HD
ENDROOT
TORSDOF 0
ENDMDL
MODEL 5
REMARK VINA RESULT:      -3.9     10.214     11.686
REMARK  0 active torsions:
REMARK  status: ('A' for Active; 'I' for Inactive)
REMARK       I    between atoms: C_1  and  N_4 
REMARK       I    between atoms: C_1  and  N_5 
REMARK       I    between atoms: N_5  and  C_6 
REMARK       I    between atoms: C_6  and  N_9 
ROOT
HETATM    1  C   UNK N   1      20.579  20.271   2.116  0.00  0.00     0.683 C 
HETATM    2  N   UNK N   1      21.060  21.364   2.578  0.00  0.00    -0.234 N 
ATOM      3  HN  UNK N   1      21.355  22.102   1.938  1.00  0.00     0.174 HD
HETATM    4  N   UNK N   1      20.463  20.102   0.717  0.00  0.00    -0.234 N 
HETATM    5  N   UNK N   1      20.171  19.250   3.020  0.00  0.00    -0.024 N 
HETATM    6  C   UNK N   1      19.623  17.993   2.637  0.00  0.00     0.683 C 
HETATM    7  N   UNK N   1      19.291  17.150   3.543  0.00  0.00    -0.234 N 
ATOM      8  HN  UNK N   1      19.421  17.382   4.527  1.00  0.00     0.174 HD
HETATM    9  N   UNK N   1      19.437  17.657   1.277  0.00  0.00    -0.234 N 
HETATM   10  H   UNK N   1      21.145  21.492   3.550  0.00  0.00     0.174 HD
HETATM   11  H   UNK N   1      20.751  20.821   0.109  0.00  0.00     0.174 HD
HETATM   12  H   UNK N   1      20.095  19.266   0.351  0.00  0.00     0.174 HD
HETATM   13  H   UNK N   1      20.277  19.427   3.983  0.00  0.00     0.203 HD
HETATM   14  H   UNK N   1      18.911  16.278   3.287  0.00  0.00     0.174 HD
HETATM   15  H   UNK N   1      19.688  18.298   0.572  0.00  0.00     0.174 HD
HETATM   16  H   UNK N   1      19.056  16.783   1.033  0.00  0.00     0.174 HD
ENDROOT
TORSDOF 0
ENDMDL
MODEL 6
REMARK VINA RESULT:      -3.8     10.958     12.307
REMARK  0 active torsions:
REMARK  status: ('A' for Active; 'I' for Inactive)
REMARK       I    between atoms: C_1  and  N_4 
REMARK       I    between atoms: C_1  and  N_5 
REMARK       I    between atoms: N_5  and  C_6 
REMARK       I    between atoms: C_6  and  N_9 
ROOT
HETATM    1  C   UNK N   1      35.048  16.067  11.084  0.00  0.00     0.683 C 
HETATM    2  N   UNK N   1      35.228  17.250  10.629  0.00  0.00    -0.234 N 
ATOM      3  HN  UNK N   1      34.492  17.706  10.089  1.00  0.00     0.174 HD
HETATM    4  N   UNK N   1      33.824  15.406  10.830  0.00  0.00    -0.234 N 
HETATM    5  N   UNK N   1      36.083  15.443  11.836  0.00  0.00    -0.024 N 
HETATM    6  C   UNK N   1      36.010  14.136  12.395  0.00  0.00     0.683 C 
HETATM    7  N   UNK N   1      37.008  13.677  13.055  0.00  0.00    -0.234 N 
ATOM      8  HN  UNK N   1      37.845  14.247  13.175  1.00  0.00     0.174 HD
HETATM    9  N   UNK N   1      34.857  13.333  12.238  0.00  0.00    -0.234 N 
HETATM   10  H   UNK N   1      36.076  17.719  10.800  0.00  0.00     0.174 HD
HETATM   11  H   UNK N   1      33.121  15.856  10.308  0.00  0.00     0.174 HD
HETATM   12  H   UNK N   1      33.676  14.496  11.176  0.00  0.00     0.174 HD
HETATM   13  H   UNK N   1      36.913  15.954  11.979  0.00  0.00     0.203 HD
HETATM   14  H   UNK N   1      36.967  12.774  13.445  0.00  0.00     0.174 HD
HETATM   15  H   UNK N   1      34.084  13.675  11.733  0.00  0.00     0.174 HD
HETATM   16  H   UNK N   1      34.827  12.432  12.633  0.00  0.00     0.174 HD
ENDROOT
TORSDOF 0
ENDMDL
MODEL 7
REMARK VINA RESULT:      -3.8     10.942     12.173
REMARK  0 active torsions:
REMARK  status: ('A' for Active; 'I' for Inactive)
REMARK       I    between atoms: C_1  and  N_4 
REMARK       I    between atoms: C_1  and  N_5 
REMARK       I    between atoms: N_5  and  C_6 
REMARK       I    between atoms: C_6  and  N_9 
ROOT
HETATM    1  C   UNK N   1      36.006  14.110  12.447  0.00  0.00     0.683 C 
HETATM    2  N   UNK N   1      37.003  13.663  13.114  0.00  0.00    -0.234 N 
ATOM      3  HN  UNK N   1      36.964  12.731  13.526  1.00  0.00     0.174 HD
HETATM    4  N   UNK N   1      34.858  13.301  12.291  0.00  0.00    -0.234 N 
HETATM    5  N   UNK N   1      36.076  15.413  11.877  0.00  0.00    -0.024 N 
HETATM    6  C   UNK N   1      35.040  16.026  11.115  0.00  0.00     0.683 C 
HETATM    7  N   UNK N   1      35.216  17.207  10.651  0.00  0.00    -0.234 N 
ATOM      8  HN  UNK N   1      36.092  17.698  10.828  1.00  0.00     0.174 HD
HETATM    9  N   UNK N   1      33.821  15.357  10.862  0.00  0.00    -0.234 N 
HETATM   10  H   UNK N   1      37.808  14.218  13.228  0.00  0.00     0.174 HD
HETATM   11  H   UNK N   1      34.831  12.403  12.694  0.00  0.00     0.174 HD
HETATM   12  H   UNK N   1      34.086  13.635  11.780  0.00  0.00     0.174 HD
HETATM   13  H   UNK N   1      36.903  15.928  12.020  0.00  0.00     0.203 HD
HETATM   14  H   UNK N   1      34.506  17.638  10.123  0.00  0.00     0.174 HD
HETATM   15  H   UNK N   1      33.675  14.449  11.214  0.00  0.00     0.174 HD
HETATM   16  H   UNK N   1      33.118  15.798  10.333  0.00  0.00     0.174 HD
ENDROOT
TORSDOF 0
ENDMDL
MODEL 8
REMARK VINA RESULT:      -3.6      0.966      1.952
REMARK  0 active torsions:
REMARK  status: ('A' for Active; 'I' for Inactive)
REMARK       I    between atoms: C_1  and  N_4 
REMARK       I    between atoms: C_1  and  N_5 
REMARK       I    between atoms: N_5  and  C_6 
REMARK       I    between atoms: C_6  and  N_9 
ROOT
HETATM    1  C   UNK N   1      22.081  12.282  10.668  0.00  0.00     0.683 C 
HETATM    2  N   UNK N   1      21.251  11.907  11.568  0.00  0.00    -0.234 N 
ATOM      3  HN  UNK N   1      20.292  11.674  11.312  1.00  0.00     0.174 HD
HETATM    4  N   UNK N   1      21.652  12.368   9.324  0.00  0.00    -0.234 N 
HETATM    5  N   UNK N   1      23.417  12.604  11.040  0.00  0.00    -0.024 N 
HETATM    6  C   UNK N   1      24.433  13.032  10.140  0.00  0.00     0.683 C 
HETATM    7  N   UNK N   1      25.603  13.294  10.591  0.00  0.00    -0.234 N 
ATOM      8  HN  UNK N   1      25.799  13.196  11.587  1.00  0.00     0.174 HD
HETATM    9  N   UNK N   1      24.177  13.172   8.756  0.00  0.00    -0.234 N 
HETATM   10  H   UNK N   1      21.539  11.844  12.507  0.00  0.00     0.174 HD
HETATM   11  H   UNK N   1      20.724  12.140   9.088  0.00  0.00     0.174 HD
HETATM   12  H   UNK N   1      22.282  12.654   8.624  0.00  0.00     0.174 HD
HETATM   13  H   UNK N   1      23.655  12.525  11.992  0.00  0.00     0.203 HD
HETATM   14  H   UNK N   1      26.312  13.591   9.976  0.00  0.00     0.174 HD
HETATM   15  H   UNK N   1      23.281  12.973   8.399  0.00  0.00     0.174 HD
HETATM   16  H   UNK N   1      24.894  13.469   8.151  0.00  0.00     0.174 HD
ENDROOT
TORSDOF 0
ENDMDL
MODEL 9
REMARK VINA RESULT:      -3.6     23.494     25.270
REMARK  0 active torsions:
REMARK  status: ('A' for Active; 'I' for Inactive)
REMARK       I    between atoms: C_1  and  N_4 
REMARK       I    between atoms: C_1  and  N_5 
REMARK       I    between atoms: N_5  and  C_6 
REMARK       I    between atoms: C_6  and  N_9 
ROOT
HETATM    1  C   UNK N   1      45.519  24.600   2.064  0.00  0.00     0.683 C 
HETATM    2  N   UNK N   1      46.692  25.020   1.769  0.00  0.00    -0.234 N 
ATOM      3  HN  UNK N   1      46.817  25.698   1.018  1.00  0.00     0.174 HD
HETATM    4  N   UNK N   1      44.407  25.085   1.340  0.00  0.00    -0.234 N 
HETATM    5  N   UNK N   1      45.361  23.653   3.116  0.00  0.00    -0.024 N 
HETATM    6  C   UNK N   1      44.116  23.109   3.542  0.00  0.00     0.683 C 
HETATM    7  N   UNK N   1      44.096  22.261   4.502  0.00  0.00    -0.234 N 
ATOM      8  HN  UNK N   1      44.966  21.983   4.954  1.00  0.00     0.174 HD
HETATM    9  N   UNK N   1      42.901  23.485   2.925  0.00  0.00    -0.234 N 
HETATM   10  H   UNK N   1      47.474  24.688   2.268  0.00  0.00     0.174 HD
HETATM   11  H   UNK N   1      44.539  25.740   0.616  0.00  0.00     0.174 HD
HETATM   12  H   UNK N   1      43.501  24.769   1.559  0.00  0.00     0.174 HD
HETATM   13  H   UNK N   1      46.174  23.353   3.584  0.00  0.00     0.203 HD
HETATM   14  H   UNK N   1      43.240  21.879   4.803  0.00  0.00     0.174 HD
HETATM   15  H   UNK N   1      42.904  24.136   2.186  0.00  0.00     0.174 HD
HETATM   16  H   UNK N   1      42.051  23.097   3.235  0.00  0.00     0.174 HD
ENDROOT
TORSDOF 0
ENDMDL
