MODEL 1
REMARK VINA RESULT:      -8.6      0.000      0.000
REMARK  5 active torsions:
REMARK  status: ('A' for Active; 'I' for Inactive)
REMARK    1  A    between atoms: C_2  and  N_3 
REMARK    2  A    between atoms: N_3  and  C_4 
REMARK    3  A    between atoms: C_4  and  C_5 
REMARK    4  A    between atoms: C_10  and  C_13 
REMARK    5  A    between atoms: C_19  and  C_23 
ROOT
HETATM    1  C   UNK N   1      27.508  16.668   6.524  0.00  0.00    -0.023 A 
HETATM    2  C   UNK N   1      27.617  16.931   5.122  0.00  0.00     0.014 A 
HETATM    3  C   UNK N   1      26.735  16.300   4.194  0.00  0.00     0.033 A 
HETATM    4  C   UNK N   1      25.777  15.418   4.712  0.00  0.00     0.060 A 
HETATM    5  C   UNK N   1      25.700  15.184   6.034  0.00  0.00     0.025 A 
HETATM    6  C   UNK N   1      26.528  15.778   6.947  0.00  0.00     0.028 A 
HETATM    7  C   UNK N   1      24.675  14.313   6.221  0.00  0.00     0.104 A 
HETATM    8  N   UNK N   1      24.135  14.026   5.012  0.00  0.00    -0.296 N 
ATOM      9  HN  UNK N   1      23.346  13.403   4.841  1.00  0.00     0.187 HD
HETATM   10  N   UNK N   1      24.819  14.704   4.081  0.00  0.00    -0.299 N 
HETATM   11  H   UNK N   1      24.654  14.685   3.111  0.00  0.00     0.187 HD
ENDROOT
BRANCH   1  12
HETATM   12  C   UNK N   1      28.425  17.271   7.550  0.00  0.00    -0.004 A 
HETATM   13  C   UNK N   1      27.869  17.947   8.644  0.00  0.00     0.100 A 
HETATM   14  N   UNK N   1      28.664  18.539   9.575  0.00  0.00    -0.374 N 
HETATM   15  C   UNK N   1      30.019  18.516   9.484  0.00  0.00     0.096 A 
ATOM     16  HN  UNK N   1      28.229  19.015  10.366  1.00  0.00     0.164 HD
HETATM   17  C   UNK N   1      30.642  17.858   8.425  0.00  0.00    -0.019 A 
HETATM   18  C   UNK N   1      29.856  17.222   7.454  0.00  0.00    -0.040 A 
HETATM   19  C   UNK N   1      30.577  16.518   6.343  0.00  0.00     0.050 C 
BRANCH  17  20
HETATM   20  C   UNK N   1      32.139  17.882   8.298  0.00  0.00     0.154 C 
BRANCH  20  21
HETATM   21  N   UNK N   1      32.760  16.872   9.138  0.00  0.00    -0.418 N 
HETATM   22  H   UNK N   1      32.288  16.113   9.628  0.00  0.00     0.153 HD
BRANCH  21  23
HETATM   23  C   UNK N   1      34.187  17.158   9.144  0.00  0.00     0.109 C 
HETATM   24  C   UNK N   1      34.503  18.268   8.159  0.00  0.00     0.026 C 
ENDBRANCH  21  23
ENDBRANCH  20  21
ENDBRANCH  17  20
ENDBRANCH   1  12
BRANCH   7  25
HETATM   25  C   UNK N   1      24.260  13.843   7.558  0.00  0.00     0.136 A 
HETATM   26  N   UNK N   1      25.058  13.254   8.488  0.00  0.00    -0.339 N 
HETATM   27  C   UNK N   1      24.197  12.935   9.478  0.00  0.00     0.066 A 
HETATM   28  H   UNK N   1      26.030  13.099   8.449  0.00  0.00     0.167 HD
HETATM   29  C   UNK N   1      24.453  12.275  10.679  0.00  0.00     0.074 A 
HETATM   30  C   UNK N   1      22.942  13.332   9.143  0.00  0.00     0.100 A 
HETATM   31  C   UNK N   1      23.355  12.036  11.540  0.00  0.00     0.121 A 
HETATM   32  C   UNK N   1      22.054  12.463  11.182  0.00  0.00     0.087 A 
HETATM   33  F   UNK N   1      23.542  11.384  12.710  0.00  0.00    -0.206 F 
HETATM   34  C   UNK N   1      21.841  13.124   9.964  0.00  0.00     0.148 A 
HETATM   35  F   UNK N   1      20.601  13.534   9.599  0.00  0.00    -0.203 F 
HETATM   36  N   UNK N   1      22.961  13.903   7.944  0.00  0.00    -0.336 N 
ATOM     37  HN  UNK N   1      22.175  14.299   7.429  1.00  0.00     0.168 HD
ENDBRANCH   7  25
TORSDOF 5
ENDMDL
MODEL 2
REMARK VINA RESULT:      -8.5      3.440      4.401
REMARK  5 active torsions:
REMARK  status: ('A' for Active; 'I' for Inactive)
REMARK    1  A    between atoms: C_2  and  N_3 
REMARK    2  A    between atoms: N_3  and  C_4 
REMARK    3  A    between atoms: C_4  and  C_5 
REMARK    4  A    between atoms: C_10  and  C_13 
REMARK    5  A    between atoms: C_19  and  C_23 
ROOT
HETATM    1  C   UNK N   1      26.805  19.030   4.789  0.00  0.00    -0.023 A 
HETATM    2  C   UNK N   1      27.005  20.020   3.775  0.00  0.00     0.014 A 
HETATM    3  C   UNK N   1      25.900  20.530   3.031  0.00  0.00     0.033 A 
HETATM    4  C   UNK N   1      24.630  20.020   3.329  0.00  0.00     0.060 A 
HETATM    5  C   UNK N   1      24.470  19.086   4.284  0.00  0.00     0.025 A 
HETATM    6  C   UNK N   1      25.509  18.582   5.017  0.00  0.00     0.028 A 
HETATM    7  C   UNK N   1      23.141  18.813   4.350  0.00  0.00     0.104 A 
HETATM    8  N   UNK N   1      22.502  19.585   3.438  0.00  0.00    -0.296 N 
ATOM      9  HN  UNK N   1      21.498  19.600   3.263  1.00  0.00     0.187 HD
HETATM   10  N   UNK N   1      23.423  20.326   2.805  0.00  0.00    -0.299 N 
HETATM   11  H   UNK N   1      23.251  20.975   2.086  0.00  0.00     0.187 HD
ENDROOT
BRANCH   1  12
HETATM   12  C   UNK N   1      27.927  18.425   5.585  0.00  0.00    -0.004 A 
HETATM   13  C   UNK N   1      28.089  18.802   6.924  0.00  0.00     0.100 A 
HETATM   14  N   UNK N   1      29.115  18.307   7.668  0.00  0.00    -0.374 N 
HETATM   15  C   UNK N   1      30.027  17.443   7.152  0.00  0.00     0.096 A 
ATOM     16  HN  UNK N   1      29.200  18.592   8.644  1.00  0.00     0.164 HD
HETATM   17  C   UNK N   1      29.925  17.021   5.828  0.00  0.00    -0.019 A 
HETATM   18  C   UNK N   1      28.872  17.498   5.034  0.00  0.00    -0.040 A 
HETATM   19  C   UNK N   1      28.803  17.001   3.620  0.00  0.00     0.050 C 
BRANCH  17  20
HETATM   20  C   UNK N   1      30.968  16.109   5.245  0.00  0.00     0.154 C 
BRANCH  20  21
HETATM   21  N   UNK N   1      32.303  16.661   5.401  0.00  0.00    -0.418 N 
HETATM   22  H   UNK N   1      32.967  16.448   6.145  0.00  0.00     0.153 HD
BRANCH  21  23
HETATM   23  C   UNK N   1      32.506  17.577   4.288  0.00  0.00     0.109 C 
HETATM   24  C   UNK N   1      32.556  16.809   2.981  0.00  0.00     0.026 C 
ENDBRANCH  21  23
ENDBRANCH  20  21
ENDBRANCH  17  20
ENDBRANCH   1  12
BRANCH   7  25
HETATM   25  C   UNK N   1      22.570  17.853   5.315  0.00  0.00     0.136 A 
HETATM   26  N   UNK N   1      22.818  16.517   5.364  0.00  0.00    -0.339 N 
HETATM   27  C   UNK N   1      21.997  16.085   6.345  0.00  0.00     0.066 A 
HETATM   28  H   UNK N   1      23.445  15.992   4.816  0.00  0.00     0.167 HD
HETATM   29  C   UNK N   1      21.800  14.786   6.811  0.00  0.00     0.074 A 
HETATM   30  C   UNK N   1      21.301  17.132   6.858  0.00  0.00     0.100 A 
HETATM   31  C   UNK N   1      20.849  14.598   7.842  0.00  0.00     0.121 A 
HETATM   32  C   UNK N   1      20.137  15.700   8.373  0.00  0.00     0.087 A 
HETATM   33  F   UNK N   1      20.605  13.357   8.320  0.00  0.00    -0.206 F 
HETATM   34  C   UNK N   1      20.367  16.991   7.877  0.00  0.00     0.148 A 
HETATM   35  F   UNK N   1      19.690  18.059   8.366  0.00  0.00    -0.203 F 
HETATM   36  N   UNK N   1      21.646  18.248   6.226  0.00  0.00    -0.336 N 
ATOM     37  HN  UNK N   1      21.296  19.193   6.390  1.00  0.00     0.168 HD
ENDBRANCH   7  25
TORSDOF 5
ENDMDL
MODEL 3
REMARK VINA RESULT:      -8.3      3.126      4.203
REMARK  5 active torsions:
REMARK  status: ('A' for Active; 'I' for Inactive)
REMARK    1  A    between atoms: C_2  and  N_3 
REMARK    2  A    between atoms: N_3  and  C_4 
REMARK    3  A    between atoms: C_4  and  C_5 
REMARK    4  A    between atoms: C_10  and  C_13 
REMARK    5  A    between atoms: C_19  and  C_23 
ROOT
HETATM    1  C   UNK N   1      27.218  18.616   4.704  0.00  0.00    -0.023 A 
HETATM    2  C   UNK N   1      27.443  19.804   3.939  0.00  0.00     0.014 A 
HETATM    3  C   UNK N   1      26.349  20.500   3.341  0.00  0.00     0.033 A 
HETATM    4  C   UNK N   1      25.066  19.970   3.529  0.00  0.00     0.060 A 
HETATM    5  C   UNK N   1      24.883  18.849   4.249  0.00  0.00     0.025 A 
HETATM    6  C   UNK N   1      25.910  18.163   4.838  0.00  0.00     0.028 A 
HETATM    7  C   UNK N   1      23.547  18.605   4.265  0.00  0.00     0.104 A 
HETATM    8  N   UNK N   1      22.928  19.580   3.559  0.00  0.00    -0.296 N 
ATOM      9  HN  UNK N   1      21.924  19.662   3.402  1.00  0.00     0.187 HD
HETATM   10  N   UNK N   1      23.867  20.420   3.100  0.00  0.00    -0.299 N 
HETATM   11  H   UNK N   1      23.710  21.220   2.549  0.00  0.00     0.187 HD
ENDROOT
BRANCH   1  12
HETATM   12  C   UNK N   1      28.325  17.816   5.330  0.00  0.00    -0.004 A 
HETATM   13  C   UNK N   1      28.937  16.802   4.581  0.00  0.00     0.100 A 
HETATM   14  N   UNK N   1      29.917  16.030   5.123  0.00  0.00    -0.374 N 
HETATM   15  C   UNK N   1      30.334  16.193   6.406  0.00  0.00     0.096 A 
ATOM     16  HN  UNK N   1      30.351  15.307   4.549  1.00  0.00     0.164 HD
HETATM   17  C   UNK N   1      29.773  17.183   7.208  0.00  0.00    -0.019 A 
HETATM   18  C   UNK N   1      28.771  18.011   6.680  0.00  0.00    -0.040 A 
HETATM   19  C   UNK N   1      28.210  19.068   7.583  0.00  0.00     0.050 C 
BRANCH  17  20
HETATM   20  C   UNK N   1      30.198  17.323   8.643  0.00  0.00     0.154 C 
BRANCH  20  21
HETATM   21  N   UNK N   1      31.610  17.026   8.810  0.00  0.00    -0.418 N 
HETATM   22  H   UNK N   1      32.013  16.155   9.155  0.00  0.00     0.153 HD
BRANCH  21  23
HETATM   23  C   UNK N   1      32.337  18.215   8.391  0.00  0.00     0.109 C 
HETATM   24  C   UNK N   1      33.801  17.883   8.172  0.00  0.00     0.026 C 
ENDBRANCH  21  23
ENDBRANCH  20  21
ENDBRANCH  17  20
ENDBRANCH   1  12
BRANCH   7  25
HETATM   25  C   UNK N   1      22.953  17.467   4.994  0.00  0.00     0.136 A 
HETATM   26  N   UNK N   1      22.934  16.170   4.585  0.00  0.00    -0.339 N 
HETATM   27  C   UNK N   1      22.205  15.553   5.540  0.00  0.00     0.066 A 
HETATM   28  H   UNK N   1      23.353  15.776   3.786  0.00  0.00     0.167 HD
HETATM   29  C   UNK N   1      21.829  14.214   5.623  0.00  0.00     0.074 A 
HETATM   30  C   UNK N   1      21.819  16.456   6.479  0.00  0.00     0.100 A 
HETATM   31  C   UNK N   1      21.030  13.827   6.725  0.00  0.00     0.121 A 
HETATM   32  C   UNK N   1      20.641  14.777   7.701  0.00  0.00     0.087 A 
HETATM   33  F   UNK N   1      20.621  12.544   6.848  0.00  0.00    -0.206 F 
HETATM   34  C   UNK N   1      21.043  16.114   7.579  0.00  0.00     0.148 A 
HETATM   35  F   UNK N   1      20.676  17.041   8.499  0.00  0.00    -0.203 F 
HETATM   36  N   UNK N   1      22.277  17.660   6.154  0.00  0.00    -0.336 N 
ATOM     37  HN  UNK N   1      22.151  18.534   6.664  1.00  0.00     0.168 HD
ENDBRANCH   7  25
TORSDOF 5
ENDMDL
MODEL 4
REMARK VINA RESULT:      -8.2      5.969     10.521
REMARK  5 active torsions:
REMARK  status: ('A' for Active; 'I' for Inactive)
REMARK    1  A    between atoms: C_2  and  N_3 
REMARK    2  A    between atoms: N_3  and  C_4 
REMARK    3  A    between atoms: C_4  and  C_5 
REMARK    4  A    between atoms: C_10  and  C_13 
REMARK    5  A    between atoms: C_19  and  C_23 
ROOT
HETATM    1  C   UNK N   1      35.367  15.006   8.276  0.00  0.00    -0.023 A 
HETATM    2  C   UNK N   1      36.030  14.552   7.091  0.00  0.00     0.014 A 
HETATM    3  C   UNK N   1      36.994  13.502   7.156  0.00  0.00     0.033 A 
HETATM    4  C   UNK N   1      37.264  12.949   8.414  0.00  0.00     0.060 A 
HETATM    5  C   UNK N   1      36.631  13.398   9.513  0.00  0.00     0.025 A 
HETATM    6  C   UNK N   1      35.699  14.398   9.482  0.00  0.00     0.028 A 
HETATM    7  C   UNK N   1      37.087  12.661  10.559  0.00  0.00     0.104 A 
HETATM    8  N   UNK N   1      37.991  11.768  10.088  0.00  0.00    -0.296 N 
ATOM      9  HN  UNK N   1      38.497  11.078  10.643  1.00  0.00     0.187 HD
HETATM   10  N   UNK N   1      38.103  11.951   8.765  0.00  0.00    -0.299 N 
HETATM   11  H   UNK N   1      38.693  11.448   8.158  0.00  0.00     0.187 HD
ENDROOT
BRANCH   1  12
HETATM   12  C   UNK N   1      34.369  16.129   8.285  0.00  0.00    -0.004 A 
HETATM   13  C   UNK N   1      34.834  17.450   8.267  0.00  0.00     0.100 A 
HETATM   14  N   UNK N   1      33.965  18.495   8.313  0.00  0.00    -0.374 N 
HETATM   15  C   UNK N   1      32.621  18.311   8.391  0.00  0.00     0.096 A 
ATOM     16  HN  UNK N   1      34.333  19.446   8.286  1.00  0.00     0.164 HD
HETATM   17  C   UNK N   1      32.087  17.024   8.410  0.00  0.00    -0.019 A 
HETATM   18  C   UNK N   1      32.951  15.921   8.349  0.00  0.00    -0.040 A 
HETATM   19  C   UNK N   1      32.323  14.559   8.359  0.00  0.00     0.050 C 
BRANCH  17  20
HETATM   20  C   UNK N   1      30.605  16.825   8.554  0.00  0.00     0.154 C 
BRANCH  20  21
HETATM   21  N   UNK N   1      30.055  17.663   9.606  0.00  0.00    -0.418 N 
HETATM   22  H   UNK N   1      30.580  18.164  10.322  0.00  0.00     0.153 HD
BRANCH  21  23
HETATM   23  C   UNK N   1      28.610  17.644   9.438  0.00  0.00     0.109 C 
HETATM   24  C   UNK N   1      28.188  18.688   8.421  0.00  0.00     0.026 C 
ENDBRANCH  21  23
ENDBRANCH  20  21
ENDBRANCH  17  20
ENDBRANCH   1  12
BRANCH   7  25
HETATM   25  C   UNK N   1      36.593  12.841  11.938  0.00  0.00     0.136 A 
HETATM   26  N   UNK N   1      37.137  13.646  12.890  0.00  0.00    -0.339 N 
HETATM   27  C   UNK N   1      36.386  13.386  13.982  0.00  0.00     0.066 A 
HETATM   28  H   UNK N   1      37.895  14.268  12.803  0.00  0.00     0.167 HD
HETATM   29  C   UNK N   1      36.510  13.903  15.271  0.00  0.00     0.074 A 
HETATM   30  C   UNK N   1      35.431  12.469  13.677  0.00  0.00     0.100 A 
HETATM   31  C   UNK N   1      35.602  13.438  16.251  0.00  0.00     0.121 A 
HETATM   32  C   UNK N   1      34.606  12.489  15.917  0.00  0.00     0.087 A 
HETATM   33  F   UNK N   1      35.687  13.892  17.522  0.00  0.00    -0.206 F 
HETATM   34  C   UNK N   1      34.515  11.996  14.608  0.00  0.00     0.148 A 
HETATM   35  F   UNK N   1      33.573  11.080  14.269  0.00  0.00    -0.203 F 
HETATM   36  N   UNK N   1      35.544  12.116  12.402  0.00  0.00    -0.336 N 
ATOM     37  HN  UNK N   1      34.970  11.449  11.885  1.00  0.00     0.168 HD
ENDBRANCH   7  25
TORSDOF 5
ENDMDL
MODEL 5
REMARK VINA RESULT:      -8.1      3.679      4.840
REMARK  5 active torsions:
REMARK  status: ('A' for Active; 'I' for Inactive)
REMARK    1  A    between atoms: C_2  and  N_3 
REMARK    2  A    between atoms: N_3  and  C_4 
REMARK    3  A    between atoms: C_4  and  C_5 
REMARK    4  A    between atoms: C_10  and  C_13 
REMARK    5  A    between atoms: C_19  and  C_23 
ROOT
HETATM    1  C   UNK N   1      25.549  18.820   3.898  0.00  0.00    -0.023 A 
HETATM    2  C   UNK N   1      25.592  19.909   2.970  0.00  0.00     0.014 A 
HETATM    3  C   UNK N   1      24.390  20.559   2.558  0.00  0.00     0.033 A 
HETATM    4  C   UNK N   1      23.184  20.085   3.091  0.00  0.00     0.060 A 
HETATM    5  C   UNK N   1      23.172  19.057   3.958  0.00  0.00     0.025 A 
HETATM    6  C   UNK N   1      24.307  18.417   4.375  0.00  0.00     0.028 A 
HETATM    7  C   UNK N   1      21.874  18.848   4.302  0.00  0.00     0.104 A 
HETATM    8  N   UNK N   1      21.109  19.752   3.646  0.00  0.00    -0.296 N 
ATOM      9  HN  UNK N   1      20.095  19.840   3.712  1.00  0.00     0.187 HD
HETATM   10  N   UNK N   1      21.918  20.512   2.894  0.00  0.00    -0.299 N 
HETATM   11  H   UNK N   1      21.639  21.248   2.304  0.00  0.00     0.187 HD
ENDROOT
BRANCH   1  12
HETATM   12  C   UNK N   1      26.771  18.070   4.347  0.00  0.00    -0.004 A 
HETATM   13  C   UNK N   1      27.178  16.942   3.622  0.00  0.00     0.100 A 
HETATM   14  N   UNK N   1      28.256  16.212   4.016  0.00  0.00    -0.374 N 
HETATM   15  C   UNK N   1      28.973  16.529   5.125  0.00  0.00     0.096 A 
ATOM     16  HN  UNK N   1      28.535  15.402   3.462  1.00  0.00     0.164 HD
HETATM   17  C   UNK N   1      28.628  17.640   5.893  0.00  0.00    -0.019 A 
HETATM   18  C   UNK N   1      27.532  18.427   5.509  0.00  0.00    -0.040 A 
HETATM   19  C   UNK N   1      27.213  19.617   6.363  0.00  0.00     0.050 C 
BRANCH  17  20
HETATM   20  C   UNK N   1      29.389  17.955   7.149  0.00  0.00     0.154 C 
BRANCH  20  21
HETATM   21  N   UNK N   1      30.699  17.325   7.150  0.00  0.00    -0.418 N 
HETATM   22  H   UNK N   1      31.098  16.748   6.409  0.00  0.00     0.153 HD
BRANCH  21  23
HETATM   23  C   UNK N   1      31.327  17.675   8.415  0.00  0.00     0.109 C 
HETATM   24  C   UNK N   1      30.445  18.637   9.189  0.00  0.00     0.026 C 
ENDBRANCH  21  23
ENDBRANCH  20  21
ENDBRANCH  17  20
ENDBRANCH   1  12
BRANCH   7  25
HETATM   25  C   UNK N   1      21.463  17.813   5.272  0.00  0.00     0.136 A 
HETATM   26  N   UNK N   1      21.169  18.012   6.585  0.00  0.00    -0.339 N 
HETATM   27  C   UNK N   1      20.948  16.762   7.046  0.00  0.00     0.066 A 
HETATM   28  H   UNK N   1      21.127  18.862   7.079  0.00  0.00     0.167 HD
HETATM   29  C   UNK N   1      20.639  16.351   8.342  0.00  0.00     0.074 A 
HETATM   30  C   UNK N   1      21.098  15.865   6.036  0.00  0.00     0.100 A 
HETATM   31  C   UNK N   1      20.484  14.962   8.566  0.00  0.00     0.121 A 
HETATM   32  C   UNK N   1      20.634  14.040   7.503  0.00  0.00     0.087 A 
HETATM   33  F   UNK N   1      20.201  14.505   9.808  0.00  0.00    -0.206 F 
HETATM   34  C   UNK N   1      20.944  14.497   6.215  0.00  0.00     0.148 A 
HETATM   35  F   UNK N   1      21.100  13.629   5.184  0.00  0.00    -0.203 F 
HETATM   36  N   UNK N   1      21.420  16.505   4.918  0.00  0.00    -0.336 N 
ATOM     37  HN  UNK N   1      21.595  16.102   3.997  1.00  0.00     0.168 HD
ENDBRANCH   7  25
TORSDOF 5
ENDMDL
MODEL 6
REMARK VINA RESULT:      -8.0      4.222      8.311
REMARK  5 active torsions:
REMARK  status: ('A' for Active; 'I' for Inactive)
REMARK    1  A    between atoms: C_2  and  N_3 
REMARK    2  A    between atoms: N_3  and  C_4 
REMARK    3  A    between atoms: C_4  and  C_5 
REMARK    4  A    between atoms: C_10  and  C_13 
REMARK    5  A    between atoms: C_19  and  C_23 
ROOT
HETATM    1  C   UNK N   1      22.352  17.963   5.213  0.00  0.00    -0.023 A 
HETATM    2  C   UNK N   1      21.486  18.643   4.299  0.00  0.00     0.014 A 
HETATM    3  C   UNK N   1      22.014  19.570   3.352  0.00  0.00     0.033 A 
HETATM    4  C   UNK N   1      23.398  19.786   3.362  0.00  0.00     0.060 A 
HETATM    5  C   UNK N   1      24.189  19.138   4.235  0.00  0.00     0.025 A 
HETATM    6  C   UNK N   1      23.713  18.240   5.151  0.00  0.00     0.028 A 
HETATM    7  C   UNK N   1      25.463  19.540   3.986  0.00  0.00     0.104 A 
HETATM    8  N   UNK N   1      25.437  20.426   2.963  0.00  0.00    -0.296 N 
ATOM      9  HN  UNK N   1      26.245  20.894   2.553  1.00  0.00     0.187 HD
HETATM   10  N   UNK N   1      24.161  20.582   2.581  0.00  0.00    -0.299 N 
HETATM   11  H   UNK N   1      23.839  21.171   1.862  0.00  0.00     0.187 HD
ENDROOT
BRANCH   1  12
HETATM   12  C   UNK N   1      21.860  17.003   6.258  0.00  0.00    -0.004 A 
HETATM   13  C   UNK N   1      20.857  17.419   7.144  0.00  0.00     0.100 A 
HETATM   14  N   UNK N   1      20.410  16.594   8.128  0.00  0.00    -0.374 N 
HETATM   15  C   UNK N   1      20.917  15.347   8.307  0.00  0.00     0.096 A 
ATOM     16  HN  UNK N   1      19.671  16.922   8.750  1.00  0.00     0.164 HD
HETATM   17  C   UNK N   1      21.914  14.864   7.462  0.00  0.00    -0.019 A 
HETATM   18  C   UNK N   1      22.389  15.680   6.424  0.00  0.00    -0.040 A 
HETATM   19  C   UNK N   1      23.453  15.107   5.537  0.00  0.00     0.050 C 
BRANCH  17  20
HETATM   20  C   UNK N   1      22.511  13.506   7.697  0.00  0.00     0.154 C 
BRANCH  20  21
HETATM   21  N   UNK N   1      22.999  13.369   9.059  0.00  0.00    -0.418 N 
HETATM   22  H   UNK N   1      23.607  14.018   9.557  0.00  0.00     0.153 HD
BRANCH  21  23
HETATM   23  C   UNK N   1      22.451  12.122   9.573  0.00  0.00     0.109 C 
HETATM   24  C   UNK N   1      21.565  12.395  10.773  0.00  0.00     0.026 C 
ENDBRANCH  21  23
ENDBRANCH  20  21
ENDBRANCH  17  20
ENDBRANCH   1  12
BRANCH   7  25
HETATM   25  C   UNK N   1      26.626  19.013   4.728  0.00  0.00     0.136 A 
HETATM   26  N   UNK N   1      27.588  18.188   4.236  0.00  0.00    -0.339 N 
HETATM   27  C   UNK N   1      28.356  17.928   5.316  0.00  0.00     0.066 A 
HETATM   28  H   UNK N   1      27.698  17.860   3.314  0.00  0.00     0.167 HD
HETATM   29  C   UNK N   1      29.477  17.105   5.414  0.00  0.00     0.074 A 
HETATM   30  C   UNK N   1      27.865  18.585   6.399  0.00  0.00     0.100 A 
HETATM   31  C   UNK N   1      30.088  16.982   6.684  0.00  0.00     0.121 A 
HETATM   32  C   UNK N   1      29.571  17.679   7.802  0.00  0.00     0.087 A 
HETATM   33  F   UNK N   1      31.168  16.183   6.841  0.00  0.00    -0.206 F 
HETATM   34  C   UNK N   1      28.442  18.498   7.660  0.00  0.00     0.148 A 
HETATM   35  F   UNK N   1      27.926  19.169   8.720  0.00  0.00    -0.203 F 
HETATM   36  N   UNK N   1      26.782  19.270   6.051  0.00  0.00    -0.336 N 
ATOM     37  HN  UNK N   1      26.198  19.860   6.645  1.00  0.00     0.168 HD
ENDBRANCH   7  25
TORSDOF 5
ENDMDL
MODEL 7
REMARK VINA RESULT:      -8.0     14.629     16.612
REMARK  5 active torsions:
REMARK  status: ('A' for Active; 'I' for Inactive)
REMARK    1  A    between atoms: C_2  and  N_3 
REMARK    2  A    between atoms: N_3  and  C_4 
REMARK    3  A    between atoms: C_4  and  C_5 
REMARK    4  A    between atoms: C_10  and  C_13 
REMARK    5  A    between atoms: C_19  and  C_23 
ROOT
HETATM    1  C   UNK N   1      29.780  21.149  -6.242  0.00  0.00    -0.023 A 
HETATM    2  C   UNK N   1      29.588  20.119  -7.217  0.00  0.00     0.014 A 
HETATM    3  C   UNK N   1      28.498  20.185  -8.137  0.00  0.00     0.033 A 
HETATM    4  C   UNK N   1      27.635  21.284  -8.038  0.00  0.00     0.060 A 
HETATM    5  C   UNK N   1      27.836  22.236  -7.109  0.00  0.00     0.025 A 
HETATM    6  C   UNK N   1      28.873  22.203  -6.217  0.00  0.00     0.028 A 
HETATM    7  C   UNK N   1      26.857  23.163  -7.277  0.00  0.00     0.104 A 
HETATM    8  N   UNK N   1      26.072  22.771  -8.308  0.00  0.00    -0.296 N 
ATOM      9  HN  UNK N   1      25.260  23.272  -8.668  1.00  0.00     0.187 HD
HETATM   10  N   UNK N   1      26.550  21.608  -8.774  0.00  0.00    -0.299 N 
HETATM   11  H   UNK N   1      26.176  21.084  -9.518  0.00  0.00     0.187 HD
ENDROOT
BRANCH   1  12
HETATM   12  C   UNK N   1      30.883  21.125  -5.223  0.00  0.00    -0.004 A 
HETATM   13  C   UNK N   1      30.552  21.174  -3.862  0.00  0.00     0.100 A 
HETATM   14  N   UNK N   1      31.521  21.192  -2.909  0.00  0.00    -0.374 N 
HETATM   15  C   UNK N   1      32.842  21.177  -3.225  0.00  0.00     0.096 A 
ATOM     16  HN  UNK N   1      31.248  21.217  -1.926  1.00  0.00     0.164 HD
HETATM   17  C   UNK N   1      33.246  21.125  -4.558  0.00  0.00    -0.019 A 
HETATM   18  C   UNK N   1      32.275  21.089  -5.569  0.00  0.00    -0.040 A 
HETATM   19  C   UNK N   1      32.764  21.020  -6.985  0.00  0.00     0.050 C 
BRANCH  17  20
HETATM   20  C   UNK N   1      34.707  21.165  -4.905  0.00  0.00     0.154 C 
BRANCH  20  21
HETATM   21  N   UNK N   1      35.439  20.094  -4.251  0.00  0.00    -0.418 N 
HETATM   22  H   UNK N   1      35.969  20.161  -3.382  0.00  0.00     0.153 HD
BRANCH  21  23
HETATM   23  C   UNK N   1      35.270  18.909  -5.078  0.00  0.00     0.109 C 
HETATM   24  C   UNK N   1      34.626  17.796  -4.273  0.00  0.00     0.026 C 
ENDBRANCH  21  23
ENDBRANCH  20  21
ENDBRANCH  17  20
ENDBRANCH   1  12
BRANCH   7  25
HETATM   25  C   UNK N   1      26.768  24.386  -6.455  0.00  0.00     0.136 A 
HETATM   26  N   UNK N   1      27.680  24.810  -5.539  0.00  0.00    -0.339 N 
HETATM   27  C   UNK N   1      27.098  25.906  -5.006  0.00  0.00     0.066 A 
HETATM   28  H   UNK N   1      28.553  24.413  -5.319  0.00  0.00     0.167 HD
HETATM   29  C   UNK N   1      27.565  26.734  -3.987  0.00  0.00     0.074 A 
HETATM   30  C   UNK N   1      25.893  26.121  -5.596  0.00  0.00     0.100 A 
HETATM   31  C   UNK N   1      26.738  27.812  -3.591  0.00  0.00     0.121 A 
HETATM   32  C   UNK N   1      25.489  28.030  -4.220  0.00  0.00     0.087 A 
HETATM   33  F   UNK N   1      27.133  28.638  -2.595  0.00  0.00    -0.206 F 
HETATM   34  C   UNK N   1      25.058  27.173  -5.242  0.00  0.00     0.148 A 
HETATM   35  F   UNK N   1      23.861  27.359  -5.853  0.00  0.00    -0.203 F 
HETATM   36  N   UNK N   1      25.669  25.180  -6.506  0.00  0.00    -0.336 N 
ATOM     37  HN  UNK N   1      24.853  25.078  -7.111  1.00  0.00     0.168 HD
ENDBRANCH   7  25
TORSDOF 5
ENDMDL
MODEL 8
REMARK VINA RESULT:      -7.7      5.875      7.269
REMARK  5 active torsions:
REMARK  status: ('A' for Active; 'I' for Inactive)
REMARK    1  A    between atoms: C_2  and  N_3 
REMARK    2  A    between atoms: N_3  and  C_4 
REMARK    3  A    between atoms: C_4  and  C_5 
REMARK    4  A    between atoms: C_10  and  C_13 
REMARK    5  A    between atoms: C_19  and  C_23 
ROOT
HETATM    1  C   UNK N   1      33.144  15.564   6.645  0.00  0.00    -0.023 A 
HETATM    2  C   UNK N   1      33.646  14.450   5.900  0.00  0.00     0.014 A 
HETATM    3  C   UNK N   1      32.964  13.991   4.733  0.00  0.00     0.033 A 
HETATM    4  C   UNK N   1      31.794  14.666   4.361  0.00  0.00     0.060 A 
HETATM    5  C   UNK N   1      31.342  15.708   5.083  0.00  0.00     0.025 A 
HETATM    6  C   UNK N   1      31.976  16.174   6.202  0.00  0.00     0.028 A 
HETATM    7  C   UNK N   1      30.217  16.155   4.466  0.00  0.00     0.104 A 
HETATM    8  N   UNK N   1      29.996  15.385   3.373  0.00  0.00    -0.296 N 
ATOM      9  HN  UNK N   1      29.226  15.489   2.713  1.00  0.00     0.187 HD
HETATM   10  N   UNK N   1      30.967  14.464   3.313  0.00  0.00    -0.299 N 
HETATM   11  H   UNK N   1      31.061  13.763   2.627  0.00  0.00     0.187 HD
ENDROOT
BRANCH   1  12
HETATM   12  C   UNK N   1      33.792  16.077   7.900  0.00  0.00    -0.004 A 
HETATM   13  C   UNK N   1      34.264  17.396   7.931  0.00  0.00     0.100 A 
HETATM   14  N   UNK N   1      34.890  17.886   9.034  0.00  0.00    -0.374 N 
HETATM   15  C   UNK N   1      35.098  17.127  10.141  0.00  0.00     0.096 A 
ATOM     16  HN  UNK N   1      35.213  18.854   9.030  1.00  0.00     0.164 HD
HETATM   17  C   UNK N   1      34.653  15.808  10.183  0.00  0.00    -0.019 A 
HETATM   18  C   UNK N   1      33.988  15.271   9.070  0.00  0.00    -0.040 A 
HETATM   19  C   UNK N   1      33.519  13.850   9.175  0.00  0.00     0.050 C 
BRANCH  17  20
HETATM   20  C   UNK N   1      34.934  14.955  11.388  0.00  0.00     0.154 C 
BRANCH  20  21
HETATM   21  N   UNK N   1      36.351  14.937  11.707  0.00  0.00    -0.418 N 
HETATM   22  H   UNK N   1      36.964  15.746  11.803  0.00  0.00     0.153 HD
BRANCH  21  23
HETATM   23  C   UNK N   1      36.725  13.539  11.862  0.00  0.00     0.109 C 
HETATM   24  C   UNK N   1      37.006  12.920  10.505  0.00  0.00     0.026 C 
ENDBRANCH  21  23
ENDBRANCH  20  21
ENDBRANCH  17  20
ENDBRANCH   1  12
BRANCH   7  25
HETATM   25  C   UNK N   1      29.451  17.320   4.950  0.00  0.00     0.136 A 
HETATM   26  N   UNK N   1      29.196  17.633   6.250  0.00  0.00    -0.339 N 
HETATM   27  C   UNK N   1      28.394  18.715   6.157  0.00  0.00     0.066 A 
HETATM   28  H   UNK N   1      29.520  17.180   7.061  0.00  0.00     0.167 HD
HETATM   29  C   UNK N   1      27.792  19.446   7.179  0.00  0.00     0.074 A 
HETATM   30  C   UNK N   1      28.194  19.030   4.850  0.00  0.00     0.100 A 
HETATM   31  C   UNK N   1      26.965  20.532   6.806  0.00  0.00     0.121 A 
HETATM   32  C   UNK N   1      26.772  20.854   5.441  0.00  0.00     0.087 A 
HETATM   33  F   UNK N   1      26.340  21.265   7.756  0.00  0.00    -0.206 F 
HETATM   34  C   UNK N   1      27.398  20.093   4.444  0.00  0.00     0.148 A 
HETATM   35  F   UNK N   1      27.220  20.380   3.130  0.00  0.00    -0.203 F 
HETATM   36  N   UNK N   1      28.848  18.167   4.080  0.00  0.00    -0.336 N 
ATOM     37  HN  UNK N   1      28.889  18.147   3.060  1.00  0.00     0.168 HD
ENDBRANCH   7  25
TORSDOF 5
ENDMDL
MODEL 9
REMARK VINA RESULT:      -7.6      5.626      7.771
REMARK  5 active torsions:
REMARK  status: ('A' for Active; 'I' for Inactive)
REMARK    1  A    between atoms: C_2  and  N_3 
REMARK    2  A    between atoms: N_3  and  C_4 
REMARK    3  A    between atoms: C_4  and  C_5 
REMARK    4  A    between atoms: C_10  and  C_13 
REMARK    5  A    between atoms: C_19  and  C_23 
ROOT
HETATM    1  C   UNK N   1      34.333  15.622   6.645  0.00  0.00    -0.023 A 
HETATM    2  C   UNK N   1      35.154  14.852   5.761  0.00  0.00     0.014 A 
HETATM    3  C   UNK N   1      34.718  14.563   4.433  0.00  0.00     0.033 A 
HETATM    4  C   UNK N   1      33.466  15.055   4.043  0.00  0.00     0.060 A 
HETATM    5  C   UNK N   1      32.712  15.773   4.896  0.00  0.00     0.025 A 
HETATM    6  C   UNK N   1      33.105  16.069   6.172  0.00  0.00     0.028 A 
HETATM    7  C   UNK N   1      31.581  16.118   4.227  0.00  0.00     0.104 A 
HETATM    8  N   UNK N   1      31.657  15.611   2.973  0.00  0.00    -0.296 N 
ATOM      9  HN  UNK N   1      30.954  15.714   2.241  1.00  0.00     0.187 HD
HETATM   10  N   UNK N   1      32.818  14.951   2.862  0.00  0.00    -0.299 N 
HETATM   11  H   UNK N   1      33.141  14.475   2.064  0.00  0.00     0.187 HD
ENDROOT
BRANCH   1  12
HETATM   12  C   UNK N   1      34.714  15.932   8.065  0.00  0.00    -0.004 A 
HETATM   13  C   UNK N   1      34.519  17.231   8.552  0.00  0.00     0.100 A 
HETATM   14  N   UNK N   1      34.886  17.563   9.819  0.00  0.00    -0.374 N 
HETATM   15  C   UNK N   1      35.464  16.666  10.659  0.00  0.00     0.096 A 
ATOM     16  HN  UNK N   1      34.720  18.515  10.148  1.00  0.00     0.164 HD
HETATM   17  C   UNK N   1      35.685  15.355  10.244  0.00  0.00    -0.019 A 
HETATM   18  C   UNK N   1      35.306  14.970   8.949  0.00  0.00    -0.040 A 
HETATM   19  C   UNK N   1      35.556  13.544   8.559  0.00  0.00     0.050 C 
BRANCH  17  20
HETATM   20  C   UNK N   1      36.376  14.381  11.156  0.00  0.00     0.154 C 
BRANCH  20  21
HETATM   21  N   UNK N   1      36.440  14.883  12.519  0.00  0.00    -0.418 N 
HETATM   22  H   UNK N   1      36.915  15.728  12.835  0.00  0.00     0.153 HD
BRANCH  21  23
HETATM   23  C   UNK N   1      35.695  13.942  13.342  0.00  0.00     0.109 C 
HETATM   24  C   UNK N   1      36.493  13.589  14.584  0.00  0.00     0.026 C 
ENDBRANCH  21  23
ENDBRANCH  20  21
ENDBRANCH  17  20
ENDBRANCH   1  12
BRANCH   7  25
HETATM   25  C   UNK N   1      30.518  16.946   4.830  0.00  0.00     0.136 A 
HETATM   26  N   UNK N   1      29.750  17.865   4.186  0.00  0.00    -0.339 N 
HETATM   27  C   UNK N   1      29.012  18.404   5.180  0.00  0.00     0.066 A 
HETATM   28  H   UNK N   1      29.735  18.083   3.226  0.00  0.00     0.167 HD
HETATM   29  C   UNK N   1      28.068  19.428   5.111  0.00  0.00     0.074 A 
HETATM   30  C   UNK N   1      29.331  17.815   6.362  0.00  0.00     0.100 A 
HETATM   31  C   UNK N   1      27.451  19.830   6.319  0.00  0.00     0.121 A 
HETATM   32  C   UNK N   1      27.787  19.202   7.543  0.00  0.00     0.087 A 
HETATM   33  F   UNK N   1      26.541  20.830   6.314  0.00  0.00    -0.206 F 
HETATM   34  C   UNK N   1      28.741  18.175   7.567  0.00  0.00     0.148 A 
HETATM   35  F   UNK N   1      29.082  17.565   8.730  0.00  0.00    -0.203 F 
HETATM   36  N   UNK N   1      30.272  16.899   6.163  0.00  0.00    -0.336 N 
ATOM     37  HN  UNK N   1      30.712  16.295   6.858  1.00  0.00     0.168 HD
ENDBRANCH   7  25
TORSDOF 5
ENDMDL
