MODEL 1
REMARK VINA RESULT:      -7.0      0.000      0.000
REMARK  5 active torsions:
REMARK  status: ('A' for Active; 'I' for Inactive)
REMARK    1  A    between atoms: C_6  and  C_8 
REMARK    2  A    between atoms: C_8  and  C_9 
REMARK    3  A    between atoms: C_10  and  C_9 
REMARK    4  A    between atoms: C_10  and  O_23 
REMARK       I    between atoms: N_18  and  C_19 
REMARK    5  A    between atoms: C_19  and  O_21 
ROOT
HETATM    1  C   UNK N   1      30.655  16.065   4.311  0.00  0.00     0.073 C 
HETATM    2  C   UNK N   1      31.301  16.833   3.133  0.00  0.00     0.039 C 
HETATM    3  C   UNK N   1      32.854  16.776   3.207  0.00  0.00     0.005 C 
HETATM    4  C   UNK N   1      33.434  17.274   4.566  0.00  0.00     0.026 C 
HETATM    5  C   UNK N   1      32.323  17.323   5.620  0.00  0.00     0.096 C 
HETATM    6  C   UNK N   1      31.556  16.041   5.561  0.00  0.00     0.045 C 
HETATM    7  C   UNK N   1      30.875  15.904   6.943  0.00  0.00     0.029 C 
HETATM    8  C   UNK N   1      31.478  17.020   7.800  0.00  0.00     0.129 C 
HETATM    9  N   UNK N   1      32.592  17.462   7.022  0.00  0.00    -0.323 N 
HETATM   10  C   UNK N   1      33.780  17.750   7.617  0.00  0.00     0.362 C 
HETATM   11  O   UNK N   1      34.775  17.988   6.946  0.00  0.00    -0.238 OA
ENDROOT
BRANCH   1  12
HETATM   12  C   UNK N   1      29.323  16.568   4.687  0.00  0.00     0.123 C 
BRANCH  12  13
HETATM   13  C   UNK N   1      28.407  17.339   4.839  0.00  0.00    -0.141 C 
BRANCH  13  14
HETATM   14  C   UNK N   1      27.610  18.525   4.982  0.00  0.00     0.005 A 
HETATM   15  C   UNK N   1      27.686  19.336   6.117  0.00  0.00     0.020 A 
HETATM   16  C   UNK N   1      26.987  20.552   6.145  0.00  0.00     0.002 A 
HETATM   17  C   UNK N   1      26.208  20.946   5.048  0.00  0.00     0.007 A 
HETATM   18  C   UNK N   1      26.122  20.123   3.923  0.00  0.00    -0.061 A 
HETATM   19  C   UNK N   1      25.287  20.519   2.757  0.00  0.00     0.048 C 
HETATM   20  C   UNK N   1      26.833  18.925   3.889  0.00  0.00     0.026 A 
ENDBRANCH  13  14
ENDBRANCH  12  13
ENDBRANCH   1  12
BRANCH   1  21
HETATM   21  O   UNK N   1      30.472  14.757   3.865  0.00  0.00    -0.389 OA
HETATM   22  H   UNK N   1      30.946  13.979   3.533  0.00  0.00     0.210 HD
ENDBRANCH   1  21
BRANCH  10  23
HETATM   23  O   UNK N   1      33.844  17.771   8.975  0.00  0.00    -0.309 OA
HETATM   24  C   UNK N   1      34.701  16.979   9.700  0.00  0.00     0.215 C 
ENDBRANCH  10  23
TORSDOF 5
ENDMDL
MODEL 2
REMARK VINA RESULT:      -6.7     11.575     14.583
REMARK  5 active torsions:
REMARK  status: ('A' for Active; 'I' for Inactive)
REMARK    1  A    between atoms: C_6  and  C_8 
REMARK    2  A    between atoms: C_8  and  C_9 
REMARK    3  A    between atoms: C_10  and  C_9 
REMARK    4  A    between atoms: C_10  and  O_23 
REMARK       I    between atoms: N_18  and  C_19 
REMARK    5  A    between atoms: C_19  and  O_21 
ROOT
HETATM    1  C   UNK N   1      25.724  23.231  -8.274  0.00  0.00     0.073 C 
HETATM    2  C   UNK N   1      26.246  22.752  -9.650  0.00  0.00     0.039 C 
HETATM    3  C   UNK N   1      26.922  21.355  -9.543  0.00  0.00     0.005 C 
HETATM    4  C   UNK N   1      28.058  21.290  -8.476  0.00  0.00     0.026 C 
HETATM    5  C   UNK N   1      27.959  22.496  -7.536  0.00  0.00     0.096 C 
HETATM    6  C   UNK N   1      26.535  22.645  -7.103  0.00  0.00     0.045 C 
HETATM    7  C   UNK N   1      26.589  23.451  -5.784  0.00  0.00     0.029 C 
HETATM    8  C   UNK N   1      28.074  23.527  -5.419  0.00  0.00     0.129 C 
HETATM    9  N   UNK N   1      28.674  22.569  -6.295  0.00  0.00    -0.323 N 
HETATM   10  C   UNK N   1      29.648  21.735  -5.845  0.00  0.00     0.362 C 
HETATM   11  O   UNK N   1      30.062  20.821  -6.544  0.00  0.00    -0.238 OA
ENDROOT
BRANCH   1  12
HETATM   12  C   UNK N   1      25.670  24.696  -8.138  0.00  0.00     0.123 C 
BRANCH  12  13
HETATM   13  C   UNK N   1      25.769  25.790  -7.638  0.00  0.00    -0.141 C 
BRANCH  13  14
HETATM   14  C   UNK N   1      25.959  26.873  -6.716  0.00  0.00     0.005 A 
HETATM   15  C   UNK N   1      25.131  27.056  -5.606  0.00  0.00     0.020 A 
HETATM   16  C   UNK N   1      25.444  28.049  -4.666  0.00  0.00     0.002 A 
HETATM   17  C   UNK N   1      26.573  28.860  -4.842  0.00  0.00     0.007 A 
HETATM   18  C   UNK N   1      27.388  28.684  -5.963  0.00  0.00    -0.061 A 
HETATM   19  C   UNK N   1      28.581  29.548  -6.173  0.00  0.00     0.048 C 
HETATM   20  C   UNK N   1      27.087  27.685  -6.885  0.00  0.00     0.026 A 
ENDBRANCH  13  14
ENDBRANCH  12  13
ENDBRANCH   1  12
BRANCH   1  21
HETATM   21  O   UNK N   1      24.410  22.776  -8.181  0.00  0.00    -0.389 OA
HETATM   22  H   UNK N   1      23.836  22.159  -7.701  0.00  0.00     0.210 HD
ENDBRANCH   1  21
BRANCH  10  23
HETATM   23  O   UNK N   1      30.158  21.936  -4.601  0.00  0.00    -0.309 OA
HETATM   24  C   UNK N   1      30.579  20.913  -3.786  0.00  0.00     0.215 C 
ENDBRANCH  10  23
TORSDOF 5
ENDMDL
MODEL 3
REMARK VINA RESULT:      -6.6      5.476     10.814
REMARK  5 active torsions:
REMARK  status: ('A' for Active; 'I' for Inactive)
REMARK    1  A    between atoms: C_6  and  C_8 
REMARK    2  A    between atoms: C_8  and  C_9 
REMARK    3  A    between atoms: C_10  and  C_9 
REMARK    4  A    between atoms: C_10  and  O_23 
REMARK       I    between atoms: N_18  and  C_19 
REMARK    5  A    between atoms: C_19  and  O_21 
ROOT
HETATM    1  C   UNK N   1      36.759  13.437  10.991  0.00  0.00     0.073 C 
HETATM    2  C   UNK N   1      36.587  12.239  10.028  0.00  0.00     0.039 C 
HETATM    3  C   UNK N   1      36.939  12.636   8.565  0.00  0.00     0.005 C 
HETATM    4  C   UNK N   1      36.146  13.875   8.045  0.00  0.00     0.026 C 
HETATM    5  C   UNK N   1      35.513  14.621   9.224  0.00  0.00     0.096 C 
HETATM    6  C   UNK N   1      36.550  14.792  10.289  0.00  0.00     0.045 C 
HETATM    7  C   UNK N   1      36.067  15.986  11.145  0.00  0.00     0.029 C 
HETATM    8  C   UNK N   1      34.880  16.577  10.378  0.00  0.00     0.129 C 
HETATM    9  N   UNK N   1      34.970  15.943   9.100  0.00  0.00    -0.323 N 
HETATM   10  C   UNK N   1      34.755  16.651   7.960  0.00  0.00     0.362 C 
HETATM   11  O   UNK N   1      34.971  16.154   6.864  0.00  0.00    -0.238 OA
ENDROOT
BRANCH   1  12
HETATM   12  C   UNK N   1      35.891  13.371  12.179  0.00  0.00     0.123 C 
BRANCH  12  13
HETATM   13  C   UNK N   1      35.379  12.939  13.183  0.00  0.00    -0.141 C 
BRANCH  13  14
HETATM   14  C   UNK N   1      35.151  12.383  14.487  0.00  0.00     0.005 A 
HETATM   15  C   UNK N   1      34.955  11.014  14.684  0.00  0.00     0.020 A 
HETATM   16  C   UNK N   1      34.872  10.509  15.990  0.00  0.00     0.002 A 
HETATM   17  C   UNK N   1      34.973  11.371  17.090  0.00  0.00     0.007 A 
HETATM   18  C   UNK N   1      35.151  12.741  16.887  0.00  0.00    -0.061 A 
HETATM   19  C   UNK N   1      35.243  13.672  18.044  0.00  0.00     0.048 C 
HETATM   20  C   UNK N   1      35.253  13.238  15.589  0.00  0.00     0.026 A 
ENDBRANCH  13  14
ENDBRANCH  12  13
ENDBRANCH   1  12
BRANCH   1  21
HETATM   21  O   UNK N   1      38.071  13.372  11.456  0.00  0.00    -0.389 OA
HETATM   22  H   UNK N   1      38.993  13.531  11.200  0.00  0.00     0.210 HD
ENDBRANCH   1  21
BRANCH  10  23
HETATM   23  O   UNK N   1      34.292  17.926   8.059  0.00  0.00    -0.309 OA
HETATM   24  C   UNK N   1      32.956  18.245   8.041  0.00  0.00     0.215 C 
ENDBRANCH  10  23
TORSDOF 5
ENDMDL
MODEL 4
REMARK VINA RESULT:      -6.5     11.223     14.854
REMARK  5 active torsions:
REMARK  status: ('A' for Active; 'I' for Inactive)
REMARK    1  A    between atoms: C_6  and  C_8 
REMARK    2  A    between atoms: C_8  and  C_9 
REMARK    3  A    between atoms: C_10  and  C_9 
REMARK    4  A    between atoms: C_10  and  O_23 
REMARK       I    between atoms: N_18  and  C_19 
REMARK    5  A    between atoms: C_19  and  O_21 
ROOT
HETATM    1  C   UNK N   1      26.941  26.065  -4.533  0.00  0.00     0.073 C 
HETATM    2  C   UNK N   1      27.625  27.242  -5.267  0.00  0.00     0.039 C 
HETATM    3  C   UNK N   1      26.758  27.746  -6.457  0.00  0.00     0.005 C 
HETATM    4  C   UNK N   1      26.371  26.623  -7.468  0.00  0.00     0.026 C 
HETATM    5  C   UNK N   1      26.609  25.248  -6.835  0.00  0.00     0.096 C 
HETATM    6  C   UNK N   1      26.019  25.250  -5.460  0.00  0.00     0.045 C 
HETATM    7  C   UNK N   1      25.775  23.763  -5.115  0.00  0.00     0.029 C 
HETATM    8  C   UNK N   1      26.037  22.999  -6.416  0.00  0.00     0.129 C 
HETATM    9  N   UNK N   1      26.085  24.037  -7.398  0.00  0.00    -0.323 N 
HETATM   10  C   UNK N   1      25.491  23.871  -8.609  0.00  0.00     0.362 C 
HETATM   11  O   UNK N   1      25.403  24.803  -9.397  0.00  0.00    -0.238 OA
ENDROOT
BRANCH   1  12
HETATM   12  C   UNK N   1      27.886  25.152  -3.869  0.00  0.00     0.123 C 
BRANCH  12  13
HETATM   13  C   UNK N   1      28.807  24.385  -3.726  0.00  0.00    -0.141 C 
BRANCH  13  14
HETATM   14  C   UNK N   1      29.703  23.269  -3.835  0.00  0.00     0.005 A 
HETATM   15  C   UNK N   1      30.567  22.907  -2.798  0.00  0.00     0.020 A 
HETATM   16  C   UNK N   1      31.321  21.730  -2.906  0.00  0.00     0.002 A 
HETATM   17  C   UNK N   1      31.220  20.926  -4.049  0.00  0.00     0.007 A 
HETATM   18  C   UNK N   1      30.368  21.302  -5.091  0.00  0.00    -0.061 A 
HETATM   19  C   UNK N   1      30.261  20.468  -6.319  0.00  0.00     0.048 C 
HETATM   20  C   UNK N   1      29.604  22.461  -4.973  0.00  0.00     0.026 A 
ENDBRANCH  13  14
ENDBRANCH  12  13
ENDBRANCH   1  12
BRANCH   1  21
HETATM   21  O   UNK N   1      26.168  26.637  -3.523  0.00  0.00    -0.389 OA
HETATM   22  H   UNK N   1      25.984  26.597  -2.572  0.00  0.00     0.210 HD
ENDBRANCH   1  21
BRANCH  10  23
HETATM   23  O   UNK N   1      24.996  22.647  -8.933  0.00  0.00    -0.309 OA
HETATM   24  C   UNK N   1      25.733  21.684  -9.580  0.00  0.00     0.215 C 
ENDBRANCH  10  23
TORSDOF 5
ENDMDL
MODEL 5
REMARK VINA RESULT:      -6.5      9.110     12.423
REMARK  5 active torsions:
REMARK  status: ('A' for Active; 'I' for Inactive)
REMARK    1  A    between atoms: C_6  and  C_8 
REMARK    2  A    between atoms: C_8  and  C_9 
REMARK    3  A    between atoms: C_10  and  C_9 
REMARK    4  A    between atoms: C_10  and  O_23 
REMARK       I    between atoms: N_18  and  C_19 
REMARK    5  A    between atoms: C_19  and  O_21 
ROOT
HETATM    1  C   UNK N   1      35.498  13.809  12.331  0.00  0.00     0.073 C 
HETATM    2  C   UNK N   1      35.928  15.278  12.101  0.00  0.00     0.039 C 
HETATM    3  C   UNK N   1      36.270  15.538  10.605  0.00  0.00     0.005 C 
HETATM    4  C   UNK N   1      37.338  14.559  10.028  0.00  0.00     0.026 C 
HETATM    5  C   UNK N   1      37.494  13.351  10.958  0.00  0.00     0.096 C 
HETATM    6  C   UNK N   1      36.130  12.845  11.310  0.00  0.00     0.045 C 
HETATM    7  C   UNK N   1      36.335  11.372  11.734  0.00  0.00     0.029 C 
HETATM    8  C   UNK N   1      37.791  11.051  11.384  0.00  0.00     0.129 C 
HETATM    9  N   UNK N   1      38.179  12.155  10.562  0.00  0.00    -0.323 N 
HETATM   10  C   UNK N   1      38.930  11.956   9.447  0.00  0.00     0.362 C 
HETATM   11  O   UNK N   1      39.143  12.871   8.664  0.00  0.00    -0.238 OA
ENDROOT
BRANCH   1  12
HETATM   12  C   UNK N   1      35.771  13.318  13.692  0.00  0.00     0.123 C 
BRANCH  12  13
HETATM   13  C   UNK N   1      35.769  13.268  14.898  0.00  0.00    -0.141 C 
BRANCH  13  14
HETATM   14  C   UNK N   1      35.695  12.821  16.260  0.00  0.00     0.005 A 
HETATM   15  C   UNK N   1      35.305  13.670  17.298  0.00  0.00     0.020 A 
HETATM   16  C   UNK N   1      35.120  13.147  18.586  0.00  0.00     0.002 A 
HETATM   17  C   UNK N   1      35.335  11.785  18.835  0.00  0.00     0.007 A 
HETATM   18  C   UNK N   1      35.742  10.943  17.797  0.00  0.00    -0.061 A 
HETATM   19  C   UNK N   1      35.990   9.498  18.047  0.00  0.00     0.048 C 
HETATM   20  C   UNK N   1      35.906  11.461  16.514  0.00  0.00     0.026 A 
ENDBRANCH  13  14
ENDBRANCH  12  13
ENDBRANCH   1  12
BRANCH   1  21
HETATM   21  O   UNK N   1      34.113  13.785  12.172  0.00  0.00    -0.389 OA
HETATM   22  H   UNK N   1      33.321  13.259  12.365  0.00  0.00     0.210 HD
ENDBRANCH   1  21
BRANCH  10  23
HETATM   23  O   UNK N   1      39.445  10.719   9.217  0.00  0.00    -0.309 OA
HETATM   24  C   UNK N   1      39.446  10.122   7.980  0.00  0.00     0.215 C 
ENDBRANCH  10  23
TORSDOF 5
ENDMDL
MODEL 6
REMARK VINA RESULT:      -6.5     11.163     14.193
REMARK  5 active torsions:
REMARK  status: ('A' for Active; 'I' for Inactive)
REMARK    1  A    between atoms: C_6  and  C_8 
REMARK    2  A    between atoms: C_8  and  C_9 
REMARK    3  A    between atoms: C_10  and  C_9 
REMARK    4  A    between atoms: C_10  and  O_23 
REMARK       I    between atoms: N_18  and  C_19 
REMARK    5  A    between atoms: C_19  and  O_21 
ROOT
HETATM    1  C   UNK N   1      26.853  25.750  -6.252  0.00  0.00     0.073 C 
HETATM    2  C   UNK N   1      25.351  25.634  -5.902  0.00  0.00     0.039 C 
HETATM    3  C   UNK N   1      24.726  27.032  -5.625  0.00  0.00     0.005 C 
HETATM    4  C   UNK N   1      25.481  27.849  -4.531  0.00  0.00     0.026 C 
HETATM    5  C   UNK N   1      26.864  27.236  -4.285  0.00  0.00     0.096 C 
HETATM    6  C   UNK N   1      27.513  26.985  -5.609  0.00  0.00     0.045 C 
HETATM    7  C   UNK N   1      29.031  26.927  -5.319  0.00  0.00     0.029 C 
HETATM    8  C   UNK N   1      29.179  27.375  -3.862  0.00  0.00     0.129 C 
HETATM    9  N   UNK N   1      27.893  27.920  -3.557  0.00  0.00    -0.323 N 
HETATM   10  C   UNK N   1      27.781  29.067  -2.836  0.00  0.00     0.362 C 
HETATM   11  O   UNK N   1      26.697  29.614  -2.695  0.00  0.00    -0.238 OA
ENDROOT
BRANCH   1  12
HETATM   12  C   UNK N   1      27.636  24.551  -5.908  0.00  0.00     0.123 C 
BRANCH  12  13
HETATM   13  C   UNK N   1      28.279  23.771  -5.249  0.00  0.00    -0.141 C 
BRANCH  13  14
HETATM   14  C   UNK N   1      29.321  23.129  -4.499  0.00  0.00     0.005 A 
HETATM   15  C   UNK N   1      29.644  23.516  -3.196  0.00  0.00     0.020 A 
HETATM   16  C   UNK N   1      30.576  22.768  -2.462  0.00  0.00     0.002 A 
HETATM   17  C   UNK N   1      31.189  21.646  -3.034  0.00  0.00     0.007 A 
HETATM   18  C   UNK N   1      30.876  21.272  -4.343  0.00  0.00    -0.061 A 
HETATM   19  C   UNK N   1      31.531  20.093  -4.971  0.00  0.00     0.048 C 
HETATM   20  C   UNK N   1      29.935  22.005  -5.063  0.00  0.00     0.026 A 
ENDBRANCH  13  14
ENDBRANCH  12  13
ENDBRANCH   1  12
BRANCH   1  21
HETATM   21  O   UNK N   1      26.917  25.879  -7.639  0.00  0.00    -0.389 OA
HETATM   22  H   UNK N   1      27.500  25.748  -8.403  0.00  0.00     0.210 HD
ENDBRANCH   1  21
BRANCH  10  23
HETATM   23  O   UNK N   1      28.899  29.595  -2.270  0.00  0.00    -0.309 OA
HETATM   24  C   UNK N   1      28.977  29.949  -0.945  0.00  0.00     0.215 C 
ENDBRANCH  10  23
TORSDOF 5
ENDMDL
MODEL 7
REMARK VINA RESULT:      -6.4     10.874     13.686
REMARK  5 active torsions:
REMARK  status: ('A' for Active; 'I' for Inactive)
REMARK    1  A    between atoms: C_6  and  C_8 
REMARK    2  A    between atoms: C_8  and  C_9 
REMARK    3  A    between atoms: C_10  and  C_9 
REMARK    4  A    between atoms: C_10  and  O_23 
REMARK       I    between atoms: N_18  and  C_19 
REMARK    5  A    between atoms: C_19  and  O_21 
ROOT
HETATM    1  C   UNK N   1      35.331  12.839  13.140  0.00  0.00     0.073 C 
HETATM    2  C   UNK N   1      36.658  13.511  12.714  0.00  0.00     0.039 C 
HETATM    3  C   UNK N   1      37.314  12.758  11.520  0.00  0.00     0.005 C 
HETATM    4  C   UNK N   1      37.533  11.236  11.786  0.00  0.00     0.026 C 
HETATM    5  C   UNK N   1      36.697  10.792  12.991  0.00  0.00     0.096 C 
HETATM    6  C   UNK N   1      35.310  11.330  12.831  0.00  0.00     0.045 C 
HETATM    7  C   UNK N   1      34.414  10.423  13.705  0.00  0.00     0.029 C 
HETATM    8  C   UNK N   1      35.317   9.268  14.145  0.00  0.00     0.129 C 
HETATM    9  N   UNK N   1      36.463   9.412  13.302  0.00  0.00    -0.323 N 
HETATM   10  C   UNK N   1      37.053   8.321  12.746  0.00  0.00     0.362 C 
HETATM   11  O   UNK N   1      37.940   8.446  11.912  0.00  0.00    -0.238 OA
ENDROOT
BRANCH   1  12
HETATM   12  C   UNK N   1      34.992  13.045  14.558  0.00  0.00     0.123 C 
BRANCH  12  13
HETATM   13  C   UNK N   1      35.089  13.012  15.761  0.00  0.00    -0.141 C 
BRANCH  13  14
HETATM   14  C   UNK N   1      35.299  12.592  17.117  0.00  0.00     0.005 A 
HETATM   15  C   UNK N   1      35.126  13.461  18.198  0.00  0.00     0.020 A 
HETATM   16  C   UNK N   1      35.213  12.964  19.506  0.00  0.00     0.002 A 
HETATM   17  C   UNK N   1      35.482  11.607  19.730  0.00  0.00     0.007 A 
HETATM   18  C   UNK N   1      35.672  10.746  18.647  0.00  0.00    -0.061 A 
HETATM   19  C   UNK N   1      35.976   9.306  18.869  0.00  0.00     0.048 C 
HETATM   20  C   UNK N   1      35.566  11.238  17.348  0.00  0.00     0.026 A 
ENDBRANCH  13  14
ENDBRANCH  12  13
ENDBRANCH   1  12
BRANCH   1  21
HETATM   21  O   UNK N   1      34.328  13.462  12.399  0.00  0.00    -0.389 OA
HETATM   22  H   UNK N   1      33.695  13.319  11.679  0.00  0.00     0.210 HD
ENDBRANCH   1  21
BRANCH  10  23
HETATM   23  O   UNK N   1      36.642   7.085  13.134  0.00  0.00    -0.309 OA
HETATM   24  C   UNK N   1      37.463   6.181  13.762  0.00  0.00     0.215 C 
ENDBRANCH  10  23
TORSDOF 5
ENDMDL
MODEL 8
REMARK VINA RESULT:      -6.3      6.239      9.637
REMARK  5 active torsions:
REMARK  status: ('A' for Active; 'I' for Inactive)
REMARK    1  A    between atoms: C_6  and  C_8 
REMARK    2  A    between atoms: C_8  and  C_9 
REMARK    3  A    between atoms: C_10  and  C_9 
REMARK    4  A    between atoms: C_10  and  O_23 
REMARK       I    between atoms: N_18  and  C_19 
REMARK    5  A    between atoms: C_19  and  O_21 
ROOT
HETATM    1  C   UNK N   1      21.284  19.399   3.391  0.00  0.00     0.073 C 
HETATM    2  C   UNK N   1      20.747  19.013   1.993  0.00  0.00     0.039 C 
HETATM    3  C   UNK N   1      19.631  17.933   2.095  0.00  0.00     0.005 C 
HETATM    4  C   UNK N   1      20.064  16.659   2.884  0.00  0.00     0.026 C 
HETATM    5  C   UNK N   1      21.335  16.952   3.689  0.00  0.00     0.096 C 
HETATM    6  C   UNK N   1      21.152  18.250   4.410  0.00  0.00     0.045 C 
HETATM    7  C   UNK N   1      22.149  18.210   5.590  0.00  0.00     0.029 C 
HETATM    8  C   UNK N   1      22.695  16.780   5.607  0.00  0.00     0.129 C 
HETATM    9  N   UNK N   1      21.811  16.084   4.726  0.00  0.00    -0.323 N 
HETATM   10  C   UNK N   1      21.368  14.836   5.035  0.00  0.00     0.362 C 
HETATM   11  O   UNK N   1      20.502  14.294   4.362  0.00  0.00    -0.238 OA
ENDROOT
BRANCH   1  12
HETATM   12  C   UNK N   1      22.677  19.875   3.380  0.00  0.00     0.123 C 
BRANCH  12  13
HETATM   13  C   UNK N   1      23.877  19.866   3.513  0.00  0.00    -0.141 C 
BRANCH  13  14
HETATM   14  C   UNK N   1      25.212  19.611   3.974  0.00  0.00     0.005 A 
HETATM   15  C   UNK N   1      25.983  18.561   3.468  0.00  0.00     0.020 A 
HETATM   16  C   UNK N   1      27.325  18.440   3.854  0.00  0.00     0.002 A 
HETATM   17  C   UNK N   1      27.889  19.358   4.751  0.00  0.00     0.007 A 
HETATM   18  C   UNK N   1      27.109  20.396   5.267  0.00  0.00    -0.061 A 
HETATM   19  C   UNK N   1      27.688  21.369   6.232  0.00  0.00     0.048 C 
HETATM   20  C   UNK N   1      25.782  20.526   4.866  0.00  0.00     0.026 A 
ENDBRANCH  13  14
ENDBRANCH  12  13
ENDBRANCH   1  12
BRANCH   1  21
HETATM   21  O   UNK N   1      20.503  20.471   3.821  0.00  0.00    -0.389 OA
HETATM   22  H   UNK N   1      20.552  21.356   4.216  0.00  0.00     0.210 HD
ENDBRANCH   1  21
BRANCH  10  23
HETATM   23  O   UNK N   1      21.908  14.197   6.107  0.00  0.00    -0.309 OA
HETATM   24  C   UNK N   1      21.196  13.901   7.244  0.00  0.00     0.215 C 
ENDBRANCH  10  23
TORSDOF 5
ENDMDL
MODEL 9
REMARK VINA RESULT:      -6.2      5.547      8.726
REMARK  5 active torsions:
REMARK  status: ('A' for Active; 'I' for Inactive)
REMARK    1  A    between atoms: C_6  and  C_8 
REMARK    2  A    between atoms: C_8  and  C_9 
REMARK    3  A    between atoms: C_10  and  C_9 
REMARK    4  A    between atoms: C_10  and  O_23 
REMARK       I    between atoms: N_18  and  C_19 
REMARK    5  A    between atoms: C_19  and  O_21 
ROOT
HETATM    1  C   UNK N   1      26.249  17.681   4.835  0.00  0.00     0.073 C 
HETATM    2  C   UNK N   1      27.392  18.396   4.076  0.00  0.00     0.039 C 
HETATM    3  C   UNK N   1      27.213  19.941   4.111  0.00  0.00     0.005 C 
HETATM    4  C   UNK N   1      25.825  20.421   3.586  0.00  0.00     0.026 C 
HETATM    5  C   UNK N   1      24.849  19.240   3.537  0.00  0.00     0.096 C 
HETATM    6  C   UNK N   1      24.941  18.494   4.830  0.00  0.00     0.045 C 
HETATM    7  C   UNK N   1      23.607  17.723   4.956  0.00  0.00     0.029 C 
HETATM    8  C   UNK N   1      22.727  18.253   3.820  0.00  0.00     0.129 C 
HETATM    9  N   UNK N   1      23.435  19.412   3.375  0.00  0.00    -0.323 N 
HETATM   10  C   UNK N   1      22.765  20.553   3.062  0.00  0.00     0.362 C 
HETATM   11  O   UNK N   1      23.371  21.588   2.821  0.00  0.00    -0.238 OA
ENDROOT
BRANCH   1  12
HETATM   12  C   UNK N   1      25.973  16.320   4.344  0.00  0.00     0.123 C 
BRANCH  12  13
HETATM   13  C   UNK N   1      25.787  15.413   3.570  0.00  0.00    -0.141 C 
BRANCH  13  14
HETATM   14  C   UNK N   1      25.237  14.545   2.568  0.00  0.00     0.005 A 
HETATM   15  C   UNK N   1      25.924  13.421   2.103  0.00  0.00     0.020 A 
HETATM   16  C   UNK N   1      25.285  12.534   1.225  0.00  0.00     0.002 A 
HETATM   17  C   UNK N   1      23.970  12.778   0.806  0.00  0.00     0.007 A 
HETATM   18  C   UNK N   1      23.294  13.912   1.260  0.00  0.00    -0.061 A 
HETATM   19  C   UNK N   1      21.903  14.193   0.813  0.00  0.00     0.048 C 
HETATM   20  C   UNK N   1      23.923  14.781   2.148  0.00  0.00     0.026 A 
ENDBRANCH  13  14
ENDBRANCH  12  13
ENDBRANCH   1  12
BRANCH   1  21
HETATM   21  O   UNK N   1      26.687  17.545   6.152  0.00  0.00    -0.389 OA
HETATM   22  H   UNK N   1      27.411  17.196   6.695  0.00  0.00     0.210 HD
ENDBRANCH   1  21
BRANCH  10  23
HETATM   23  O   UNK N   1      21.407  20.525   3.021  0.00  0.00    -0.309 OA
HETATM   24  C   UNK N   1      20.688  20.583   1.853  0.00  0.00     0.215 C 
ENDBRANCH  10  23
TORSDOF 5
ENDMDL
