MODEL 1
REMARK VINA RESULT:      -3.9      0.000      0.000
REMARK  2 active torsions:
REMARK  status: ('A' for Active; 'I' for Inactive)
REMARK    1  A    between atoms: C_2  and  C_1 
REMARK    2  A    between atoms: C_3  and  C_1 
ROOT
HETATM    1  C   UNK N   1      22.560  11.626  10.656  0.00  0.00     0.188 C 
ENDROOT
BRANCH   1   2
HETATM    2  C   UNK N   1      23.332  12.094  11.886  0.00  0.00     0.361 C 
HETATM    3  F   UNK N   1      22.791  11.496  13.008  0.00  0.00    -0.214 F 
HETATM    4  F   UNK N   1      24.667  11.749  11.792  0.00  0.00    -0.214 F 
ENDBRANCH   1   2
BRANCH   1   5
HETATM    5  C   UNK N   1      21.519  12.636  10.184  0.00  0.00     0.392 C 
HETATM    6  F   UNK N   1      20.389  12.578  10.980  0.00  0.00    -0.171 F 
HETATM    7  F   UNK N   1      21.167  12.337   8.880  0.00  0.00    -0.171 F 
HETATM    8  F   UNK N   1      22.046  13.914  10.219  0.00  0.00    -0.171 F 
ENDBRANCH   1   5
TORSDOF 2
ENDMDL
MODEL 2
REMARK VINA RESULT:      -3.9      0.020      1.377
REMARK  2 active torsions:
REMARK  status: ('A' for Active; 'I' for Inactive)
REMARK    1  A    between atoms: C_2  and  C_1 
REMARK    2  A    between atoms: C_3  and  C_1 
ROOT
HETATM    1  C   UNK N   1      22.560  11.622  10.649  0.00  0.00     0.188 C 
ENDROOT
BRANCH   1   2
HETATM    2  C   UNK N   1      23.326  12.093  11.882  0.00  0.00     0.361 C 
HETATM    3  F   UNK N   1      22.781  11.497  13.002  0.00  0.00    -0.214 F 
HETATM    4  F   UNK N   1      24.663  11.750  11.795  0.00  0.00    -0.214 F 
ENDBRANCH   1   2
BRANCH   1   5
HETATM    5  C   UNK N   1      21.520  12.630  10.171  0.00  0.00     0.392 C 
HETATM    6  F   UNK N   1      21.143  12.359   8.869  0.00  0.00    -0.171 F 
HETATM    7  F   UNK N   1      22.070  13.898  10.227  0.00  0.00    -0.171 F 
HETATM    8  F   UNK N   1      20.409  12.593  10.994  0.00  0.00    -0.171 F 
ENDBRANCH   1   5
TORSDOF 2
ENDMDL
MODEL 3
REMARK VINA RESULT:      -3.9      0.055      1.374
REMARK  2 active torsions:
REMARK  status: ('A' for Active; 'I' for Inactive)
REMARK    1  A    between atoms: C_2  and  C_1 
REMARK    2  A    between atoms: C_3  and  C_1 
ROOT
HETATM    1  C   UNK N   1      22.596  11.638  10.596  0.00  0.00     0.188 C 
ENDROOT
BRANCH   1   2
HETATM    2  C   UNK N   1      23.347  12.100  11.841  0.00  0.00     0.361 C 
HETATM    3  F   UNK N   1      22.780  11.505  12.952  0.00  0.00    -0.214 F 
HETATM    4  F   UNK N   1      24.681  11.746  11.773  0.00  0.00    -0.214 F 
ENDBRANCH   1   2
BRANCH   1   5
HETATM    5  C   UNK N   1      21.531  12.629  10.138  0.00  0.00     0.392 C 
HETATM    6  F   UNK N   1      22.009  13.925  10.213  0.00  0.00    -0.171 F 
HETATM    7  F   UNK N   1      20.427  12.509  10.962  0.00  0.00    -0.171 F 
HETATM    8  F   UNK N   1      21.147  12.349   8.840  0.00  0.00    -0.171 F 
ENDBRANCH   1   5
TORSDOF 2
ENDMDL
MODEL 4
REMARK VINA RESULT:      -3.8     21.011     22.123
REMARK  2 active torsions:
REMARK  status: ('A' for Active; 'I' for Inactive)
REMARK    1  A    between atoms: C_2  and  C_1 
REMARK    2  A    between atoms: C_3  and  C_1 
ROOT
HETATM    1  C   UNK N   1      26.091  27.617  -5.088  0.00  0.00     0.188 C 
ENDROOT
BRANCH   1   2
HETATM    2  C   UNK N   1      25.605  27.964  -3.684  0.00  0.00     0.361 C 
HETATM    3  F   UNK N   1      26.012  26.972  -2.813  0.00  0.00    -0.214 F 
HETATM    4  F   UNK N   1      26.128  29.173  -3.265  0.00  0.00    -0.214 F 
ENDBRANCH   1   2
BRANCH   1   5
HETATM    5  C   UNK N   1      25.072  26.815  -5.892  0.00  0.00     0.392 C 
HETATM    6  F   UNK N   1      25.431  26.771  -7.226  0.00  0.00    -0.171 F 
HETATM    7  F   UNK N   1      23.836  27.425  -5.778  0.00  0.00    -0.171 F 
HETATM    8  F   UNK N   1      24.980  25.529  -5.393  0.00  0.00    -0.171 F 
ENDBRANCH   1   5
TORSDOF 2
ENDMDL
MODEL 5
REMARK VINA RESULT:      -3.7      1.394      3.243
REMARK  2 active torsions:
REMARK  status: ('A' for Active; 'I' for Inactive)
REMARK    1  A    between atoms: C_2  and  C_1 
REMARK    2  A    between atoms: C_3  and  C_1 
ROOT
HETATM    1  C   UNK N   1      22.494  13.090  10.420  0.00  0.00     0.188 C 
ENDROOT
BRANCH   1   2
HETATM    2  C   UNK N   1      21.014  12.722  10.472  0.00  0.00     0.361 C 
HETATM    3  F   UNK N   1      20.723  12.214  11.723  0.00  0.00    -0.214 F 
HETATM    4  F   UNK N   1      20.221  13.830  10.240  0.00  0.00    -0.214 F 
ENDBRANCH   1   2
BRANCH   1   5
HETATM    5  C   UNK N   1      23.412  11.930  10.789  0.00  0.00     0.392 C 
HETATM    6  F   UNK N   1      24.680  12.129  10.275  0.00  0.00    -0.171 F 
HETATM    7  F   UNK N   1      22.889  10.763  10.260  0.00  0.00    -0.171 F 
HETATM    8  F   UNK N   1      23.483  11.799  12.163  0.00  0.00    -0.171 F 
ENDBRANCH   1   5
TORSDOF 2
ENDMDL
MODEL 6
REMARK VINA RESULT:      -3.7      1.384      3.563
REMARK  2 active torsions:
REMARK  status: ('A' for Active; 'I' for Inactive)
REMARK    1  A    between atoms: C_2  and  C_1 
REMARK    2  A    between atoms: C_3  and  C_1 
ROOT
HETATM    1  C   UNK N   1      21.142  12.402  11.063  0.00  0.00     0.188 C 
ENDROOT
BRANCH   1   2
HETATM    2  C   UNK N   1      20.845  13.493  10.039  0.00  0.00     0.361 C 
HETATM    3  F   UNK N   1      20.973  12.962   8.770  0.00  0.00    -0.214 F 
HETATM    4  F   UNK N   1      19.562  13.981  10.195  0.00  0.00    -0.214 F 
ENDBRANCH   1   2
BRANCH   1   5
HETATM    5  C   UNK N   1      22.621  12.033  11.132  0.00  0.00     0.392 C 
HETATM    6  F   UNK N   1      23.002  11.793  12.439  0.00  0.00    -0.171 F 
HETATM    7  F   UNK N   1      23.365  13.086  10.632  0.00  0.00    -0.171 F 
HETATM    8  F   UNK N   1      22.867  10.911  10.362  0.00  0.00    -0.171 F 
ENDBRANCH   1   5
TORSDOF 2
ENDMDL
MODEL 7
REMARK VINA RESULT:      -3.6      1.570      2.692
REMARK  2 active torsions:
REMARK  status: ('A' for Active; 'I' for Inactive)
REMARK    1  A    between atoms: C_2  and  C_1 
REMARK    2  A    between atoms: C_3  and  C_1 
ROOT
HETATM    1  C   UNK N   1      22.783  11.529  10.576  0.00  0.00     0.188 C 
ENDROOT
BRANCH   1   2
HETATM    2  C   UNK N   1      22.264  12.150  11.869  0.00  0.00     0.361 C 
HETATM    3  F   UNK N   1      20.891  12.000  11.917  0.00  0.00    -0.214 F 
HETATM    4  F   UNK N   1      22.823  11.534  12.972  0.00  0.00    -0.214 F 
ENDBRANCH   1   2
BRANCH   1   5
HETATM    5  C   UNK N   1      24.093  12.149  10.099  0.00  0.00     0.392 C 
HETATM    6  F   UNK N   1      23.944  13.510   9.903  0.00  0.00    -0.171 F 
HETATM    7  F   UNK N   1      24.455  11.558   8.902  0.00  0.00    -0.171 F 
HETATM    8  F   UNK N   1      25.092  11.920  11.027  0.00  0.00    -0.171 F 
ENDBRANCH   1   5
TORSDOF 2
ENDMDL
MODEL 8
REMARK VINA RESULT:      -3.6     13.872     14.837
REMARK  2 active torsions:
REMARK  status: ('A' for Active; 'I' for Inactive)
REMARK    1  A    between atoms: C_2  and  C_1 
REMARK    2  A    between atoms: C_3  and  C_1 
ROOT
HETATM    1  C   UNK N   1      34.903  13.248  16.978  0.00  0.00     0.188 C 
ENDROOT
BRANCH   1   2
HETATM    2  C   UNK N   1      35.360  13.790  18.329  0.00  0.00     0.361 C 
HETATM    3  F   UNK N   1      34.975  15.113  18.433  0.00  0.00    -0.214 F 
HETATM    4  F   UNK N   1      34.795  13.074  19.367  0.00  0.00    -0.214 F 
ENDBRANCH   1   2
BRANCH   1   5
HETATM    5  C   UNK N   1      35.953  13.409  15.884  0.00  0.00     0.392 C 
HETATM    6  F   UNK N   1      36.779  14.484  16.157  0.00  0.00    -0.171 F 
HETATM    7  F   UNK N   1      35.309  13.631  14.680  0.00  0.00    -0.171 F 
HETATM    8  F   UNK N   1      36.709  12.257  15.776  0.00  0.00    -0.171 F 
ENDBRANCH   1   5
TORSDOF 2
ENDMDL
MODEL 9
REMARK VINA RESULT:      -3.5     20.303     21.492
REMARK  2 active torsions:
REMARK  status: ('A' for Active; 'I' for Inactive)
REMARK    1  A    between atoms: C_2  and  C_1 
REMARK    2  A    between atoms: C_3  and  C_1 
ROOT
HETATM    1  C   UNK N   1      25.712  25.884  -5.130  0.00  0.00     0.188 C 
ENDROOT
BRANCH   1   2
HETATM    2  C   UNK N   1      26.458  25.559  -3.840  0.00  0.00     0.361 C 
HETATM    3  F   UNK N   1      26.351  24.204  -3.590  0.00  0.00    -0.214 F 
HETATM    4  F   UNK N   1      27.796  25.892  -3.945  0.00  0.00    -0.214 F 
ENDBRANCH   1   2
BRANCH   1   5
HETATM    5  C   UNK N   1      25.240  27.333  -5.198  0.00  0.00     0.392 C 
HETATM    6  F   UNK N   1      26.130  28.100  -5.927  0.00  0.00    -0.171 F 
HETATM    7  F   UNK N   1      25.160  27.836  -3.912  0.00  0.00    -0.171 F 
HETATM    8  F   UNK N   1      23.987  27.398  -5.777  0.00  0.00    -0.171 F 
ENDBRANCH   1   5
TORSDOF 2
ENDMDL
