REMARK  5 active torsions:
REMARK  status: ('A' for Active; 'I' for Inactive)
REMARK    1  A    between atoms: C_19  and  C_20 
REMARK    2  A    between atoms: C_20  and  C_22 
REMARK    3  A    between atoms: C_22  and  N_23 
REMARK    4  A    between atoms: N_26  and  C_29 
REMARK    5  A    between atoms: C_31  and  N_42 
REMARK       I    between atoms: C_34  and  N_37 
ROOT
HETATM    1  N   UNK N   1       2.598  -4.068  -0.373  0.00  0.00     0.098 N 
HETATM    2  C   UNK N   1       3.246  -5.259   0.210  0.00  0.00     0.292 C 
HETATM    3  C   UNK N   1       2.797  -6.569  -0.443  0.00  0.00     0.154 C 
HETATM    4  N   UNK N   1       1.372  -6.498  -0.683  0.00  0.00    -0.363 N 
HETATM    5  C   UNK N   1       0.814  -5.371  -1.399  0.00  0.00     0.154 C 
HETATM    6  C   UNK N   1       1.888  -4.328  -1.633  0.00  0.00     0.292 C 
ENDROOT
BRANCH   1   7
HETATM    7  C   UNK N   1       1.698  -3.472   0.615  0.00  0.00     0.350 C 
BRANCH   7   8
HETATM    8  C   UNK N   1       1.184  -2.127   0.163  0.00  0.00     0.160 C 
HETATM    9  O   UNK N   1      -0.024  -1.961   0.104  0.00  0.00    -0.296 OA
BRANCH   8  10
HETATM   10  C   UNK N   1       2.108  -0.973  -0.211  0.00  0.00     0.069 C 
HETATM   11  C   UNK N   1       3.610  -1.234  -0.256  0.00  0.00    -0.026 C 
HETATM   12  C   UNK N   1       4.099  -1.937   1.026  0.00  0.00     0.038 C 
HETATM   13  C   UNK N   1       4.189   0.173  -0.315  0.00  0.00     0.003 C 
HETATM   14  C   UNK N   1       4.018  -1.970  -1.529  0.00  0.00     0.016 C 
HETATM   15  C   UNK N   1       5.580  -2.067   1.007  0.00  0.00    -0.021 C 
HETATM   16  C   UNK N   1       6.334  -1.042   0.591  0.00  0.00    -0.063 C 
HETATM   17  C   UNK N   1       7.843  -1.191   0.594  0.00  0.00     0.021 C 
HETATM   18  C   UNK N   1       5.654   0.266   0.176  0.00  0.00     0.021 C 
HETATM   19  C   UNK N   1       8.284  -2.414  -0.194  0.00  0.00    -0.004 C 
HETATM   20  C   UNK N   1       8.561   0.057   0.091  0.00  0.00    -0.060 C 
HETATM   21  C   UNK N   1       8.295  -1.417   2.035  0.00  0.00     0.029 C 
HETATM   22  C   UNK N   1       9.563  -2.537  -0.585  0.00  0.00     0.052 C 
HETATM   23  C   UNK N   1      10.453  -1.361  -0.493  0.00  0.00     0.172 C 
HETATM   24  C   UNK N   1       9.834  -0.026  -0.332  0.00  0.00     0.059 C 
HETATM   25  O   UNK N   1      11.652  -1.472  -0.684  0.00  0.00    -0.289 OA
HETATM   26  C   UNK N   1       7.868   1.384   0.109  0.00  0.00     0.036 C 
HETATM   27  C   UNK N   1       6.527   1.246  -0.597  0.00  0.00     0.014 C 
HETATM   28  C   UNK N   1       3.244   1.048   0.509  0.00  0.00     0.011 C 
HETATM   29  C   UNK N   1       1.982   0.212   0.733  0.00  0.00    -0.006 C 
HETATM   30  C   UNK N   1       0.729   1.020   0.454  0.00  0.00     0.011 C 
ENDBRANCH   8  10
ENDBRANCH   7   8
ENDBRANCH   1   7
BRANCH   4  31
HETATM   31  C   UNK N   1       0.511  -7.538  -0.278  0.00  0.00     0.122 A 
HETATM   32  C   UNK N   1       1.011  -8.803  -0.008  0.00  0.00     0.097 A 
HETATM   33  C   UNK N   1       0.119  -9.843   0.239  0.00  0.00     0.122 A 
HETATM   34  N   UNK N   1      -1.225  -9.589   0.255  0.00  0.00    -0.177 N 
HETATM   35  C   UNK N   1      -1.697  -8.326   0.030  0.00  0.00     0.683 A 
ATOM     36  HN  UNK N   1      -1.881 -10.349   0.435  1.00  0.00     0.186 HD
HETATM   37  N   UNK N   1      -0.827  -7.329  -0.257  0.00  0.00    -0.177 N 
HETATM   38  N   UNK N   1      -3.088  -8.047   0.046  0.00  0.00    -0.217 N 
ATOM     39  HN  UNK N   1      -1.188  -6.398  -0.462  1.00  0.00     0.186 HD
HETATM   40  C   UNK N   1      -4.085  -9.052   0.243  0.00  0.00     0.141 C 
HETATM   41  C   UNK N   1      -3.588  -6.719  -0.166  0.00  0.00     0.141 C 
HETATM   42  C   UNK N   1      -5.409  -8.327   0.059  0.00  0.00     0.022 C 
HETATM   43  C   UNK N   1      -5.094  -6.836  -0.039  0.00  0.00     0.022 C 
BRANCH  33  44
HETATM   44  N   UNK N   1       0.614 -11.171   0.347  0.00  0.00    -0.367 N 
HETATM   45  C   UNK N   1       2.014 -11.468   0.238  0.00  0.00     0.124 A 
HETATM   46  C   UNK N   1       2.101 -12.976   0.133  0.00  0.00     0.021 A 
HETATM   47  C   UNK N   1       0.667 -13.502   0.128  0.00  0.00     0.021 A 
HETATM   48  C   UNK N   1      -0.252 -12.310   0.341  0.00  0.00     0.124 A 
ENDBRANCH  33  44
ENDBRANCH   4  31
TORSDOF 5
