MODEL 1
REMARK VINA RESULT:      -7.1      0.000      0.000
REMARK  3 active torsions:
REMARK  status: ('A' for Active; 'I' for Inactive)
REMARK    1  A    between atoms: C_3  and  C_8 
REMARK    2  A    between atoms: C_8  and  C_9 
REMARK    3  A    between atoms: C_8  and  N_19 
ROOT
HETATM    1  C   UNK N   1      27.951  18.169   5.220  0.00  0.00     0.156 C 
ENDROOT
BRANCH   1   2
HETATM    2  C   UNK N   1      29.129  17.539   4.496  0.00  0.00    -0.029 A 
HETATM    3  C   UNK N   1      28.936  16.725   3.370  0.00  0.00     0.010 A 
HETATM    4  C   UNK N   1      30.027  16.169   2.696  0.00  0.00     0.002 A 
HETATM    5  C   UNK N   1      31.326  16.433   3.134  0.00  0.00     0.024 A 
HETATM    6  C   UNK N   1      31.532  17.243   4.253  0.00  0.00     0.034 A 
HETATM    7  C   UNK N   1      30.440  17.789   4.933  0.00  0.00     0.033 A 
HETATM    8 Cl   UNK N   1      33.160  17.593   4.789  0.00  0.00    -0.084 Cl
ENDBRANCH   1   2
BRANCH   1   9
HETATM    9  C   UNK N   1      26.774  18.857   4.552  0.00  0.00    -0.028 A 
HETATM   10  C   UNK N   1      26.959  19.982   3.705  0.00  0.00     0.012 A 
HETATM   11  C   UNK N   1      25.863  20.606   3.078  0.00  0.00     0.032 A 
HETATM   12  C   UNK N   1      24.602  20.076   3.323  0.00  0.00     0.060 A 
HETATM   13  C   UNK N   1      24.412  19.009   4.134  0.00  0.00     0.060 A 
HETATM   14  N   UNK N   1      23.422  20.487   2.839  0.00  0.00    -0.351 N 
HETATM   15  C   UNK N   1      25.466  18.367   4.771  0.00  0.00     0.041 A 
HETATM   16  N   UNK N   1      23.108  18.710   4.191  0.00  0.00    -0.350 N 
HETATM   17  C   UNK N   1      22.518  19.633   3.385  0.00  0.00     0.181 A 
HETATM   18  H   UNK N   1      22.677  17.987   4.700  0.00  0.00     0.166 HD
ATOM     19  HN  UNK N   1      23.243  21.266   2.204  1.00  0.00     0.166 HD
ENDBRANCH   1   9
BRANCH   1  20
HETATM   20  N   UNK N   1      27.943  18.127   6.684  0.00  0.00    -0.338 N 
HETATM   21  C   UNK N   1      27.917  17.020   7.445  0.00  0.00     0.110 A 
HETATM   22  C   UNK N   1      27.892  17.420   8.765  0.00  0.00     0.106 A 
HETATM   23  N   UNK N   1      27.909  18.769   8.805  0.00  0.00    -0.361 N 
HETATM   24  C   UNK N   1      27.937  19.178   7.521  0.00  0.00     0.183 A 
ATOM     25  HN  UNK N   1      27.903  19.360   9.637  1.00  0.00     0.166 HD
ENDBRANCH   1  20
TORSDOF 3
ENDMDL
MODEL 2
REMARK VINA RESULT:      -7.0      7.328      8.731
REMARK  3 active torsions:
REMARK  status: ('A' for Active; 'I' for Inactive)
REMARK    1  A    between atoms: C_3  and  C_8 
REMARK    2  A    between atoms: C_8  and  C_9 
REMARK    3  A    between atoms: C_8  and  N_19 
ROOT
HETATM    1  C   UNK N   1      20.223  16.368   7.767  0.00  0.00     0.156 C 
ENDROOT
BRANCH   1   2
HETATM    2  C   UNK N   1      20.906  15.130   8.324  0.00  0.00    -0.029 A 
HETATM    3  C   UNK N   1      22.119  14.670   7.790  0.00  0.00     0.010 A 
HETATM    4  C   UNK N   1      22.753  13.545   8.325  0.00  0.00     0.002 A 
HETATM    5  C   UNK N   1      22.186  12.874   9.410  0.00  0.00     0.024 A 
HETATM    6  C   UNK N   1      20.979  13.322   9.951  0.00  0.00     0.034 A 
HETATM    7  C   UNK N   1      20.340  14.441   9.409  0.00  0.00     0.033 A 
HETATM    8 Cl   UNK N   1      20.279  12.496  11.325  0.00  0.00    -0.084 Cl
ENDBRANCH   1   2
BRANCH   1   9
HETATM    9  C   UNK N   1      20.449  16.949   6.383  0.00  0.00    -0.028 A 
HETATM   10  C   UNK N   1      21.336  18.038   6.174  0.00  0.00     0.012 A 
HETATM   11  C   UNK N   1      21.551  18.562   4.884  0.00  0.00     0.032 A 
HETATM   12  C   UNK N   1      20.861  17.970   3.833  0.00  0.00     0.060 A 
HETATM   13  C   UNK N   1      20.007  16.937   4.020  0.00  0.00     0.060 A 
HETATM   14  N   UNK N   1      20.907  18.284   2.531  0.00  0.00    -0.351 N 
HETATM   15  C   UNK N   1      19.768  16.392   5.276  0.00  0.00     0.041 A 
HETATM   16  N   UNK N   1      19.485  16.563   2.846  0.00  0.00    -0.350 N 
HETATM   17  C   UNK N   1      20.054  17.406   1.943  0.00  0.00     0.181 A 
HETATM   18  H   UNK N   1      18.838  15.841   2.676  0.00  0.00     0.166 HD
ATOM     19  HN  UNK N   1      21.458  19.017   2.083  1.00  0.00     0.166 HD
ENDBRANCH   1   9
BRANCH   1  20
HETATM   20  N   UNK N   1      19.275  17.076   8.631  0.00  0.00    -0.338 N 
HETATM   21  C   UNK N   1      18.002  16.718   8.871  0.00  0.00     0.110 A 
HETATM   22  C   UNK N   1      17.455  17.664   9.712  0.00  0.00     0.106 A 
HETATM   23  N   UNK N   1      18.397  18.591   9.988  0.00  0.00    -0.361 N 
HETATM   24  C   UNK N   1      19.499  18.211   9.313  0.00  0.00     0.183 A 
ATOM     25  HN  UNK N   1      18.296  19.412  10.586  1.00  0.00     0.166 HD
ENDBRANCH   1  20
TORSDOF 3
ENDMDL
MODEL 3
REMARK VINA RESULT:      -6.9      3.365      7.001
REMARK  3 active torsions:
REMARK  status: ('A' for Active; 'I' for Inactive)
REMARK    1  A    between atoms: C_3  and  C_8 
REMARK    2  A    between atoms: C_8  and  C_9 
REMARK    3  A    between atoms: C_8  and  N_19 
ROOT
HETATM    1  C   UNK N   1      29.018  17.369   5.936  0.00  0.00     0.156 C 
ENDROOT
BRANCH   1   2
HETATM    2  C   UNK N   1      28.170  18.625   5.823  0.00  0.00    -0.029 A 
HETATM    3  C   UNK N   1      27.913  19.430   6.943  0.00  0.00     0.010 A 
HETATM    4  C   UNK N   1      27.152  20.596   6.826  0.00  0.00     0.002 A 
HETATM    5  C   UNK N   1      26.648  20.977   5.581  0.00  0.00     0.024 A 
HETATM    6  C   UNK N   1      26.896  20.186   4.458  0.00  0.00     0.034 A 
HETATM    7  C   UNK N   1      27.649  19.013   4.579  0.00  0.00     0.033 A 
HETATM    8 Cl   UNK N   1      26.285  20.674   2.893  0.00  0.00    -0.084 Cl
ENDBRANCH   1   2
BRANCH   1   9
HETATM    9  C   UNK N   1      30.503  17.337   6.254  0.00  0.00    -0.028 A 
HETATM   10  C   UNK N   1      31.480  17.377   5.225  0.00  0.00     0.012 A 
HETATM   11  C   UNK N   1      32.855  17.360   5.529  0.00  0.00     0.032 A 
HETATM   12  C   UNK N   1      33.210  17.304   6.871  0.00  0.00     0.060 A 
HETATM   13  C   UNK N   1      32.288  17.258   7.861  0.00  0.00     0.060 A 
HETATM   14  N   UNK N   1      34.440  17.287   7.403  0.00  0.00    -0.351 N 
HETATM   15  C   UNK N   1      30.923  17.271   7.602  0.00  0.00     0.041 A 
HETATM   16  N   UNK N   1      32.902  17.210   9.050  0.00  0.00    -0.350 N 
HETATM   17  C   UNK N   1      34.227  17.230   8.744  0.00  0.00     0.181 A 
HETATM   18  H   UNK N   1      32.487  17.171   9.942  0.00  0.00     0.166 HD
ATOM     19  HN  UNK N   1      35.335  17.312   6.912  1.00  0.00     0.166 HD
ENDBRANCH   1   9
BRANCH   1  20
HETATM   20  N   UNK N   1      28.366  16.078   5.710  0.00  0.00    -0.338 N 
HETATM   21  C   UNK N   1      28.851  15.063   4.975  0.00  0.00     0.110 A 
HETATM   22  C   UNK N   1      27.918  14.047   4.998  0.00  0.00     0.106 A 
HETATM   23  N   UNK N   1      26.870  14.443   5.751  0.00  0.00    -0.361 N 
HETATM   24  C   UNK N   1      27.166  15.688   6.173  0.00  0.00     0.183 A 
ATOM     25  HN  UNK N   1      26.026  13.909   5.961  1.00  0.00     0.166 HD
ENDBRANCH   1  20
TORSDOF 3
ENDMDL
MODEL 4
REMARK VINA RESULT:      -6.8      5.401      7.666
REMARK  3 active torsions:
REMARK  status: ('A' for Active; 'I' for Inactive)
REMARK    1  A    between atoms: C_3  and  C_8 
REMARK    2  A    between atoms: C_8  and  C_9 
REMARK    3  A    between atoms: C_8  and  N_19 
ROOT
HETATM    1  C   UNK N   1      32.246  16.962   7.306  0.00  0.00     0.156 C 
ENDROOT
BRANCH   1   2
HETATM    2  C   UNK N   1      30.849  17.330   7.775  0.00  0.00    -0.029 A 
HETATM    3  C   UNK N   1      30.654  18.214   8.847  0.00  0.00     0.010 A 
HETATM    4  C   UNK N   1      29.366  18.567   9.257  0.00  0.00     0.002 A 
HETATM    5  C   UNK N   1      28.255  18.047   8.590  0.00  0.00     0.024 A 
HETATM    6  C   UNK N   1      28.434  17.166   7.522  0.00  0.00     0.034 A 
HETATM    7  C   UNK N   1      29.724  16.805   7.120  0.00  0.00     0.033 A 
HETATM    8 Cl   UNK N   1      27.044  16.531   6.672  0.00  0.00    -0.084 Cl
ENDBRANCH   1   2
BRANCH   1   9
HETATM    9  C   UNK N   1      32.627  16.593   5.883  0.00  0.00    -0.028 A 
HETATM   10  C   UNK N   1      32.456  17.508   4.811  0.00  0.00     0.012 A 
HETATM   11  C   UNK N   1      32.825  17.162   3.496  0.00  0.00     0.032 A 
HETATM   12  C   UNK N   1      33.360  15.896   3.297  0.00  0.00     0.060 A 
HETATM   13  C   UNK N   1      33.521  15.011   4.309  0.00  0.00     0.060 A 
HETATM   14  N   UNK N   1      33.788  15.348   2.151  0.00  0.00    -0.351 N 
HETATM   15  C   UNK N   1      33.169  15.314   5.618  0.00  0.00     0.041 A 
HETATM   16  N   UNK N   1      34.055  13.878   3.839  0.00  0.00    -0.350 N 
HETATM   17  C   UNK N   1      34.212  14.107   2.508  0.00  0.00     0.181 A 
HETATM   18  H   UNK N   1      34.282  13.063   4.343  0.00  0.00     0.166 HD
ATOM     19  HN  UNK N   1      33.795  15.768   1.220  1.00  0.00     0.166 HD
ENDBRANCH   1   9
BRANCH   1  20
HETATM   20  N   UNK N   1      33.322  16.945   8.300  0.00  0.00    -0.338 N 
HETATM   21  C   UNK N   1      33.553  15.975   9.201  0.00  0.00     0.110 A 
HETATM   22  C   UNK N   1      34.638  16.360   9.960  0.00  0.00     0.106 A 
HETATM   23  N   UNK N   1      35.070  17.559   9.515  0.00  0.00    -0.361 N 
HETATM   24  C   UNK N   1      34.247  17.897   8.503  0.00  0.00     0.183 A 
ATOM     25  HN  UNK N   1      35.858  18.100   9.872  1.00  0.00     0.166 HD
ENDBRANCH   1  20
TORSDOF 3
ENDMDL
MODEL 5
REMARK VINA RESULT:      -6.7      4.776      8.388
REMARK  3 active torsions:
REMARK  status: ('A' for Active; 'I' for Inactive)
REMARK    1  A    between atoms: C_3  and  C_8 
REMARK    2  A    between atoms: C_8  and  C_9 
REMARK    3  A    between atoms: C_8  and  N_19 
ROOT
HETATM    1  C   UNK N   1      31.896  16.487   6.035  0.00  0.00     0.156 C 
ENDROOT
BRANCH   1   2
HETATM    2  C   UNK N   1      30.385  16.617   6.121  0.00  0.00    -0.029 A 
HETATM    3  C   UNK N   1      29.541  15.608   5.633  0.00  0.00     0.010 A 
HETATM    4  C   UNK N   1      28.153  15.725   5.738  0.00  0.00     0.002 A 
HETATM    5  C   UNK N   1      27.591  16.850   6.345  0.00  0.00     0.024 A 
HETATM    6  C   UNK N   1      28.419  17.862   6.835  0.00  0.00     0.034 A 
HETATM    7  C   UNK N   1      29.808  17.749   6.720  0.00  0.00     0.033 A 
HETATM    8 Cl   UNK N   1      27.718  19.261   7.616  0.00  0.00    -0.084 Cl
ENDBRANCH   1   2
BRANCH   1   9
HETATM    9  C   UNK N   1      32.868  16.756   7.170  0.00  0.00    -0.028 A 
HETATM   10  C   UNK N   1      33.690  17.914   7.180  0.00  0.00     0.012 A 
HETATM   11  C   UNK N   1      34.579  18.164   8.243  0.00  0.00     0.032 A 
HETATM   12  C   UNK N   1      34.616  17.233   9.274  0.00  0.00     0.060 A 
HETATM   13  C   UNK N   1      33.843  16.122   9.273  0.00  0.00     0.060 A 
HETATM   14  N   UNK N   1      35.366  17.257  10.385  0.00  0.00    -0.351 N 
HETATM   15  C   UNK N   1      32.955  15.840   8.243  0.00  0.00     0.041 A 
HETATM   16  N   UNK N   1      34.077  15.406  10.380  0.00  0.00    -0.350 N 
HETATM   17  C   UNK N   1      35.018  16.124  11.050  0.00  0.00     0.181 A 
HETATM   18  H   UNK N   1      33.662  14.555  10.646  0.00  0.00     0.166 HD
ATOM     19  HN  UNK N   1      36.044  17.965  10.668  1.00  0.00     0.166 HD
ENDBRANCH   1   9
BRANCH   1  20
HETATM   20  N   UNK N   1      32.477  16.080   4.753  0.00  0.00    -0.338 N 
HETATM   21  C   UNK N   1      33.071  14.904   4.490  0.00  0.00     0.110 A 
HETATM   22  C   UNK N   1      33.502  14.938   3.180  0.00  0.00     0.106 A 
HETATM   23  N   UNK N   1      33.163  16.131   2.647  0.00  0.00    -0.361 N 
HETATM   24  C   UNK N   1      32.541  16.812   3.629  0.00  0.00     0.183 A 
ATOM     25  HN  UNK N   1      33.341  16.452   1.694  1.00  0.00     0.166 HD
ENDBRANCH   1  20
TORSDOF 3
ENDMDL
MODEL 6
REMARK VINA RESULT:      -6.6      5.388      9.298
REMARK  3 active torsions:
REMARK  status: ('A' for Active; 'I' for Inactive)
REMARK    1  A    between atoms: C_3  and  C_8 
REMARK    2  A    between atoms: C_8  and  C_9 
REMARK    3  A    between atoms: C_8  and  N_19 
ROOT
HETATM    1  C   UNK N   1      32.266  16.660   7.770  0.00  0.00     0.156 C 
ENDROOT
BRANCH   1   2
HETATM    2  C   UNK N   1      30.878  17.230   8.009  0.00  0.00    -0.029 A 
HETATM    3  C   UNK N   1      30.651  18.191   9.006  0.00  0.00     0.010 A 
HETATM    4  C   UNK N   1      29.376  18.727   9.204  0.00  0.00     0.002 A 
HETATM    5  C   UNK N   1      28.313  18.316   8.396  0.00  0.00     0.024 A 
HETATM    6  C   UNK N   1      28.525  17.361   7.400  0.00  0.00     0.034 A 
HETATM    7  C   UNK N   1      29.800  16.817   7.211  0.00  0.00     0.033 A 
HETATM    8 Cl   UNK N   1      27.201  16.863   6.373  0.00  0.00    -0.084 Cl
ENDBRANCH   1   2
BRANCH   1   9
HETATM    9  C   UNK N   1      33.278  16.325   8.851  0.00  0.00    -0.028 A 
HETATM   10  C   UNK N   1      34.331  17.219   9.181  0.00  0.00     0.012 A 
HETATM   11  C   UNK N   1      35.257  16.906  10.195  0.00  0.00     0.032 A 
HETATM   12  C   UNK N   1      35.095  15.694  10.854  0.00  0.00     0.060 A 
HETATM   13  C   UNK N   1      34.100  14.830  10.544  0.00  0.00     0.060 A 
HETATM   14  N   UNK N   1      35.836  15.186  11.848  0.00  0.00    -0.351 N 
HETATM   15  C   UNK N   1      33.168  15.101   9.550  0.00  0.00     0.041 A 
HETATM   16  N   UNK N   1      34.177  13.749  11.330  0.00  0.00    -0.350 N 
HETATM   17  C   UNK N   1      35.254  13.990  12.125  0.00  0.00     0.181 A 
HETATM   18  H   UNK N   1      33.589  12.960  11.330  0.00  0.00     0.166 HD
ATOM     19  HN  UNK N   1      36.653  15.602  12.296  1.00  0.00     0.166 HD
ENDBRANCH   1   9
BRANCH   1  20
HETATM   20  N   UNK N   1      32.681  16.423   6.385  0.00  0.00    -0.338 N 
HETATM   21  C   UNK N   1      32.843  15.223   5.801  0.00  0.00     0.110 A 
HETATM   22  C   UNK N   1      33.264  15.443   4.506  0.00  0.00     0.106 A 
HETATM   23  N   UNK N   1      33.351  16.775   4.303  0.00  0.00    -0.361 N 
HETATM   24  C   UNK N   1      32.992  17.351   5.466  0.00  0.00     0.183 A 
ATOM     25  HN  UNK N   1      33.630  17.249   3.443  1.00  0.00     0.166 HD
ENDBRANCH   1  20
TORSDOF 3
ENDMDL
MODEL 7
REMARK VINA RESULT:      -6.5     10.016     12.540
REMARK  3 active torsions:
REMARK  status: ('A' for Active; 'I' for Inactive)
REMARK    1  A    between atoms: C_3  and  C_8 
REMARK    2  A    between atoms: C_8  and  C_9 
REMARK    3  A    between atoms: C_8  and  N_19 
ROOT
HETATM    1  C   UNK N   1      27.594  25.028  -4.719  0.00  0.00     0.156 C 
ENDROOT
BRANCH   1   2
HETATM    2  C   UNK N   1      28.688  24.285  -3.970  0.00  0.00    -0.029 A 
HETATM    3  C   UNK N   1      28.420  23.631  -2.758  0.00  0.00     0.010 A 
HETATM    4  C   UNK N   1      29.426  22.930  -2.088  0.00  0.00     0.002 A 
HETATM    5  C   UNK N   1      30.711  22.864  -2.630  0.00  0.00     0.024 A 
HETATM    6  C   UNK N   1      30.991  23.509  -3.836  0.00  0.00     0.034 A 
HETATM    7  C   UNK N   1      29.986  24.220  -4.501  0.00  0.00     0.033 A 
HETATM    8 Cl   UNK N   1      32.593  23.407  -4.529  0.00  0.00    -0.084 Cl
ENDBRANCH   1   2
BRANCH   1   9
HETATM    9  C   UNK N   1      27.137  26.446  -4.429  0.00  0.00    -0.028 A 
HETATM   10  C   UNK N   1      25.802  26.859  -4.683  0.00  0.00     0.012 A 
HETATM   11  C   UNK N   1      25.383  28.173  -4.398  0.00  0.00     0.032 A 
HETATM   12  C   UNK N   1      26.326  29.040  -3.861  0.00  0.00     0.060 A 
HETATM   13  C   UNK N   1      27.603  28.661  -3.621  0.00  0.00     0.060 A 
HETATM   14  N   UNK N   1      26.164  30.322  -3.503  0.00  0.00    -0.351 N 
HETATM   15  C   UNK N   1      28.055  27.375  -3.890  0.00  0.00     0.041 A 
HETATM   16  N   UNK N   1      28.291  29.687  -3.105  0.00  0.00    -0.350 N 
HETATM   17  C   UNK N   1      27.385  30.699  -3.040  0.00  0.00     0.181 A 
HETATM   18  H   UNK N   1      29.237  29.703  -2.834  0.00  0.00     0.166 HD
ATOM     19  HN  UNK N   1      25.316  30.886  -3.563  1.00  0.00     0.166 HD
ENDBRANCH   1   9
BRANCH   1  20
HETATM   20  N   UNK N   1      26.907  24.324  -5.805  0.00  0.00    -0.338 N 
HETATM   21  C   UNK N   1      27.189  24.420  -7.115  0.00  0.00     0.110 A 
HETATM   22  C   UNK N   1      26.294  23.621  -7.795  0.00  0.00     0.106 A 
HETATM   23  N   UNK N   1      25.474  23.034  -6.897  0.00  0.00    -0.361 N 
HETATM   24  C   UNK N   1      25.866  23.483  -5.689  0.00  0.00     0.183 A 
ATOM     25  HN  UNK N   1      24.712  22.384  -7.093  1.00  0.00     0.166 HD
ENDBRANCH   1  20
TORSDOF 3
ENDMDL
MODEL 8
REMARK VINA RESULT:      -6.4      3.561      5.659
REMARK  3 active torsions:
REMARK  status: ('A' for Active; 'I' for Inactive)
REMARK    1  A    between atoms: C_3  and  C_8 
REMARK    2  A    between atoms: C_8  and  C_9 
REMARK    3  A    between atoms: C_8  and  N_19 
ROOT
HETATM    1  C   UNK N   1      31.820  16.760   5.899  0.00  0.00     0.156 C 
ENDROOT
BRANCH   1   2
HETATM    2  C   UNK N   1      32.812  16.861   7.046  0.00  0.00    -0.029 A 
HETATM    3  C   UNK N   1      33.612  18.002   7.214  0.00  0.00     0.010 A 
HETATM    4  C   UNK N   1      34.503  18.097   8.286  0.00  0.00     0.002 A 
HETATM    5  C   UNK N   1      34.596  17.055   9.211  0.00  0.00     0.024 A 
HETATM    6  C   UNK N   1      33.806  15.915   9.056  0.00  0.00     0.034 A 
HETATM    7  C   UNK N   1      32.922  15.816   7.977  0.00  0.00     0.033 A 
HETATM    8 Cl   UNK N   1      33.905  14.619  10.226  0.00  0.00    -0.084 Cl
ENDBRANCH   1   2
BRANCH   1   9
HETATM    9  C   UNK N   1      30.380  17.238   5.937  0.00  0.00    -0.028 A 
HETATM   10  C   UNK N   1      29.599  17.142   7.119  0.00  0.00     0.012 A 
HETATM   11  C   UNK N   1      28.268  17.600   7.149  0.00  0.00     0.032 A 
HETATM   12  C   UNK N   1      27.756  18.148   5.980  0.00  0.00     0.060 A 
HETATM   13  C   UNK N   1      28.487  18.239   4.844  0.00  0.00     0.060 A 
HETATM   14  N   UNK N   1      26.534  18.654   5.767  0.00  0.00    -0.351 N 
HETATM   15  C   UNK N   1      29.803  17.797   4.773  0.00  0.00     0.041 A 
HETATM   16  N   UNK N   1      27.754  18.804   3.877  0.00  0.00    -0.350 N 
HETATM   17  C   UNK N   1      26.555  19.052   4.468  0.00  0.00     0.181 A 
HETATM   18  H   UNK N   1      28.023  18.996   2.950  0.00  0.00     0.166 HD
ATOM     19  HN  UNK N   1      25.762  18.725   6.431  1.00  0.00     0.166 HD
ENDBRANCH   1   9
BRANCH   1  20
HETATM   20  N   UNK N   1      32.275  16.140   4.652  0.00  0.00    -0.338 N 
HETATM   21  C   UNK N   1      32.056  14.870   4.273  0.00  0.00     0.110 A 
HETATM   22  C   UNK N   1      32.673  14.686   3.053  0.00  0.00     0.106 A 
HETATM   23  N   UNK N   1      33.260  15.846   2.689  0.00  0.00    -0.361 N 
HETATM   24  C   UNK N   1      33.005  16.718   3.684  0.00  0.00     0.183 A 
ATOM     25  HN  UNK N   1      33.789  16.027   1.835  1.00  0.00     0.166 HD
ENDBRANCH   1  20
TORSDOF 3
ENDMDL
MODEL 9
REMARK VINA RESULT:      -6.4      9.969     12.988
REMARK  3 active torsions:
REMARK  status: ('A' for Active; 'I' for Inactive)
REMARK    1  A    between atoms: C_3  and  C_8 
REMARK    2  A    between atoms: C_8  and  C_9 
REMARK    3  A    between atoms: C_8  and  N_19 
ROOT
HETATM    1  C   UNK N   1      27.558  24.709  -4.917  0.00  0.00     0.156 C 
ENDROOT
BRANCH   1   2
HETATM    2  C   UNK N   1      27.338  26.104  -4.357  0.00  0.00    -0.029 A 
HETATM    3  C   UNK N   1      26.055  26.549  -4.005  0.00  0.00     0.010 A 
HETATM    4  C   UNK N   1      25.864  27.825  -3.468  0.00  0.00     0.002 A 
HETATM    5  C   UNK N   1      26.959  28.668  -3.266  0.00  0.00     0.024 A 
HETATM    6  C   UNK N   1      28.241  28.238  -3.611  0.00  0.00     0.034 A 
HETATM    7  C   UNK N   1      28.429  26.964  -4.159  0.00  0.00     0.033 A 
HETATM    8 Cl   UNK N   1      29.616  29.283  -3.336  0.00  0.00    -0.084 Cl
ENDBRANCH   1   2
BRANCH   1   9
HETATM    9  C   UNK N   1      28.571  23.703  -4.399  0.00  0.00    -0.028 A 
HETATM   10  C   UNK N   1      28.865  23.596  -3.014  0.00  0.00     0.012 A 
HETATM   11  C   UNK N   1      29.796  22.651  -2.541  0.00  0.00     0.032 A 
HETATM   12  C   UNK N   1      30.409  21.834  -3.483  0.00  0.00     0.060 A 
HETATM   13  C   UNK N   1      30.143  21.931  -4.806  0.00  0.00     0.060 A 
HETATM   14  N   UNK N   1      31.312  20.865  -3.277  0.00  0.00    -0.351 N 
HETATM   15  C   UNK N   1      29.233  22.851  -5.313  0.00  0.00     0.041 A 
HETATM   16  N   UNK N   1      30.867  21.030  -5.481  0.00  0.00    -0.350 N 
HETATM   17  C   UNK N   1      31.579  20.384  -4.519  0.00  0.00     0.181 A 
HETATM   18  H   UNK N   1      30.880  20.871  -6.452  0.00  0.00     0.166 HD
ATOM     19  HN  UNK N   1      31.709  20.558  -2.388  1.00  0.00     0.166 HD
ENDBRANCH   1   9
BRANCH   1  20
HETATM   20  N   UNK N   1      26.742  24.291  -6.059  0.00  0.00    -0.338 N 
HETATM   21  C   UNK N   1      26.773  24.824  -7.292  0.00  0.00     0.110 A 
HETATM   22  C   UNK N   1      25.834  24.163  -8.057  0.00  0.00     0.106 A 
HETATM   23  N   UNK N   1      25.238  23.226  -7.289  0.00  0.00    -0.361 N 
HETATM   24  C   UNK N   1      25.807  23.326  -6.072  0.00  0.00     0.183 A 
ATOM     25  HN  UNK N   1      24.505  22.574  -7.572  1.00  0.00     0.166 HD
ENDBRANCH   1  20
TORSDOF 3
ENDMDL
