MODEL 1
REMARK VINA RESULT:      -4.3      0.000      0.000
REMARK  6 active torsions:
REMARK  status: ('A' for Active; 'I' for Inactive)
REMARK    1  A    between atoms: N_2  and  C_3 
REMARK       I    between atoms: N_2  and  C_10 
REMARK    2  A    between atoms: C_3  and  C_4 
REMARK    3  A    between atoms: C_4  and  O_5 
REMARK    4  A    between atoms: O_5  and  P_6 
REMARK    5  A    between atoms: P_6  and  O_8 
REMARK    6  A    between atoms: P_6  and  O_9 
REMARK       I    between atoms: C_10  and  N_13 
ROOT
HETATM    1  C   UNK N   1      36.234  12.750   8.706  0.00  0.00     0.168 C 
HETATM    2  N   UNK N   1      35.945  13.954   9.446  0.00  0.00    -0.221 N 
HETATM    3  C   UNK N   1      36.927  14.517  10.317  0.00  0.00     0.667 C 
HETATM    4  N   UNK N   1      38.067  13.952  10.464  0.00  0.00    -0.235 N 
ATOM      5  HN  UNK N   1      38.184  12.994  10.130  1.00  0.00     0.174 HD
HETATM    6  N   UNK N   1      36.639  15.694  11.051  0.00  0.00    -0.235 N 
HETATM    7  H   UNK N   1      38.835  14.400  10.885  0.00  0.00     0.174 HD
HETATM    8  H   UNK N   1      35.803  16.195  10.918  0.00  0.00     0.174 HD
HETATM    9  H   UNK N   1      37.294  16.019  11.711  0.00  0.00     0.174 HD
ENDROOT
BRANCH   2  10
HETATM   10  C   UNK N   1      34.607  14.491   9.381  0.00  0.00     0.167 C 
BRANCH  10  11
HETATM   11  C   UNK N   1      34.378  15.311   8.119  0.00  0.00     0.201 C 
BRANCH  11  12
HETATM   12  O   UNK N   1      35.190  16.450   8.184  0.00  0.00    -0.295 OA
BRANCH  12  13
HETATM   13  P   UNK N   1      34.116  17.795   8.451  0.00  0.00     0.390 P 
HETATM   14  O   UNK N   1      34.850  19.149   8.259  0.00  0.00    -0.632 OA
BRANCH  13  15
HETATM   15  O   UNK N   1      34.628  17.785   6.792  0.00  0.00    -0.307 OA
HETATM   16  H   UNK N   1      35.511  17.508   6.501  0.00  0.00     0.222 HD
ENDBRANCH  13  15
BRANCH  13  17
HETATM   17  O   UNK N   1      35.313  17.835   9.712  0.00  0.00    -0.307 OA
HETATM   18  H   UNK N   1      35.444  18.340  10.529  0.00  0.00     0.222 HD
ENDBRANCH  13  17
ENDBRANCH  12  13
ENDBRANCH  11  12
ENDBRANCH  10  11
ENDBRANCH   2  10
TORSDOF 6
ENDMDL
MODEL 2
REMARK VINA RESULT:      -4.3     13.797     14.434
REMARK  6 active torsions:
REMARK  status: ('A' for Active; 'I' for Inactive)
REMARK    1  A    between atoms: N_2  and  C_3 
REMARK       I    between atoms: N_2  and  C_10 
REMARK    2  A    between atoms: C_3  and  C_4 
REMARK    3  A    between atoms: C_4  and  O_5 
REMARK    4  A    between atoms: O_5  and  P_6 
REMARK    5  A    between atoms: P_6  and  O_8 
REMARK    6  A    between atoms: P_6  and  O_9 
REMARK       I    between atoms: C_10  and  N_13 
ROOT
HETATM    1  C   UNK N   1      23.518  13.272   9.219  0.00  0.00     0.168 C 
HETATM    2  N   UNK N   1      22.754  12.733  10.317  0.00  0.00    -0.221 N 
HETATM    3  C   UNK N   1      23.418  12.172  11.450  0.00  0.00     0.667 C 
HETATM    4  N   UNK N   1      24.697  12.124  11.497  0.00  0.00    -0.235 N 
ATOM      5  HN  UNK N   1      25.223  12.286  10.637  1.00  0.00     0.174 HD
HETATM    6  N   UNK N   1      22.666  11.634  12.523  0.00  0.00    -0.235 N 
HETATM    7  H   UNK N   1      25.194  11.937  12.325  0.00  0.00     0.174 HD
HETATM    8  H   UNK N   1      21.685  11.709  12.558  0.00  0.00     0.174 HD
HETATM    9  H   UNK N   1      23.137  11.174  13.255  0.00  0.00     0.174 HD
ENDROOT
BRANCH   2  10
HETATM   10  C   UNK N   1      21.319  12.661  10.180  0.00  0.00     0.167 C 
BRANCH  10  11
HETATM   11  C   UNK N   1      20.705  14.014   9.846  0.00  0.00     0.201 C 
BRANCH  11  12
HETATM   12  O   UNK N   1      20.122  13.928   8.576  0.00  0.00    -0.295 OA
BRANCH  12  13
HETATM   13  P   UNK N   1      20.262  15.515   7.871  0.00  0.00     0.390 P 
HETATM   14  O   UNK N   1      18.923  15.967   7.230  0.00  0.00    -0.632 OA
BRANCH  13  15
HETATM   15  O   UNK N   1      19.139  15.567   9.194  0.00  0.00    -0.307 OA
HETATM   16  H   UNK N   1      18.924  14.802   9.751  0.00  0.00     0.222 HD
ENDBRANCH  13  15
BRANCH  13  17
HETATM   17  O   UNK N   1      19.992  14.395   6.568  0.00  0.00    -0.307 OA
HETATM   18  H   UNK N   1      20.268  14.331   5.640  0.00  0.00     0.222 HD
ENDBRANCH  13  17
ENDBRANCH  12  13
ENDBRANCH  11  12
ENDBRANCH  10  11
ENDBRANCH   2  10
TORSDOF 6
ENDMDL
MODEL 3
REMARK VINA RESULT:      -4.3      1.828      2.162
REMARK  6 active torsions:
REMARK  status: ('A' for Active; 'I' for Inactive)
REMARK    1  A    between atoms: N_2  and  C_3 
REMARK       I    between atoms: N_2  and  C_10 
REMARK    2  A    between atoms: C_3  and  C_4 
REMARK    3  A    between atoms: C_4  and  O_5 
REMARK    4  A    between atoms: O_5  and  P_6 
REMARK    5  A    between atoms: P_6  and  O_8 
REMARK    6  A    between atoms: P_6  and  O_9 
REMARK       I    between atoms: C_10  and  N_13 
ROOT
HETATM    1  C   UNK N   1      35.979  13.646   9.931  0.00  0.00     0.168 C 
HETATM    2  N   UNK N   1      36.226  14.424  11.120  0.00  0.00    -0.221 N 
HETATM    3  C   UNK N   1      36.437  13.774  12.375  0.00  0.00     0.667 C 
HETATM    4  N   UNK N   1      36.391  12.497  12.461  0.00  0.00    -0.235 N 
ATOM      5  HN  UNK N   1      35.992  11.969  11.684  1.00  0.00     0.174 HD
HETATM    6  N   UNK N   1      36.670  14.538  13.544  0.00  0.00    -0.235 N 
HETATM    7  H   UNK N   1      36.724  12.003  13.244  0.00  0.00     0.174 HD
HETATM    8  H   UNK N   1      36.778  15.516  13.510  0.00  0.00     0.174 HD
HETATM    9  H   UNK N   1      36.726  14.080  14.413  0.00  0.00     0.174 HD
ENDROOT
BRANCH   2  10
HETATM   10  C   UNK N   1      36.127  15.861  11.030  0.00  0.00     0.167 C 
BRANCH  10  11
HETATM   11  C   UNK N   1      34.942  16.304  10.183  0.00  0.00     0.201 C 
BRANCH  11  12
HETATM   12  O   UNK N   1      35.203  17.597   9.710  0.00  0.00    -0.295 OA
BRANCH  12  13
HETATM   13  P   UNK N   1      34.417  17.711   8.159  0.00  0.00     0.390 P 
HETATM   14  O   UNK N   1      33.297  18.784   8.173  0.00  0.00    -0.632 OA
BRANCH  13  15
HETATM   15  O   UNK N   1      35.242  19.201   8.501  0.00  0.00    -0.307 OA
HETATM   16  H   UNK N   1      35.197  19.659   9.354  0.00  0.00     0.222 HD
ENDBRANCH  13  15
BRANCH  13  17
HETATM   17  O   UNK N   1      33.240  17.110   9.289  0.00  0.00    -0.307 OA
HETATM   18  H   UNK N   1      32.496  17.489   9.782  0.00  0.00     0.222 HD
ENDBRANCH  13  17
ENDBRANCH  12  13
ENDBRANCH  11  12
ENDBRANCH  10  11
ENDBRANCH   2  10
TORSDOF 6
ENDMDL
MODEL 4
REMARK VINA RESULT:      -4.2      4.120      4.970
REMARK  6 active torsions:
REMARK  status: ('A' for Active; 'I' for Inactive)
REMARK    1  A    between atoms: N_2  and  C_3 
REMARK       I    between atoms: N_2  and  C_10 
REMARK    2  A    between atoms: C_3  and  C_4 
REMARK    3  A    between atoms: C_4  and  O_5 
REMARK    4  A    between atoms: O_5  and  P_6 
REMARK    5  A    between atoms: P_6  and  O_8 
REMARK    6  A    between atoms: P_6  and  O_9 
REMARK       I    between atoms: C_10  and  N_13 
ROOT
HETATM    1  C   UNK N   1      35.127  14.478   8.177  0.00  0.00     0.168 C 
HETATM    2  N   UNK N   1      35.522  15.136   9.397  0.00  0.00    -0.221 N 
HETATM    3  C   UNK N   1      34.724  16.191   9.937  0.00  0.00     0.667 C 
HETATM    4  N   UNK N   1      33.661  16.577   9.335  0.00  0.00    -0.235 N 
ATOM      5  HN  UNK N   1      33.511  16.278   8.370  1.00  0.00     0.174 HD
HETATM    6  N   UNK N   1      35.117  16.843  11.131  0.00  0.00    -0.235 N 
HETATM    7  H   UNK N   1      32.983  17.148   9.762  0.00  0.00     0.174 HD
HETATM    8  H   UNK N   1      35.889  16.536  11.659  0.00  0.00     0.174 HD
HETATM    9  H   UNK N   1      34.605  17.625  11.442  0.00  0.00     0.174 HD
ENDROOT
BRANCH   2  10
HETATM   10  C   UNK N   1      36.795  14.789   9.980  0.00  0.00     0.167 C 
BRANCH  10  11
HETATM   11  C   UNK N   1      36.680  13.643  10.975  0.00  0.00     0.201 C 
BRANCH  11  12
HETATM   12  O   UNK N   1      36.425  14.188  12.241  0.00  0.00    -0.295 OA
BRANCH  12  13
HETATM   13  P   UNK N   1      35.728  12.903  13.188  0.00  0.00     0.390 P 
HETATM   14  O   UNK N   1      34.942  13.463  14.403  0.00  0.00    -0.632 OA
BRANCH  13  15
HETATM   15  O   UNK N   1      34.459  13.860  12.487  0.00  0.00    -0.307 OA
HETATM   16  H   UNK N   1      34.347  14.810  12.648  0.00  0.00     0.222 HD
ENDBRANCH  13  15
BRANCH  13  17
HETATM   17  O   UNK N   1      36.931  13.677  14.177  0.00  0.00    -0.307 OA
HETATM   18  H   UNK N   1      37.165  14.593  14.395  0.00  0.00     0.222 HD
ENDBRANCH  13  17
ENDBRANCH  12  13
ENDBRANCH  11  12
ENDBRANCH  10  11
ENDBRANCH   2  10
TORSDOF 6
ENDMDL
MODEL 5
REMARK VINA RESULT:      -4.1      5.006      5.992
REMARK  6 active torsions:
REMARK  status: ('A' for Active; 'I' for Inactive)
REMARK    1  A    between atoms: N_2  and  C_3 
REMARK       I    between atoms: N_2  and  C_10 
REMARK    2  A    between atoms: C_3  and  C_4 
REMARK    3  A    between atoms: C_4  and  O_5 
REMARK    4  A    between atoms: O_5  and  P_6 
REMARK    5  A    between atoms: P_6  and  O_8 
REMARK    6  A    between atoms: P_6  and  O_9 
REMARK       I    between atoms: C_10  and  N_13 
ROOT
HETATM    1  C   UNK N   1      28.749  16.909   6.864  0.00  0.00     0.168 C 
HETATM    2  N   UNK N   1      29.605  17.494   7.866  0.00  0.00    -0.221 N 
HETATM    3  C   UNK N   1      29.042  18.081   9.040  0.00  0.00     0.667 C 
HETATM    4  N   UNK N   1      27.772  18.111   9.208  0.00  0.00    -0.235 N 
ATOM      5  HN  UNK N   1      27.170  17.913   8.409  1.00  0.00     0.174 HD
HETATM    6  N   UNK N   1      29.882  18.664  10.020  0.00  0.00    -0.235 N 
HETATM    7  H   UNK N   1      27.353  18.316  10.074  0.00  0.00     0.174 HD
HETATM    8  H   UNK N   1      30.863  18.606   9.962  0.00  0.00     0.174 HD
HETATM    9  H   UNK N   1      29.475  19.141  10.779  0.00  0.00     0.174 HD
ENDROOT
BRANCH   2  10
HETATM   10  C   UNK N   1      31.019  17.583   7.590  0.00  0.00     0.167 C 
BRANCH  10  11
HETATM   11  C   UNK N   1      31.766  16.324   8.004  0.00  0.00     0.201 C 
BRANCH  11  12
HETATM   12  O   UNK N   1      33.130  16.522   7.751  0.00  0.00    -0.295 OA
BRANCH  12  13
HETATM   13  P   UNK N   1      33.423  18.223   7.987  0.00  0.00     0.390 P 
HETATM   14  O   UNK N   1      34.935  18.511   8.186  0.00  0.00    -0.632 OA
BRANCH  13  15
HETATM   15  O   UNK N   1      34.166  17.708   6.504  0.00  0.00    -0.307 OA
HETATM   16  H   UNK N   1      34.932  18.147   6.103  0.00  0.00     0.222 HD
ENDBRANCH  13  15
BRANCH  13  17
HETATM   17  O   UNK N   1      33.838  17.418   9.472  0.00  0.00    -0.307 OA
HETATM   18  H   UNK N   1      34.477  16.739   9.737  0.00  0.00     0.222 HD
ENDBRANCH  13  17
ENDBRANCH  12  13
ENDBRANCH  11  12
ENDBRANCH  10  11
ENDBRANCH   2  10
TORSDOF 6
ENDMDL
MODEL 6
REMARK VINA RESULT:      -4.1      4.349      5.368
REMARK  6 active torsions:
REMARK  status: ('A' for Active; 'I' for Inactive)
REMARK    1  A    between atoms: N_2  and  C_3 
REMARK       I    between atoms: N_2  and  C_10 
REMARK    2  A    between atoms: C_3  and  C_4 
REMARK    3  A    between atoms: C_4  and  O_5 
REMARK    4  A    between atoms: O_5  and  P_6 
REMARK    5  A    between atoms: P_6  and  O_8 
REMARK    6  A    between atoms: P_6  and  O_9 
REMARK       I    between atoms: C_10  and  N_13 
ROOT
HETATM    1  C   UNK N   1      30.150  17.073   6.516  0.00  0.00     0.168 C 
HETATM    2  N   UNK N   1      31.407  16.580   6.011  0.00  0.00    -0.221 N 
HETATM    3  C   UNK N   1      31.913  17.045   4.759  0.00  0.00     0.667 C 
HETATM    4  N   UNK N   1      31.248  17.890   4.062  0.00  0.00    -0.235 N 
ATOM      5  HN  UNK N   1      30.269  18.057   4.301  1.00  0.00     0.174 HD
HETATM    6  N   UNK N   1      33.143  16.554   4.259  0.00  0.00    -0.235 N 
HETATM    7  H   UNK N   1      31.639  18.384   3.307  0.00  0.00     0.174 HD
HETATM    8  H   UNK N   1      33.716  15.955   4.791  0.00  0.00     0.174 HD
HETATM    9  H   UNK N   1      33.434  16.818   3.356  0.00  0.00     0.174 HD
ENDROOT
BRANCH   2  10
HETATM   10  C   UNK N   1      32.067  15.522   6.737  0.00  0.00     0.167 C 
BRANCH  10  11
HETATM   11  C   UNK N   1      32.629  16.001   8.068  0.00  0.00     0.201 C 
BRANCH  11  12
HETATM   12  O   UNK N   1      33.894  16.556   7.834  0.00  0.00    -0.295 OA
BRANCH  12  13
HETATM   13  P   UNK N   1      33.748  18.256   8.186  0.00  0.00     0.390 P 
HETATM   14  O   UNK N   1      35.140  18.907   8.403  0.00  0.00    -0.632 OA
BRANCH  13  15
HETATM   15  O   UNK N   1      34.571  18.047   6.671  0.00  0.00    -0.307 OA
HETATM   16  H   UNK N   1      35.066  18.750   6.223  0.00  0.00     0.222 HD
ENDBRANCH  13  15
BRANCH  13  17
HETATM   17  O   UNK N   1      34.381  17.488   9.612  0.00  0.00    -0.307 OA
HETATM   18  H   UNK N   1      35.132  17.641  10.206  0.00  0.00     0.222 HD
ENDBRANCH  13  17
ENDBRANCH  12  13
ENDBRANCH  11  12
ENDBRANCH  10  11
ENDBRANCH   2  10
TORSDOF 6
ENDMDL
MODEL 7
REMARK VINA RESULT:      -4.0     11.975     12.354
REMARK  6 active torsions:
REMARK  status: ('A' for Active; 'I' for Inactive)
REMARK    1  A    between atoms: N_2  and  C_3 
REMARK       I    between atoms: N_2  and  C_10 
REMARK    2  A    between atoms: C_3  and  C_4 
REMARK    3  A    between atoms: C_4  and  O_5 
REMARK    4  A    between atoms: O_5  and  P_6 
REMARK    5  A    between atoms: P_6  and  O_8 
REMARK    6  A    between atoms: P_6  and  O_9 
REMARK       I    between atoms: C_10  and  N_13 
ROOT
HETATM    1  C   UNK N   1      44.286  20.067   2.970  0.00  0.00     0.168 C 
HETATM    2  N   UNK N   1      43.606  21.299   3.284  0.00  0.00    -0.221 N 
HETATM    3  C   UNK N   1      44.310  22.372   3.910  0.00  0.00     0.667 C 
HETATM    4  N   UNK N   1      45.548  22.246   4.217  0.00  0.00    -0.235 N 
ATOM      5  HN  UNK N   1      45.960  21.313   4.210  1.00  0.00     0.174 HD
HETATM    6  N   UNK N   1      43.639  23.579   4.225  0.00  0.00    -0.235 N 
HETATM    7  H   UNK N   1      46.118  23.011   4.458  0.00  0.00     0.174 HD
HETATM    8  H   UNK N   1      42.708  23.741   3.949  0.00  0.00     0.174 HD
HETATM    9  H   UNK N   1      44.116  24.274   4.734  0.00  0.00     0.174 HD
ENDROOT
BRANCH   2  10
HETATM   10  C   UNK N   1      42.181  21.367   3.066  0.00  0.00     0.167 C 
BRANCH  10  11
HETATM   11  C   UNK N   1      41.834  21.930   1.695  0.00  0.00     0.201 C 
BRANCH  11  12
HETATM   12  O   UNK N   1      41.783  23.326   1.796  0.00  0.00    -0.295 OA
BRANCH  12  13
HETATM   13  P   UNK N   1      42.119  23.939   0.200  0.00  0.00     0.390 P 
HETATM   14  O   UNK N   1      42.208  25.488   0.199  0.00  0.00    -0.632 OA
BRANCH  13  15
HETATM   15  O   UNK N   1      43.452  24.303   1.252  0.00  0.00    -0.307 OA
HETATM   16  H   UNK N   1      43.976  25.117   1.199  0.00  0.00     0.222 HD
ENDBRANCH  13  15
BRANCH  13  17
HETATM   17  O   UNK N   1      40.523  24.476   0.631  0.00  0.00    -0.307 OA
HETATM   18  H   UNK N   1      39.795  24.126   1.169  0.00  0.00     0.222 HD
ENDBRANCH  13  17
ENDBRANCH  12  13
ENDBRANCH  11  12
ENDBRANCH  10  11
ENDBRANCH   2  10
TORSDOF 6
ENDMDL
MODEL 8
REMARK VINA RESULT:      -4.0      5.486      6.603
REMARK  6 active torsions:
REMARK  status: ('A' for Active; 'I' for Inactive)
REMARK    1  A    between atoms: N_2  and  C_3 
REMARK       I    between atoms: N_2  and  C_10 
REMARK    2  A    between atoms: C_3  and  C_4 
REMARK    3  A    between atoms: C_4  and  O_5 
REMARK    4  A    between atoms: O_5  and  P_6 
REMARK    5  A    between atoms: P_6  and  O_8 
REMARK    6  A    between atoms: P_6  and  O_9 
REMARK       I    between atoms: C_10  and  N_13 
ROOT
HETATM    1  C   UNK N   1      29.945  17.316   6.129  0.00  0.00     0.168 C 
HETATM    2  N   UNK N   1      29.528  17.622   7.475  0.00  0.00    -0.221 N 
HETATM    3  C   UNK N   1      28.227  18.158   7.722  0.00  0.00     0.667 C 
HETATM    4  N   UNK N   1      27.424  18.390   6.751  0.00  0.00    -0.235 N 
ATOM      5  HN  UNK N   1      27.796  18.395   5.800  1.00  0.00     0.174 HD
HETATM    6  N   UNK N   1      27.821  18.466   9.043  0.00  0.00    -0.235 N 
HETATM    7  H   UNK N   1      26.464  18.564   6.882  0.00  0.00     0.174 HD
HETATM    8  H   UNK N   1      28.380  18.244   9.822  0.00  0.00     0.174 HD
HETATM    9  H   UNK N   1      26.957  18.916   9.187  0.00  0.00     0.174 HD
ENDROOT
BRANCH   2  10
HETATM   10  C   UNK N   1      30.497  17.493   8.536  0.00  0.00     0.167 C 
BRANCH  10  11
HETATM   11  C   UNK N   1      31.927  17.518   8.016  0.00  0.00     0.201 C 
BRANCH  11  12
HETATM   12  O   UNK N   1      32.791  17.335   9.103  0.00  0.00    -0.295 OA
BRANCH  12  13
HETATM   13  P   UNK N   1      34.397  17.242   8.434  0.00  0.00     0.390 P 
HETATM   14  O   UNK N   1      35.254  18.464   8.856  0.00  0.00    -0.632 OA
BRANCH  13  15
HETATM   15  O   UNK N   1      34.484  17.140  10.166  0.00  0.00    -0.307 OA
HETATM   16  H   UNK N   1      33.972  16.510  10.697  0.00  0.00     0.222 HD
ENDBRANCH  13  15
BRANCH  13  17
HETATM   17  O   UNK N   1      33.612  18.609   7.701  0.00  0.00    -0.307 OA
HETATM   18  H   UNK N   1      33.788  19.183   6.939  0.00  0.00     0.222 HD
ENDBRANCH  13  17
ENDBRANCH  12  13
ENDBRANCH  11  12
ENDBRANCH  10  11
ENDBRANCH   2  10
TORSDOF 6
ENDMDL
MODEL 9
REMARK VINA RESULT:      -3.9     14.270     14.642
REMARK  6 active torsions:
REMARK  status: ('A' for Active; 'I' for Inactive)
REMARK    1  A    between atoms: N_2  and  C_3 
REMARK       I    between atoms: N_2  and  C_10 
REMARK    2  A    between atoms: C_3  and  C_4 
REMARK    3  A    between atoms: C_4  and  O_5 
REMARK    4  A    between atoms: O_5  and  P_6 
REMARK    5  A    between atoms: P_6  and  O_8 
REMARK    6  A    between atoms: P_6  and  O_9 
REMARK       I    between atoms: C_10  and  N_13 
ROOT
HETATM    1  C   UNK N   1      45.981  24.296  -0.804  0.00  0.00     0.168 C 
HETATM    2  N   UNK N   1      45.308  24.721   0.398  0.00  0.00    -0.221 N 
HETATM    3  C   UNK N   1      46.060  25.203   1.513  0.00  0.00     0.667 C 
HETATM    4  N   UNK N   1      47.339  25.247   1.464  0.00  0.00    -0.235 N 
ATOM      5  HN  UNK N   1      47.817  24.737   0.720  1.00  0.00     0.174 HD
HETATM    6  N   UNK N   1      45.399  25.611   2.697  0.00  0.00    -0.235 N 
HETATM    7  H   UNK N   1      47.881  25.750   2.114  0.00  0.00     0.174 HD
HETATM    8  H   UNK N   1      44.417  25.655   2.753  0.00  0.00     0.174 HD
HETATM    9  H   UNK N   1      45.935  25.858   3.485  0.00  0.00     0.174 HD
ENDROOT
BRANCH   2  10
HETATM   10  C   UNK N   1      43.881  24.525   0.487  0.00  0.00     0.167 C 
BRANCH  10  11
HETATM   11  C   UNK N   1      43.521  23.231   1.203  0.00  0.00     0.201 C 
BRANCH  11  12
HETATM   12  O   UNK N   1      42.887  23.560   2.408  0.00  0.00    -0.295 OA
BRANCH  12  13
HETATM   13  P   UNK N   1      43.498  22.441   3.596  0.00  0.00     0.390 P 
HETATM   14  O   UNK N   1      45.009  22.671   3.860  0.00  0.00    -0.632 OA
BRANCH  13  15
HETATM   15  O   UNK N   1      43.593  24.059   4.221  0.00  0.00    -0.307 OA
HETATM   16  H   UNK N   1      43.150  24.821   3.818  0.00  0.00     0.222 HD
ENDBRANCH  13  15
BRANCH  13  17
HETATM   17  O   UNK N   1      44.275  22.065   2.087  0.00  0.00    -0.307 OA
HETATM   18  H   UNK N   1      45.166  21.793   1.814  0.00  0.00     0.222 HD
ENDBRANCH  13  17
ENDBRANCH  12  13
ENDBRANCH  11  12
ENDBRANCH  10  11
ENDBRANCH   2  10
TORSDOF 6
ENDMDL
