MODEL 1
REMARK VINA RESULT:      -8.6      0.000      0.000
REMARK  11 active torsions:
REMARK  status: ('A' for Active; 'I' for Inactive)
REMARK    1  A    between atoms: C_17  and  C_9 
REMARK    2  A    between atoms: C_18  and  C_10 
REMARK    3  A    between atoms: C_19  and  C_11 
REMARK    4  A    between atoms: C_20  and  C_12 
REMARK    5  A    between atoms: C_22  and  C_21 
REMARK    6  A    between atoms: O_33  and  C_25 
REMARK    7  A    between atoms: O_34  and  C_26 
REMARK    8  A    between atoms: O_35  and  C_27 
REMARK    9  A    between atoms: O_36  and  C_28 
REMARK   10  A    between atoms: O_37  and  C_29 
REMARK   11  A    between atoms: O_38  and  C_30 
ROOT
HETATM    1  C   UNK N   1      26.414  14.517   6.051  0.00  0.00     0.049 C 
HETATM    2  C   UNK N   1      24.627  16.097   5.497  0.00  0.00     0.020 A 
HETATM    3  C   UNK N   1      25.991  15.851   5.528  0.00  0.00    -0.047 A 
HETATM    4  C   UNK N   1      24.089  17.257   4.936  0.00  0.00    -0.012 A 
HETATM    5  C   UNK N   1      24.386  19.320   3.647  0.00  0.00     0.051 A 
HETATM    6  C   UNK N   1      22.689  17.478   4.996  0.00  0.00    -0.007 A 
HETATM    7  C   UNK N   1      26.905  16.825   5.042  0.00  0.00     0.017 A 
HETATM    8  C   UNK N   1      24.953  18.193   4.320  0.00  0.00     0.025 A 
HETATM    9  C   UNK N   1      22.989  19.504   3.666  0.00  0.00     0.113 A 
HETATM   10  C   UNK N   1      26.363  17.993   4.423  0.00  0.00     0.089 A 
HETATM   11  C   UNK N   1      22.155  18.618   4.347  0.00  0.00     0.107 A 
ENDROOT
BRANCH   7  12
HETATM   12  C   UNK N   1      28.414  16.701   5.241  0.00  0.00     0.017 A 
HETATM   13  C   UNK N   1      29.276  16.211   4.225  0.00  0.00    -0.047 A 
HETATM   14  C   UNK N   1      28.784  15.553   2.977  0.00  0.00     0.049 C 
HETATM   15  C   UNK N   1      30.652  16.297   4.375  0.00  0.00     0.020 A 
HETATM   16  C   UNK N   1      31.247  16.792   5.537  0.00  0.00    -0.012 A 
HETATM   17  C   UNK N   1      32.659  16.915   5.603  0.00  0.00    -0.007 A 
HETATM   18  C   UNK N   1      30.427  17.167   6.629  0.00  0.00     0.025 A 
HETATM   19  C   UNK N   1      33.247  17.339   6.818  0.00  0.00     0.107 A 
HETATM   20  C   UNK N   1      32.454  17.632   7.927  0.00  0.00     0.113 A 
HETATM   21  C   UNK N   1      31.047  17.564   7.854  0.00  0.00     0.051 A 
HETATM   22  C   UNK N   1      29.011  17.165   6.453  0.00  0.00     0.089 A 
BRANCH  17  23
HETATM   23  C   UNK N   1      33.484  16.616   4.346  0.00  0.00     0.014 C 
HETATM   24  C   UNK N   1      32.863  16.946   2.998  0.00  0.00     0.015 C 
HETATM   25  C   UNK N   1      33.880  15.146   4.319  0.00  0.00     0.015 C 
ENDBRANCH  17  23
BRANCH  19  26
HETATM   26  O   UNK N   1      34.579  17.474   6.937  0.00  0.00    -0.357 OA
HETATM   27  H   UNK N   1      35.071  17.985   6.324  0.00  0.00     0.217 HD
ENDBRANCH  19  26
BRANCH  20  28
HETATM   28  O   UNK N   1      33.060  18.003   9.073  0.00  0.00    -0.357 OA
HETATM   29  H   UNK N   1      33.842  17.594   9.388  0.00  0.00     0.217 HD
ENDBRANCH  20  28
BRANCH  21  30
HETATM   30  C   UNK N   1      30.229  17.868   9.061  0.00  0.00     0.273 C 
HETATM   31  O   UNK N   1      30.110  18.997   9.509  0.00  0.00    -0.301 OA
ENDBRANCH  21  30
BRANCH  22  32
HETATM   32  O   UNK N   1      28.230  17.691   7.411  0.00  0.00    -0.359 OA
HETATM   33  H   UNK N   1      28.485  17.746   8.311  0.00  0.00     0.217 HD
ENDBRANCH  22  32
ENDBRANCH   7  12
BRANCH  10  34
HETATM   34  O   UNK N   1      27.196  18.962   4.008  0.00  0.00    -0.359 OA
HETATM   35  H   UNK N   1      27.820  18.845   3.318  0.00  0.00     0.217 HD
ENDBRANCH  10  34
BRANCH   5  36
HETATM   36  C   UNK N   1      25.248  20.276   2.899  0.00  0.00     0.273 C 
HETATM   37  O   UNK N   1      24.875  20.847   1.886  0.00  0.00    -0.301 OA
ENDBRANCH   5  36
BRANCH   6  38
HETATM   38  C   UNK N   1      21.820  16.493   5.787  0.00  0.00     0.014 C 
HETATM   39  C   UNK N   1      20.764  15.712   5.021  0.00  0.00     0.015 C 
HETATM   40  C   UNK N   1      21.114  17.219   6.924  0.00  0.00     0.015 C 
ENDBRANCH   6  38
BRANCH   9  41
HETATM   41  O   UNK N   1      22.431  20.559   3.039  0.00  0.00    -0.357 OA
HETATM   42  H   UNK N   1      22.898  21.090   2.425  0.00  0.00     0.217 HD
ENDBRANCH   9  41
BRANCH  11  43
HETATM   43  O   UNK N   1      20.835  18.878   4.372  0.00  0.00    -0.357 OA
HETATM   44  H   UNK N   1      20.507  19.736   4.190  0.00  0.00     0.217 HD
ENDBRANCH  11  43
TORSDOF 11
ENDMDL
MODEL 2
REMARK VINA RESULT:      -8.6      0.440      9.090
REMARK  11 active torsions:
REMARK  status: ('A' for Active; 'I' for Inactive)
REMARK    1  A    between atoms: C_17  and  C_9 
REMARK    2  A    between atoms: C_18  and  C_10 
REMARK    3  A    between atoms: C_19  and  C_11 
REMARK    4  A    between atoms: C_20  and  C_12 
REMARK    5  A    between atoms: C_22  and  C_21 
REMARK    6  A    between atoms: O_33  and  C_25 
REMARK    7  A    between atoms: O_34  and  C_26 
REMARK    8  A    between atoms: O_35  and  C_27 
REMARK    9  A    between atoms: O_36  and  C_28 
REMARK   10  A    between atoms: O_37  and  C_29 
REMARK   11  A    between atoms: O_38  and  C_30 
ROOT
HETATM    1  C   UNK N   1      28.405  15.778   2.829  0.00  0.00     0.049 C 
HETATM    2  C   UNK N   1      30.277  16.399   4.280  0.00  0.00     0.020 A 
HETATM    3  C   UNK N   1      28.901  16.364   4.110  0.00  0.00    -0.047 A 
HETATM    4  C   UNK N   1      30.872  16.821   5.470  0.00  0.00    -0.012 A 
HETATM    5  C   UNK N   1      30.669  17.492   7.818  0.00  0.00     0.051 A 
HETATM    6  C   UNK N   1      32.287  16.895   5.557  0.00  0.00    -0.007 A 
HETATM    7  C   UNK N   1      28.042  16.834   5.139  0.00  0.00     0.017 A 
HETATM    8  C   UNK N   1      30.053  17.172   6.569  0.00  0.00     0.025 A 
HETATM    9  C   UNK N   1      32.075  17.512   7.910  0.00  0.00     0.113 A 
HETATM   10  C   UNK N   1      28.638  17.224   6.377  0.00  0.00     0.089 A 
HETATM   11  C   UNK N   1      32.873  17.245   6.797  0.00  0.00     0.107 A 
ENDROOT
BRANCH   7  12
HETATM   12  C   UNK N   1      26.540  17.016   4.929  0.00  0.00     0.017 A 
HETATM   13  C   UNK N   1      25.588  16.074   5.401  0.00  0.00    -0.047 A 
HETATM   14  C   UNK N   1      25.957  14.722   5.919  0.00  0.00     0.049 C 
HETATM   15  C   UNK N   1      24.233  16.370   5.362  0.00  0.00     0.020 A 
HETATM   16  C   UNK N   1      23.743  17.553   4.804  0.00  0.00    -0.012 A 
HETATM   17  C   UNK N   1      22.352  17.827   4.855  0.00  0.00    -0.007 A 
HETATM   18  C   UNK N   1      24.647  18.461   4.202  0.00  0.00     0.025 A 
HETATM   19  C   UNK N   1      21.865  18.989   4.211  0.00  0.00     0.107 A 
HETATM   20  C   UNK N   1      22.737  19.848   3.542  0.00  0.00     0.113 A 
HETATM   21  C   UNK N   1      24.127  19.612   3.533  0.00  0.00     0.051 A 
HETATM   22  C   UNK N   1      26.047  18.208   4.314  0.00  0.00     0.089 A 
BRANCH  17  23
HETATM   23  C   UNK N   1      21.441  16.870   5.633  0.00  0.00     0.014 C 
HETATM   24  C   UNK N   1      20.226  16.309   4.912  0.00  0.00     0.015 C 
HETATM   25  C   UNK N   1      20.947  17.541   6.907  0.00  0.00     0.015 C 
ENDBRANCH  17  23
BRANCH  19  26
HETATM   26  O   UNK N   1      20.557  19.298   4.227  0.00  0.00    -0.357 OA
HETATM   27  H   UNK N   1      19.956  18.888   3.635  0.00  0.00     0.217 HD
ENDBRANCH  19  26
BRANCH  20  28
HETATM   28  O   UNK N   1      22.224  20.927   2.917  0.00  0.00    -0.357 OA
HETATM   29  H   UNK N   1      22.302  21.796   3.260  0.00  0.00     0.217 HD
ENDBRANCH  20  28
BRANCH  21  30
HETATM   30  C   UNK N   1      25.030  20.541   2.798  0.00  0.00     0.273 C 
HETATM   31  O   UNK N   1      25.076  20.588   1.579  0.00  0.00    -0.301 OA
ENDBRANCH  21  30
BRANCH  22  32
HETATM   32  O   UNK N   1      26.918  19.148   3.912  0.00  0.00    -0.359 OA
HETATM   33  H   UNK N   1      26.676  20.038   3.748  0.00  0.00     0.217 HD
ENDBRANCH  22  32
ENDBRANCH   7  12
BRANCH  10  34
HETATM   34  O   UNK N   1      27.862  17.730   7.350  0.00  0.00    -0.359 OA
HETATM   35  H   UNK N   1      27.502  17.213   8.043  0.00  0.00     0.217 HD
ENDBRANCH  10  34
BRANCH   5  36
HETATM   36  C   UNK N   1      29.845  17.768   9.028  0.00  0.00     0.273 C 
HETATM   37  O   UNK N   1      29.838  18.853   9.588  0.00  0.00    -0.301 OA
ENDBRANCH   5  36
BRANCH   6  38
HETATM   38  C   UNK N   1      33.118  16.627   4.296  0.00  0.00     0.014 C 
HETATM   39  C   UNK N   1      32.545  17.082   2.963  0.00  0.00     0.015 C 
HETATM   40  C   UNK N   1      33.419  15.139   4.179  0.00  0.00     0.015 C 
ENDBRANCH   6  38
BRANCH   9  41
HETATM   41  O   UNK N   1      32.679  17.811   9.077  0.00  0.00    -0.357 OA
HETATM   42  H   UNK N   1      33.420  18.381   9.133  0.00  0.00     0.217 HD
ENDBRANCH   9  41
BRANCH  11  43
HETATM   43  O   UNK N   1      34.208  17.331   6.937  0.00  0.00    -0.357 OA
HETATM   44  H   UNK N   1      34.713  16.595   7.222  0.00  0.00     0.217 HD
ENDBRANCH  11  43
TORSDOF 11
ENDMDL
MODEL 3
REMARK VINA RESULT:      -8.4     10.014     14.712
REMARK  11 active torsions:
REMARK  status: ('A' for Active; 'I' for Inactive)
REMARK    1  A    between atoms: C_17  and  C_9 
REMARK    2  A    between atoms: C_18  and  C_10 
REMARK    3  A    between atoms: C_19  and  C_11 
REMARK    4  A    between atoms: C_20  and  C_12 
REMARK    5  A    between atoms: C_22  and  C_21 
REMARK    6  A    between atoms: O_33  and  C_25 
REMARK    7  A    between atoms: O_34  and  C_26 
REMARK    8  A    between atoms: O_35  and  C_27 
REMARK    9  A    between atoms: O_36  and  C_28 
REMARK   10  A    between atoms: O_37  and  C_29 
REMARK   11  A    between atoms: O_38  and  C_30 
ROOT
HETATM    1  C   UNK N   1      35.003   9.217  13.986  0.00  0.00     0.049 C 
HETATM    2  C   UNK N   1      34.909   9.849  16.349  0.00  0.00     0.020 A 
HETATM    3  C   UNK N   1      35.253  10.225  15.060  0.00  0.00    -0.047 A 
HETATM    4  C   UNK N   1      34.989  10.729  17.430  0.00  0.00    -0.012 A 
HETATM    5  C   UNK N   1      35.345  12.994  18.295  0.00  0.00     0.051 A 
HETATM    6  C   UNK N   1      34.686  10.263  18.736  0.00  0.00    -0.007 A 
HETATM    7  C   UNK N   1      35.774  11.523  14.808  0.00  0.00     0.017 A 
HETATM    8  C   UNK N   1      35.376  12.071  17.204  0.00  0.00     0.025 A 
HETATM    9  C   UNK N   1      34.991  12.534  19.579  0.00  0.00     0.113 A 
HETATM   10  C   UNK N   1      35.816  12.445  15.898  0.00  0.00     0.089 A 
HETATM   11  C   UNK N   1      34.692  11.190  19.805  0.00  0.00     0.107 A 
ENDROOT
BRANCH   7  12
HETATM   12  C   UNK N   1      36.362  11.918  13.455  0.00  0.00     0.017 A 
HETATM   13  C   UNK N   1      37.557  11.340  12.949  0.00  0.00    -0.047 A 
HETATM   14  C   UNK N   1      38.472  10.492  13.771  0.00  0.00     0.049 C 
HETATM   15  C   UNK N   1      37.950  11.580  11.641  0.00  0.00     0.020 A 
HETATM   16  C   UNK N   1      37.244  12.440  10.795  0.00  0.00    -0.012 A 
HETATM   17  C   UNK N   1      37.660  12.592   9.448  0.00  0.00    -0.007 A 
HETATM   18  C   UNK N   1      36.123  13.141  11.300  0.00  0.00     0.025 A 
HETATM   19  C   UNK N   1      36.984  13.530   8.631  0.00  0.00     0.107 A 
HETATM   20  C   UNK N   1      35.930  14.287   9.142  0.00  0.00     0.113 A 
HETATM   21  C   UNK N   1      35.477  14.103  10.464  0.00  0.00     0.051 A 
HETATM   22  C   UNK N   1      35.660  12.835  12.614  0.00  0.00     0.089 A 
BRANCH  17  23
HETATM   23  C   UNK N   1      38.800  11.711   8.924  0.00  0.00     0.014 C 
HETATM   24  C   UNK N   1      39.984  12.402   8.268  0.00  0.00     0.015 C 
HETATM   25  C   UNK N   1      38.258  10.692   7.929  0.00  0.00     0.015 C 
ENDBRANCH  17  23
BRANCH  19  26
HETATM   26  O   UNK N   1      37.335  13.716   7.347  0.00  0.00    -0.357 OA
HETATM   27  H   UNK N   1      36.954  13.202   6.661  0.00  0.00     0.217 HD
ENDBRANCH  19  26
BRANCH  20  28
HETATM   28  O   UNK N   1      35.336  15.190   8.335  0.00  0.00    -0.357 OA
HETATM   29  H   UNK N   1      35.562  15.288   7.431  0.00  0.00     0.217 HD
ENDBRANCH  20  28
BRANCH  21  30
HETATM   30  C   UNK N   1      34.358  14.938  10.984  0.00  0.00     0.273 C 
HETATM   31  O   UNK N   1      33.212  14.832  10.578  0.00  0.00    -0.301 OA
ENDBRANCH  21  30
BRANCH  22  32
HETATM   32  O   UNK N   1      34.495  13.352  13.037  0.00  0.00    -0.359 OA
HETATM   33  H   UNK N   1      34.410  14.222  13.375  0.00  0.00     0.217 HD
ENDBRANCH  22  32
ENDBRANCH   7  12
BRANCH  10  34
HETATM   34  O   UNK N   1      36.359  13.659  15.710  0.00  0.00    -0.359 OA
HETATM   35  H   UNK N   1      36.630  14.216  16.413  0.00  0.00     0.217 HD
ENDBRANCH  10  34
BRANCH   5  36
HETATM   36  C   UNK N   1      35.646  14.437  18.084  0.00  0.00     0.273 C 
HETATM   37  O   UNK N   1      35.123  15.323  18.742  0.00  0.00    -0.301 OA
ENDBRANCH   5  36
BRANCH   6  38
HETATM   38  C   UNK N   1      34.398   8.770  18.937  0.00  0.00     0.014 C 
HETATM   39  C   UNK N   1      33.062   8.386  19.553  0.00  0.00     0.015 C 
HETATM   40  C   UNK N   1      35.492   8.139  19.789  0.00  0.00     0.015 C 
ENDBRANCH   6  38
BRANCH   9  41
HETATM   41  O   UNK N   1      34.955  13.385  20.624  0.00  0.00    -0.357 OA
HETATM   42  H   UNK N   1      34.597  14.249  20.562  0.00  0.00     0.217 HD
ENDBRANCH   9  41
BRANCH  11  43
HETATM   43  O   UNK N   1      34.412  10.804  21.063  0.00  0.00    -0.357 OA
HETATM   44  H   UNK N   1      33.959  10.002  21.234  0.00  0.00     0.217 HD
ENDBRANCH  11  43
TORSDOF 11
ENDMDL
MODEL 4
REMARK VINA RESULT:      -8.4     10.084     14.791
REMARK  11 active torsions:
REMARK  status: ('A' for Active; 'I' for Inactive)
REMARK    1  A    between atoms: C_17  and  C_9 
REMARK    2  A    between atoms: C_18  and  C_10 
REMARK    3  A    between atoms: C_19  and  C_11 
REMARK    4  A    between atoms: C_20  and  C_12 
REMARK    5  A    between atoms: C_22  and  C_21 
REMARK    6  A    between atoms: O_33  and  C_25 
REMARK    7  A    between atoms: O_34  and  C_26 
REMARK    8  A    between atoms: O_35  and  C_27 
REMARK    9  A    between atoms: O_36  and  C_28 
REMARK   10  A    between atoms: O_37  and  C_29 
REMARK   11  A    between atoms: O_38  and  C_30 
ROOT
HETATM    1  C   UNK N   1      38.437  10.421  13.845  0.00  0.00     0.049 C 
HETATM    2  C   UNK N   1      37.921  11.519  11.719  0.00  0.00     0.020 A 
HETATM    3  C   UNK N   1      37.532  11.284  13.028  0.00  0.00    -0.047 A 
HETATM    4  C   UNK N   1      37.226  12.391  10.877  0.00  0.00    -0.012 A 
HETATM    5  C   UNK N   1      35.485  14.085  10.555  0.00  0.00     0.051 A 
HETATM    6  C   UNK N   1      37.639  12.537   9.528  0.00  0.00    -0.007 A 
HETATM    7  C   UNK N   1      36.348  11.881  13.541  0.00  0.00     0.017 A 
HETATM    8  C   UNK N   1      36.120  13.110  11.387  0.00  0.00     0.025 A 
HETATM    9  C   UNK N   1      35.935  14.261   9.232  0.00  0.00     0.113 A 
HETATM   10  C   UNK N   1      35.657  12.810  12.704  0.00  0.00     0.089 A 
HETATM   11  C   UNK N   1      36.974  13.487   8.715  0.00  0.00     0.107 A 
ENDROOT
BRANCH   7  12
HETATM   12  C   UNK N   1      35.760  11.495  14.896  0.00  0.00     0.017 A 
HETATM   13  C   UNK N   1      35.253  10.195  15.161  0.00  0.00    -0.047 A 
HETATM   14  C   UNK N   1      35.021   9.172  14.098  0.00  0.00     0.049 C 
HETATM   15  C   UNK N   1      34.909   9.829  16.454  0.00  0.00     0.020 A 
HETATM   16  C   UNK N   1      34.976  10.723  17.525  0.00  0.00    -0.012 A 
HETATM   17  C   UNK N   1      34.674  10.269  18.835  0.00  0.00    -0.007 A 
HETATM   18  C   UNK N   1      35.348  12.067  17.284  0.00  0.00     0.025 A 
HETATM   19  C   UNK N   1      34.665  11.207  19.894  0.00  0.00     0.107 A 
HETATM   20  C   UNK N   1      34.950  12.551  19.653  0.00  0.00     0.113 A 
HETATM   21  C   UNK N   1      35.303  13.001  18.365  0.00  0.00     0.051 A 
HETATM   22  C   UNK N   1      35.787  12.430  15.976  0.00  0.00     0.089 A 
BRANCH  17  23
HETATM   23  C   UNK N   1      34.403   8.775  19.053  0.00  0.00     0.014 C 
HETATM   24  C   UNK N   1      33.081   8.382  19.691  0.00  0.00     0.015 C 
HETATM   25  C   UNK N   1      35.516   8.160  19.892  0.00  0.00     0.015 C 
ENDBRANCH  17  23
BRANCH  19  26
HETATM   26  O   UNK N   1      34.386  10.833  21.154  0.00  0.00    -0.357 OA
HETATM   27  H   UNK N   1      34.818  10.100  21.549  0.00  0.00     0.217 HD
ENDBRANCH  19  26
BRANCH  20  28
HETATM   28  O   UNK N   1      34.900  13.415  20.688  0.00  0.00    -0.357 OA
HETATM   29  H   UNK N   1      35.435  14.182  20.734  0.00  0.00     0.217 HD
ENDBRANCH  20  28
BRANCH  21  30
HETATM   30  C   UNK N   1      35.587  14.445  18.138  0.00  0.00     0.273 C 
HETATM   31  O   UNK N   1      35.055  15.332  18.787  0.00  0.00    -0.301 OA
ENDBRANCH  21  30
BRANCH  22  32
HETATM   32  O   UNK N   1      36.317  13.648  15.776  0.00  0.00    -0.359 OA
HETATM   33  H   UNK N   1      37.182  13.885  16.047  0.00  0.00     0.217 HD
ENDBRANCH  22  32
ENDBRANCH   7  12
BRANCH  10  34
HETATM   34  O   UNK N   1      34.503  13.347  13.133  0.00  0.00    -0.359 OA
HETATM   35  H   UNK N   1      33.823  13.635  12.556  0.00  0.00     0.217 HD
ENDBRANCH  10  34
BRANCH   5  36
HETATM   36  C   UNK N   1      34.383  14.937  11.082  0.00  0.00     0.273 C 
HETATM   37  O   UNK N   1      33.224  14.815  10.718  0.00  0.00    -0.301 OA
ENDBRANCH   5  36
BRANCH   6  38
HETATM   38  C   UNK N   1      38.762  11.638   8.998  0.00  0.00     0.014 C 
HETATM   39  C   UNK N   1      39.978  12.314   8.385  0.00  0.00     0.015 C 
HETATM   40  C   UNK N   1      38.209  10.668   7.962  0.00  0.00     0.015 C 
ENDBRANCH   6  38
BRANCH   9  41
HETATM   41  O   UNK N   1      35.353  15.174   8.428  0.00  0.00    -0.357 OA
HETATM   42  H   UNK N   1      35.444  15.161   7.496  0.00  0.00     0.217 HD
ENDBRANCH   9  41
BRANCH  11  43
HETATM   43  O   UNK N   1      37.323  13.668   7.428  0.00  0.00    -0.357 OA
HETATM   44  H   UNK N   1      37.446  14.527   7.076  0.00  0.00     0.217 HD
ENDBRANCH  11  43
TORSDOF 11
ENDMDL
MODEL 5
REMARK VINA RESULT:      -8.3      1.618      9.033
REMARK  11 active torsions:
REMARK  status: ('A' for Active; 'I' for Inactive)
REMARK    1  A    between atoms: C_17  and  C_9 
REMARK    2  A    between atoms: C_18  and  C_10 
REMARK    3  A    between atoms: C_19  and  C_11 
REMARK    4  A    between atoms: C_20  and  C_12 
REMARK    5  A    between atoms: C_22  and  C_21 
REMARK    6  A    between atoms: O_33  and  C_25 
REMARK    7  A    between atoms: O_34  and  C_26 
REMARK    8  A    between atoms: O_35  and  C_27 
REMARK    9  A    between atoms: O_36  and  C_28 
REMARK   10  A    between atoms: O_37  and  C_29 
REMARK   11  A    between atoms: O_38  and  C_30 
ROOT
HETATM    1  C   UNK N   1      28.236  18.171   8.204  0.00  0.00     0.049 C 
HETATM    2  C   UNK N   1      30.419  17.219   7.638  0.00  0.00     0.020 A 
HETATM    3  C   UNK N   1      29.129  17.496   7.214  0.00  0.00    -0.047 A 
HETATM    4  C   UNK N   1      31.389  16.688   6.784  0.00  0.00    -0.012 A 
HETATM    5  C   UNK N   1      32.100  16.044   4.529  0.00  0.00     0.051 A 
HETATM    6  C   UNK N   1      32.671  16.366   7.297  0.00  0.00    -0.007 A 
HETATM    7  C   UNK N   1      28.727  17.176   5.889  0.00  0.00     0.017 A 
HETATM    8  C   UNK N   1      31.071  16.479   5.421  0.00  0.00     0.025 A 
HETATM    9  C   UNK N   1      33.387  15.777   5.038  0.00  0.00     0.113 A 
HETATM   10  C   UNK N   1      29.722  16.678   4.995  0.00  0.00     0.089 A 
HETATM   11  C   UNK N   1      33.665  15.908   6.398  0.00  0.00     0.107 A 
ENDROOT
BRANCH   7  12
HETATM   12  C   UNK N   1      27.271  17.263   5.434  0.00  0.00     0.017 A 
HETATM   13  C   UNK N   1      26.323  16.247   5.725  0.00  0.00    -0.047 A 
HETATM   14  C   UNK N   1      26.696  14.909   6.276  0.00  0.00     0.049 C 
HETATM   15  C   UNK N   1      24.976  16.453   5.466  0.00  0.00     0.020 A 
HETATM   16  C   UNK N   1      24.503  17.616   4.854  0.00  0.00    -0.012 A 
HETATM   17  C   UNK N   1      23.107  17.795   4.676  0.00  0.00    -0.007 A 
HETATM   18  C   UNK N   1      25.428  18.598   4.426  0.00  0.00     0.025 A 
HETATM   19  C   UNK N   1      22.653  18.939   3.979  0.00  0.00     0.107 A 
HETATM   20  C   UNK N   1      23.561  19.873   3.479  0.00  0.00     0.113 A 
HETATM   21  C   UNK N   1      24.946  19.730   3.698  0.00  0.00     0.051 A 
HETATM   22  C   UNK N   1      26.804  18.436   4.766  0.00  0.00     0.089 A 
BRANCH  17  23
HETATM   23  C   UNK N   1      22.149  16.758   5.275  0.00  0.00     0.014 C 
HETATM   24  C   UNK N   1      21.111  16.139   4.354  0.00  0.00     0.015 C 
HETATM   25  C   UNK N   1      21.406  17.358   6.462  0.00  0.00     0.015 C 
ENDBRANCH  17  23
BRANCH  19  26
HETATM   26  O   UNK N   1      21.342  19.160   3.782  0.00  0.00    -0.357 OA
HETATM   27  H   UNK N   1      20.811  18.542   3.317  0.00  0.00     0.217 HD
ENDBRANCH  19  26
BRANCH  20  28
HETATM   28  O   UNK N   1      23.083  20.933   2.796  0.00  0.00    -0.357 OA
HETATM   29  H   UNK N   1      23.626  21.475   2.257  0.00  0.00     0.217 HD
ENDBRANCH  20  28
BRANCH  21  30
HETATM   30  C   UNK N   1      25.890  20.737   3.139  0.00  0.00     0.273 C 
HETATM   31  O   UNK N   1      25.815  21.145   1.991  0.00  0.00    -0.301 OA
ENDBRANCH  21  30
BRANCH  22  32
HETATM   32  O   UNK N   1      27.662  19.443   4.530  0.00  0.00    -0.359 OA
HETATM   33  H   UNK N   1      28.365  19.666   5.107  0.00  0.00     0.217 HD
ENDBRANCH  22  32
ENDBRANCH   7  12
BRANCH  10  34
HETATM   34  O   UNK N   1      29.365  16.308   3.754  0.00  0.00    -0.359 OA
HETATM   35  H   UNK N   1      29.971  15.976   3.120  0.00  0.00     0.217 HD
ENDBRANCH  10  34
BRANCH   5  36
HETATM   36  C   UNK N   1      31.839  15.908   3.070  0.00  0.00     0.273 C 
HETATM   37  O   UNK N   1      32.102  16.790   2.267  0.00  0.00    -0.301 OA
ENDBRANCH   5  36
BRANCH   6  38
HETATM   38  C   UNK N   1      32.916  16.494   8.805  0.00  0.00     0.014 C 
HETATM   39  C   UNK N   1      34.190  17.190   9.256  0.00  0.00     0.015 C 
HETATM   40  C   UNK N   1      32.894  15.117   9.455  0.00  0.00     0.015 C 
ENDBRANCH   6  38
BRANCH   9  41
HETATM   41  O   UNK N   1      34.374  15.366   4.217  0.00  0.00    -0.357 OA
HETATM   42  H   UNK N   1      34.242  14.726   3.545  0.00  0.00     0.217 HD
ENDBRANCH   9  41
BRANCH  11  43
HETATM   43  O   UNK N   1      34.899  15.588   6.829  0.00  0.00    -0.357 OA
HETATM   44  H   UNK N   1      35.530  15.209   6.250  0.00  0.00     0.217 HD
ENDBRANCH  11  43
TORSDOF 11
ENDMDL
MODEL 6
REMARK VINA RESULT:      -8.3      1.886      3.381
REMARK  11 active torsions:
REMARK  status: ('A' for Active; 'I' for Inactive)
REMARK    1  A    between atoms: C_17  and  C_9 
REMARK    2  A    between atoms: C_18  and  C_10 
REMARK    3  A    between atoms: C_19  and  C_11 
REMARK    4  A    between atoms: C_20  and  C_12 
REMARK    5  A    between atoms: C_22  and  C_21 
REMARK    6  A    between atoms: O_33  and  C_25 
REMARK    7  A    between atoms: O_34  and  C_26 
REMARK    8  A    between atoms: O_35  and  C_27 
REMARK    9  A    between atoms: O_36  and  C_28 
REMARK   10  A    between atoms: O_37  and  C_29 
REMARK   11  A    between atoms: O_38  and  C_30 
ROOT
HETATM    1  C   UNK N   1      26.076  19.804   3.840  0.00  0.00     0.049 C 
HETATM    2  C   UNK N   1      23.815  18.866   3.817  0.00  0.00     0.020 A 
HETATM    3  C   UNK N   1      25.141  18.690   4.180  0.00  0.00    -0.047 A 
HETATM    4  C   UNK N   1      22.817  17.954   4.167  0.00  0.00    -0.012 A 
HETATM    5  C   UNK N   1      22.104  15.972   5.420  0.00  0.00     0.051 A 
HETATM    6  C   UNK N   1      21.490  18.159   3.707  0.00  0.00    -0.007 A 
HETATM    7  C   UNK N   1      25.544  17.516   4.872  0.00  0.00     0.017 A 
HETATM    8  C   UNK N   1      23.149  16.838   4.970  0.00  0.00     0.025 A 
HETATM    9  C   UNK N   1      20.780  16.214   5.002  0.00  0.00     0.113 A 
HETATM   10  C   UNK N   1      24.524  16.600   5.275  0.00  0.00     0.089 A 
HETATM   11  C   UNK N   1      20.478  17.270   4.142  0.00  0.00     0.107 A 
ENDROOT
BRANCH   7  12
HETATM   12  C   UNK N   1      27.012  17.171   5.110  0.00  0.00     0.017 A 
HETATM   13  C   UNK N   1      27.813  16.539   4.122  0.00  0.00    -0.047 A 
HETATM   14  C   UNK N   1      27.255  15.939   2.873  0.00  0.00     0.049 C 
HETATM   15  C   UNK N   1      29.183  16.421   4.303  0.00  0.00     0.020 A 
HETATM   16  C   UNK N   1      29.820  16.843   5.472  0.00  0.00    -0.012 A 
HETATM   17  C   UNK N   1      31.233  16.755   5.570  0.00  0.00    -0.007 A 
HETATM   18  C   UNK N   1      29.042  17.356   6.538  0.00  0.00     0.025 A 
HETATM   19  C   UNK N   1      31.852  17.109   6.792  0.00  0.00     0.107 A 
HETATM   20  C   UNK N   1      31.087  17.537   7.878  0.00  0.00     0.113 A 
HETATM   21  C   UNK N   1      29.689  17.678   7.772  0.00  0.00     0.051 A 
HETATM   22  C   UNK N   1      27.646  17.563   6.328  0.00  0.00     0.089 A 
BRANCH  17  23
HETATM   23  C   UNK N   1      32.031  16.313   4.338  0.00  0.00     0.014 C 
HETATM   24  C   UNK N   1      33.029  15.180   4.511  0.00  0.00     0.015 C 
HETATM   25  C   UNK N   1      32.784  17.500   3.750  0.00  0.00     0.015 C 
ENDBRANCH  17  23
BRANCH  19  26
HETATM   26  O   UNK N   1      33.186  17.045   6.941  0.00  0.00    -0.357 OA
HETATM   27  H   UNK N   1      33.664  17.749   7.336  0.00  0.00     0.217 HD
ENDBRANCH  19  26
BRANCH  20  28
HETATM   28  O   UNK N   1      31.718  17.835   9.032  0.00  0.00    -0.357 OA
HETATM   29  H   UNK N   1      31.259  18.043   9.821  0.00  0.00     0.217 HD
ENDBRANCH  20  28
BRANCH  21  30
HETATM   30  C   UNK N   1      28.900  18.124   8.953  0.00  0.00     0.273 C 
HETATM   31  O   UNK N   1      28.285  17.348   9.667  0.00  0.00    -0.301 OA
ENDBRANCH  21  30
BRANCH  22  32
HETATM   32  O   UNK N   1      26.933  18.217   7.259  0.00  0.00    -0.359 OA
HETATM   33  H   UNK N   1      26.136  17.886   7.624  0.00  0.00     0.217 HD
ENDBRANCH  22  32
ENDBRANCH   7  12
BRANCH  10  34
HETATM   34  O   UNK N   1      24.874  15.451   5.877  0.00  0.00    -0.359 OA
HETATM   35  H   UNK N   1      24.313  14.702   5.922  0.00  0.00     0.217 HD
ENDBRANCH  10  34
BRANCH   5  36
HETATM   36  C   UNK N   1      22.392  14.845   6.349  0.00  0.00     0.273 C 
HETATM   37  O   UNK N   1      22.326  13.675   6.007  0.00  0.00    -0.301 OA
ENDBRANCH   5  36
BRANCH   6  38
HETATM   38  C   UNK N   1      21.216  19.313   2.736  0.00  0.00     0.014 C 
HETATM   39  C   UNK N   1      20.397  20.487   3.248  0.00  0.00     0.015 C 
HETATM   40  C   UNK N   1      20.527  18.787   1.484  0.00  0.00     0.015 C 
ENDBRANCH   6  38
BRANCH   9  41
HETATM   41  O   UNK N   1      19.777  15.412   5.412  0.00  0.00    -0.357 OA
HETATM   42  H   UNK N   1      19.902  14.719   6.029  0.00  0.00     0.217 HD
ENDBRANCH   9  41
BRANCH  11  43
HETATM   43  O   UNK N   1      19.202  17.417   3.738  0.00  0.00    -0.357 OA
HETATM   44  H   UNK N   1      18.984  17.451   2.828  0.00  0.00     0.217 HD
ENDBRANCH  11  43
TORSDOF 11
ENDMDL
MODEL 7
REMARK VINA RESULT:      -7.9      2.425      3.955
REMARK  11 active torsions:
REMARK  status: ('A' for Active; 'I' for Inactive)
REMARK    1  A    between atoms: C_17  and  C_9 
REMARK    2  A    between atoms: C_18  and  C_10 
REMARK    3  A    between atoms: C_19  and  C_11 
REMARK    4  A    between atoms: C_20  and  C_12 
REMARK    5  A    between atoms: C_22  and  C_21 
REMARK    6  A    between atoms: O_33  and  C_25 
REMARK    7  A    between atoms: O_34  and  C_26 
REMARK    8  A    between atoms: O_35  and  C_27 
REMARK    9  A    between atoms: O_36  and  C_28 
REMARK   10  A    between atoms: O_37  and  C_29 
REMARK   11  A    between atoms: O_38  and  C_30 
ROOT
HETATM    1  C   UNK N   1      25.583  17.834   4.095  0.00  0.00     0.049 C 
HETATM    2  C   UNK N   1      23.625  16.529   4.770  0.00  0.00     0.020 A 
HETATM    3  C   UNK N   1      24.989  16.730   4.907  0.00  0.00    -0.047 A 
HETATM    4  C   UNK N   1      22.923  15.604   5.547  0.00  0.00    -0.012 A 
HETATM    5  C   UNK N   1      22.863  14.026   7.420  0.00  0.00     0.051 A 
HETATM    6  C   UNK N   1      21.539  15.400   5.311  0.00  0.00    -0.007 A 
HETATM    7  C   UNK N   1      25.742  15.934   5.813  0.00  0.00     0.017 A 
HETATM    8  C   UNK N   1      23.609  14.885   6.554  0.00  0.00     0.025 A 
HETATM    9  C   UNK N   1      21.478  13.869   7.212  0.00  0.00     0.113 A 
HETATM   10  C   UNK N   1      25.027  15.019   6.645  0.00  0.00     0.089 A 
HETATM   11  C   UNK N   1      20.829  14.521   6.163  0.00  0.00     0.107 A 
ENDROOT
BRANCH   7  12
HETATM   12  C   UNK N   1      27.268  15.965   5.853  0.00  0.00     0.017 A 
HETATM   13  C   UNK N   1      28.066  15.467   4.789  0.00  0.00    -0.047 A 
HETATM   14  C   UNK N   1      27.516  14.658   3.659  0.00  0.00     0.049 C 
HETATM   15  C   UNK N   1      29.435  15.690   4.777  0.00  0.00     0.020 A 
HETATM   16  C   UNK N   1      30.094  16.340   5.824  0.00  0.00    -0.012 A 
HETATM   17  C   UNK N   1      31.485  16.595   5.723  0.00  0.00    -0.007 A 
HETATM   18  C   UNK N   1      29.357  16.734   6.967  0.00  0.00     0.025 A 
HETATM   19  C   UNK N   1      32.150  17.178   6.827  0.00  0.00     0.107 A 
HETATM   20  C   UNK N   1      31.450  17.496   7.991  0.00  0.00     0.113 A 
HETATM   21  C   UNK N   1      30.057  17.294   8.080  0.00  0.00     0.051 A 
HETATM   22  C   UNK N   1      27.938  16.589   6.950  0.00  0.00     0.089 A 
BRANCH  17  23
HETATM   23  C   UNK N   1      32.202  16.261   4.409  0.00  0.00     0.014 C 
HETATM   24  C   UNK N   1      33.458  15.409   4.486  0.00  0.00     0.015 C 
HETATM   25  C   UNK N   1      32.566  17.544   3.672  0.00  0.00     0.015 C 
ENDBRANCH  17  23
BRANCH  19  26
HETATM   26  O   UNK N   1      33.468  17.443   6.787  0.00  0.00    -0.357 OA
HETATM   27  H   UNK N   1      33.916  17.786   7.535  0.00  0.00     0.217 HD
ENDBRANCH  19  26
BRANCH  20  28
HETATM   28  O   UNK N   1      32.131  18.022   9.029  0.00  0.00    -0.357 OA
HETATM   29  H   UNK N   1      31.725  18.555   9.684  0.00  0.00     0.217 HD
ENDBRANCH  20  28
BRANCH  21  30
HETATM   30  C   UNK N   1      29.342  17.630   9.342  0.00  0.00     0.273 C 
HETATM   31  O   UNK N   1      29.270  18.768   9.777  0.00  0.00    -0.301 OA
ENDBRANCH  21  30
BRANCH  22  32
HETATM   32  O   UNK N   1      27.211  17.125   7.944  0.00  0.00    -0.359 OA
HETATM   33  H   UNK N   1      26.308  16.921   8.090  0.00  0.00     0.217 HD
ENDBRANCH  22  32
ENDBRANCH   7  12
BRANCH  10  34
HETATM   34  O   UNK N   1      25.712  14.208   7.468  0.00  0.00    -0.359 OA
HETATM   35  H   UNK N   1      25.707  14.297   8.401  0.00  0.00     0.217 HD
ENDBRANCH  10  34
BRANCH   5  36
HETATM   36  C   UNK N   1      23.524  13.328   8.557  0.00  0.00     0.273 C 
HETATM   37  O   UNK N   1      23.089  13.366   9.697  0.00  0.00    -0.301 OA
ENDBRANCH   5  36
BRANCH   6  38
HETATM   38  C   UNK N   1      20.880  16.113   4.124  0.00  0.00     0.014 C 
HETATM   39  C   UNK N   1      19.542  16.794   4.364  0.00  0.00     0.015 C 
HETATM   40  C   UNK N   1      20.694  15.138   2.969  0.00  0.00     0.015 C 
ENDBRANCH   6  38
BRANCH   9  41
HETATM   41  O   UNK N   1      20.754  13.065   8.016  0.00  0.00    -0.357 OA
HETATM   42  H   UNK N   1      20.685  13.200   8.940  0.00  0.00     0.217 HD
ENDBRANCH   9  41
BRANCH  11  43
HETATM   43  O   UNK N   1      19.515  14.289   5.986  0.00  0.00    -0.357 OA
HETATM   44  H   UNK N   1      18.945  14.157   6.717  0.00  0.00     0.217 HD
ENDBRANCH  11  43
TORSDOF 11
ENDMDL
MODEL 8
REMARK VINA RESULT:      -7.7      5.641     11.123
REMARK  11 active torsions:
REMARK  status: ('A' for Active; 'I' for Inactive)
REMARK    1  A    between atoms: C_17  and  C_9 
REMARK    2  A    between atoms: C_18  and  C_10 
REMARK    3  A    between atoms: C_19  and  C_11 
REMARK    4  A    between atoms: C_20  and  C_12 
REMARK    5  A    between atoms: C_22  and  C_21 
REMARK    6  A    between atoms: O_33  and  C_25 
REMARK    7  A    between atoms: O_34  and  C_26 
REMARK    8  A    between atoms: O_35  and  C_27 
REMARK    9  A    between atoms: O_36  and  C_28 
REMARK   10  A    between atoms: O_37  and  C_29 
REMARK   11  A    between atoms: O_38  and  C_30 
ROOT
HETATM    1  C   UNK N   1      35.239  16.489  10.875  0.00  0.00     0.049 C 
HETATM    2  C   UNK N   1      35.223  14.392  12.139  0.00  0.00     0.020 A 
HETATM    3  C   UNK N   1      34.886  15.040  10.960  0.00  0.00    -0.047 A 
HETATM    4  C   UNK N   1      35.048  13.017  12.312  0.00  0.00    -0.012 A 
HETATM    5  C   UNK N   1      34.499  10.818  11.380  0.00  0.00     0.051 A 
HETATM    6  C   UNK N   1      35.350  12.427  13.566  0.00  0.00    -0.007 A 
HETATM    7  C   UNK N   1      34.275  14.320   9.898  0.00  0.00     0.017 A 
HETATM    8  C   UNK N   1      34.567  12.239  11.233  0.00  0.00     0.025 A 
HETATM    9  C   UNK N   1      34.853  10.234  12.613  0.00  0.00     0.113 A 
HETATM   10  C   UNK N   1      34.135  12.907  10.047  0.00  0.00     0.089 A 
HETATM   11  C   UNK N   1      35.246  11.021  13.696  0.00  0.00     0.107 A 
ENDROOT
BRANCH   7  12
HETATM   12  C   UNK N   1      33.695  15.016   8.668  0.00  0.00     0.017 A 
HETATM   13  C   UNK N   1      34.330  14.969   7.399  0.00  0.00    -0.047 A 
HETATM   14  C   UNK N   1      35.719  14.457   7.194  0.00  0.00     0.049 C 
HETATM   15  C   UNK N   1      33.677  15.445   6.272  0.00  0.00     0.020 A 
HETATM   16  C   UNK N   1      32.418  16.047   6.338  0.00  0.00    -0.012 A 
HETATM   17  C   UNK N   1      31.774  16.454   5.142  0.00  0.00    -0.007 A 
HETATM   18  C   UNK N   1      31.806  16.236   7.601  0.00  0.00     0.025 A 
HETATM   19  C   UNK N   1      30.538  17.137   5.235  0.00  0.00     0.107 A 
HETATM   20  C   UNK N   1      29.965  17.403   6.479  0.00  0.00     0.113 A 
HETATM   21  C   UNK N   1      30.573  16.955   7.670  0.00  0.00     0.051 A 
HETATM   22  C   UNK N   1      32.429  15.672   8.754  0.00  0.00     0.089 A 
BRANCH  17  23
HETATM   23  C   UNK N   1      32.426  16.107   3.798  0.00  0.00     0.014 C 
HETATM   24  C   UNK N   1      32.475  17.191   2.735  0.00  0.00     0.015 C 
HETATM   25  C   UNK N   1      31.741  14.894   3.183  0.00  0.00     0.015 C 
ENDBRANCH  17  23
BRANCH  19  26
HETATM   26  O   UNK N   1      29.883  17.546   4.134  0.00  0.00    -0.357 OA
HETATM   27  H   UNK N   1      30.146  18.319   3.673  0.00  0.00     0.217 HD
ENDBRANCH  19  26
BRANCH  20  28
HETATM   28  O   UNK N   1      28.802  18.083   6.520  0.00  0.00    -0.357 OA
HETATM   29  H   UNK N   1      27.972  17.662   6.627  0.00  0.00     0.217 HD
ENDBRANCH  20  28
BRANCH  21  30
HETATM   30  C   UNK N   1      29.943  17.268   8.982  0.00  0.00     0.273 C 
HETATM   31  O   UNK N   1      30.021  18.367   9.507  0.00  0.00    -0.301 OA
ENDBRANCH  21  30
BRANCH  22  32
HETATM   32  O   UNK N   1      31.773  15.682   9.925  0.00  0.00    -0.359 OA
HETATM   33  H   UNK N   1      31.909  15.044  10.598  0.00  0.00     0.217 HD
ENDBRANCH  22  32
ENDBRANCH   7  12
BRANCH  10  34
HETATM   34  O   UNK N   1      33.508  12.204   9.089  0.00  0.00    -0.359 OA
HETATM   35  H   UNK N   1      32.830  11.582   9.267  0.00  0.00     0.217 HD
ENDBRANCH  10  34
BRANCH   5  36
HETATM   36  C   UNK N   1      34.097   9.950  10.239  0.00  0.00     0.273 C 
HETATM   37  O   UNK N   1      33.032   9.354  10.208  0.00  0.00    -0.301 OA
ENDBRANCH   5  36
BRANCH   6  38
HETATM   38  C   UNK N   1      35.744  13.338  14.735  0.00  0.00     0.014 C 
HETATM   39  C   UNK N   1      37.176  13.259  15.239  0.00  0.00     0.015 C 
HETATM   40  C   UNK N   1      34.827  13.086  15.924  0.00  0.00     0.015 C 
ENDBRANCH   6  38
BRANCH   9  41
HETATM   41  O   UNK N   1      34.797   8.898  12.776  0.00  0.00    -0.357 OA
HETATM   42  H   UNK N   1      34.688   8.303  12.061  0.00  0.00     0.217 HD
ENDBRANCH   9  41
BRANCH  11  43
HETATM   43  O   UNK N   1      35.521  10.407  14.861  0.00  0.00    -0.357 OA
HETATM   44  H   UNK N   1      35.249  10.775  15.678  0.00  0.00     0.217 HD
ENDBRANCH  11  43
TORSDOF 11
ENDMDL
MODEL 9
REMARK VINA RESULT:      -7.7      5.653      9.339
REMARK  11 active torsions:
REMARK  status: ('A' for Active; 'I' for Inactive)
REMARK    1  A    between atoms: C_17  and  C_9 
REMARK    2  A    between atoms: C_18  and  C_10 
REMARK    3  A    between atoms: C_19  and  C_11 
REMARK    4  A    between atoms: C_20  and  C_12 
REMARK    5  A    between atoms: C_22  and  C_21 
REMARK    6  A    between atoms: O_33  and  C_25 
REMARK    7  A    between atoms: O_34  and  C_26 
REMARK    8  A    between atoms: O_35  and  C_27 
REMARK    9  A    between atoms: O_36  and  C_28 
REMARK   10  A    between atoms: O_37  and  C_29 
REMARK   11  A    between atoms: O_38  and  C_30 
ROOT
HETATM    1  C   UNK N   1      35.740  14.429   7.199  0.00  0.00     0.049 C 
HETATM    2  C   UNK N   1      33.702  15.417   6.269  0.00  0.00     0.020 A 
HETATM    3  C   UNK N   1      34.352  14.943   7.398  0.00  0.00    -0.047 A 
HETATM    4  C   UNK N   1      32.445  16.022   6.328  0.00  0.00    -0.012 A 
HETATM    5  C   UNK N   1      30.597  16.940   7.651  0.00  0.00     0.051 A 
HETATM    6  C   UNK N   1      31.805  16.425   5.128  0.00  0.00    -0.007 A 
HETATM    7  C   UNK N   1      33.713  14.998   8.667  0.00  0.00     0.017 A 
HETATM    8  C   UNK N   1      31.830  16.218   7.587  0.00  0.00     0.025 A 
HETATM    9  C   UNK N   1      29.995  17.384   6.457  0.00  0.00     0.113 A 
HETATM   10  C   UNK N   1      32.448  15.657   8.746  0.00  0.00     0.089 A 
HETATM   11  C   UNK N   1      30.570  17.112   5.215  0.00  0.00     0.107 A 
ENDROOT
BRANCH   7  12
HETATM   12  C   UNK N   1      34.288  14.306   9.901  0.00  0.00     0.017 A 
HETATM   13  C   UNK N   1      34.887  15.029  10.966  0.00  0.00    -0.047 A 
HETATM   14  C   UNK N   1      35.230  16.480  10.883  0.00  0.00     0.049 C 
HETATM   15  C   UNK N   1      35.218  14.384  12.149  0.00  0.00     0.020 A 
HETATM   16  C   UNK N   1      35.050  13.008  12.321  0.00  0.00    -0.012 A 
HETATM   17  C   UNK N   1      35.347  12.419  13.577  0.00  0.00    -0.007 A 
HETATM   18  C   UNK N   1      34.581  12.227  11.238  0.00  0.00     0.025 A 
HETATM   19  C   UNK N   1      35.250  11.013  13.707  0.00  0.00     0.107 A 
HETATM   20  C   UNK N   1      34.869  10.224  12.622  0.00  0.00     0.113 A 
HETATM   21  C   UNK N   1      34.521  10.806  11.386  0.00  0.00     0.051 A 
HETATM   22  C   UNK N   1      34.155  12.891  10.049  0.00  0.00     0.089 A 
BRANCH  17  23
HETATM   23  C   UNK N   1      35.726  13.333  14.748  0.00  0.00     0.014 C 
HETATM   24  C   UNK N   1      37.156  13.272  15.258  0.00  0.00     0.015 C 
HETATM   25  C   UNK N   1      34.807  13.070  15.934  0.00  0.00     0.015 C 
ENDBRANCH  17  23
BRANCH  19  26
HETATM   26  O   UNK N   1      35.519  10.401  14.873  0.00  0.00    -0.357 OA
HETATM   27  H   UNK N   1      36.338  10.531  15.311  0.00  0.00     0.217 HD
ENDBRANCH  19  26
BRANCH  20  28
HETATM   28  O   UNK N   1      34.820   8.887  12.784  0.00  0.00    -0.357 OA
HETATM   29  H   UNK N   1      34.581   8.301  12.093  0.00  0.00     0.217 HD
ENDBRANCH  20  28
BRANCH  21  30
HETATM   30  C   UNK N   1      34.133   9.935  10.242  0.00  0.00     0.273 C 
HETATM   31  O   UNK N   1      33.074   9.329  10.204  0.00  0.00    -0.301 OA
ENDBRANCH  21  30
BRANCH  22  32
HETATM   32  O   UNK N   1      33.539  12.185   9.087  0.00  0.00    -0.359 OA
HETATM   33  H   UNK N   1      33.472  11.250   9.097  0.00  0.00     0.217 HD
ENDBRANCH  22  32
ENDBRANCH   7  12
BRANCH  10  34
HETATM   34  O   UNK N   1      31.789  15.674   9.916  0.00  0.00    -0.359 OA
HETATM   35  H   UNK N   1      30.855  15.730   9.980  0.00  0.00     0.217 HD
ENDBRANCH  10  34
BRANCH   5  36
HETATM   36  C   UNK N   1      29.965  17.259   8.961  0.00  0.00     0.273 C 
HETATM   37  O   UNK N   1      30.025  18.368   9.469  0.00  0.00    -0.301 OA
ENDBRANCH   5  36
BRANCH   6  38
HETATM   38  C   UNK N   1      32.461  16.072   3.788  0.00  0.00     0.014 C 
HETATM   39  C   UNK N   1      32.522  17.156   2.724  0.00  0.00     0.015 C 
HETATM   40  C   UNK N   1      31.767  14.865   3.171  0.00  0.00     0.015 C 
ENDBRANCH   6  38
BRANCH   9  41
HETATM   41  O   UNK N   1      28.833  18.067   6.490  0.00  0.00    -0.357 OA
HETATM   42  H   UNK N   1      28.749  18.905   6.902  0.00  0.00     0.217 HD
ENDBRANCH   9  41
BRANCH  11  43
HETATM   43  O   UNK N   1      29.919  17.518   4.110  0.00  0.00    -0.357 OA
HETATM   44  H   UNK N   1      29.268  18.190   4.151  0.00  0.00     0.217 HD
ENDBRANCH  11  43
TORSDOF 11
ENDMDL
