REMARK  7 active torsions:
REMARK  status: ('A' for Active; 'I' for Inactive)
REMARK    1  A    between atoms: C_12  and  C_11 
REMARK    2  A    between atoms: C_21  and  C_11 
REMARK    3  A    between atoms: N_24  and  C_12 
REMARK    4  A    between atoms: C_15  and  N_23 
REMARK    5  A    between atoms: S_29  and  C_16 
REMARK    6  A    between atoms: O_26  and  C_21 
REMARK    7  A    between atoms: S_29  and  N_23 
ROOT
HETATM    1  C   UNK N   1       4.900   1.756   0.059  0.00  0.00     0.001 A 
HETATM    2  C   UNK N   1       5.428   0.580   0.641  0.00  0.00     0.002 A 
HETATM    3  C   UNK N   1       3.551   1.812  -0.342  0.00  0.00     0.014 A 
HETATM    4  C   UNK N   1       4.613  -0.551   0.831  0.00  0.00     0.030 A 
HETATM    5  C   UNK N   1      -1.067  -0.761  -1.074  0.00  0.00     0.032 C 
HETATM    6  C   UNK N   1      -0.127  -1.556  -0.151  0.00  0.00     0.060 C 
HETATM    7  C   UNK N   1       0.434   1.295  -1.085  0.00  0.00     0.067 C 
HETATM    8  C   UNK N   1      -1.004   0.764  -0.875  0.00  0.00     0.098 C 
HETATM    9  C   UNK N   1       2.769   0.680  -0.137  0.00  0.00    -0.001 A 
HETATM   10  C   UNK N   1       1.446   0.421  -0.425  0.00  0.00    -0.021 A 
HETATM   11  C   UNK N   1       3.278  -0.462   0.431  0.00  0.00     0.045 A 
HETATM   12  C   UNK N   1       1.201  -0.873  -0.015  0.00  0.00     0.019 A 
HETATM   13  N   UNK N   1       2.330  -1.417   0.502  0.00  0.00    -0.349 N 
ENDROOT
BRANCH   8  14
HETATM   14  N   UNK N   1      -1.566   1.134   0.456  0.00  0.00    -0.310 N 
HETATM   15  H   UNK N   1      -2.007   0.404   1.015  0.00  0.00     0.172 HD
BRANCH  14  16
HETATM   16  S   UNK N   1      -1.505   2.830   1.134  0.00  0.00     0.259 S 
HETATM   17  O   UNK N   1      -1.433   3.163  -0.362  0.00  0.00    -0.201 OA
HETATM   18  O   UNK N   1      -0.145   2.234   1.524  0.00  0.00    -0.201 OA
BRANCH  16  19
HETATM   19  C   UNK N   1      -0.348   4.264   0.770  0.00  0.00     0.079 A 
HETATM   20  C   UNK N   1      -0.919   5.550   0.641  0.00  0.00     0.028 A 
HETATM   21  C   UNK N   1      -0.137   6.654   0.288  0.00  0.00     0.044 A 
HETATM   22  C   UNK N   1       1.236   6.507   0.076  0.00  0.00     0.116 A 
HETATM   23  C   UNK N   1       1.834   5.258   0.221  0.00  0.00     0.044 A 
HETATM   24  F   UNK N   1       1.988   7.576  -0.276  0.00  0.00    -0.206 F 
HETATM   25  C   UNK N   1       1.058   4.150   0.552  0.00  0.00     0.028 A 
ENDBRANCH  16  19
ENDBRANCH  14  16
ENDBRANCH   8  14
BRANCH  13  26
HETATM   26  C   UNK N   1       2.507  -2.777   0.988  0.00  0.00     0.139 C 
BRANCH  26  27
HETATM   27  C   UNK N   1       2.411  -3.735  -0.191  0.00  0.00     0.130 C 
BRANCH  27  28
HETATM   28  C   UNK N   1       2.913  -5.090   0.173  0.00  0.00     0.140 C 
HETATM   29  O   UNK N   1       4.070  -5.242   0.530  0.00  0.00    -0.650 OA
BRANCH  28  30
HETATM   30  O   UNK N   1       2.097  -6.155   0.069  0.00  0.00    -0.776 OA
HETATM   31  H   UNK N   1       1.171  -6.034  -0.003  0.00  0.00     0.167 HD
ENDBRANCH  28  30
ENDBRANCH  27  28
ENDBRANCH  26  27
ENDBRANCH  13  26
TORSDOF 7
