REMARK  7 active torsions:
REMARK  status: ('A' for Active; 'I' for Inactive)
REMARK    1  A    between atoms: C_2  and  C_3 
REMARK    2  A    between atoms: C_3  and  C_4 
REMARK    3  A    between atoms: C_3  and  C_6 
REMARK    4  A    between atoms: C_6  and  C_7 
REMARK    5  A    between atoms: C_6  and  N_24 
REMARK    6  A    between atoms: C_10  and  N_13 
REMARK    7  A    between atoms: N_13  and  C_14 
ROOT
HETATM    1  C   UNK N   1      -2.171  -2.874  -0.298  0.00  0.00    -0.033 A 
HETATM    2  C   UNK N   1      -1.969  -1.986  -1.357  0.00  0.00     0.011 A 
HETATM    3  C   UNK N   1      -1.346  -0.759  -1.133  0.00  0.00     0.030 A 
HETATM    4  C   UNK N   1      -0.938  -0.407   0.158  0.00  0.00     0.034 A 
HETATM    5  C   UNK N   1      -1.161  -1.287   1.224  0.00  0.00     0.030 A 
HETATM    6  C   UNK N   1      -1.795  -2.508   1.003  0.00  0.00     0.011 A 
ENDROOT
BRANCH   1   7
HETATM    7  C   UNK N   1      -2.734  -4.235  -0.588  0.00  0.00     0.146 C 
BRANCH   7   8
HETATM    8  C   UNK N   1      -1.783  -5.362  -0.095  0.00  0.00     0.014 C 
BRANCH   8   9
HETATM    9  C   UNK N   1      -2.290  -6.754  -0.433  0.00  0.00     0.002 C 
HETATM   10  C   UNK N   1      -2.960  -7.371   0.780  0.00  0.00     0.005 C 
ENDBRANCH   8   9
BRANCH   8  11
HETATM   11  C   UNK N   1      -0.392  -5.231  -0.706  0.00  0.00     0.002 C 
HETATM   12  C   UNK N   1       0.582  -4.659   0.307  0.00  0.00     0.005 C 
ENDBRANCH   8  11
ENDBRANCH   7   8
BRANCH   7  13
HETATM   13  N   UNK N   1      -4.105  -4.363  -0.083  0.00  0.00    -0.277 N 
HETATM   14  C   UNK N   1      -4.985  -5.318  -0.421  0.00  0.00     0.202 A 
HETATM   15  N   UNK N   1      -6.172  -5.074   0.167  0.00  0.00    -0.346 N 
HETATM   16  C   UNK N   1      -5.977  -3.930   0.859  0.00  0.00     0.198 A 
ATOM     17  HN  UNK N   1      -7.026  -5.628   0.104  1.00  0.00     0.167 HD
HETATM   18  N   UNK N   1      -4.715  -3.491   0.698  0.00  0.00    -0.292 N 
ATOM     19  HN  UNK N   1      -4.309  -2.647   1.102  1.00  0.00     0.188 HD
ENDBRANCH   7  13
ENDBRANCH   1   7
BRANCH   4  20
HETATM   20  N   UNK N   1      -0.005   0.636   0.329  0.00  0.00    -0.337 N 
HETATM   21  H   UNK N   1      -0.287   1.536   0.612  0.00  0.00     0.168 HD
BRANCH  20  22
HETATM   22  C   UNK N   1       1.357   0.333   0.076  0.00  0.00     0.150 A 
HETATM   23  N   UNK N   1       2.406   1.099   0.483  0.00  0.00    -0.335 N 
HETATM   24  C   UNK N   1       3.606   0.470   0.210  0.00  0.00     0.051 A 
ATOM     25  HN  UNK N   1       2.319   2.013   0.927  1.00  0.00     0.168 HD
HETATM   26  C   UNK N   1       4.861   0.983   0.530  0.00  0.00     0.031 A 
HETATM   27  C   UNK N   1       3.506  -0.781  -0.406  0.00  0.00     0.035 A 
HETATM   28  C   UNK N   1       6.000   0.216   0.217  0.00  0.00     0.002 A 
HETATM   29  C   UNK N   1       5.875  -1.044  -0.409  0.00  0.00     0.002 A 
HETATM   30  C   UNK N   1       4.609  -1.557  -0.727  0.00  0.00     0.021 A 
HETATM   31  S   UNK N   1       1.913  -1.089  -0.600  0.00  0.00    -0.052 SA
ENDBRANCH  20  22
ENDBRANCH   4  20
TORSDOF 7
