REMARK  4 active torsions:
REMARK  status: ('A' for Active; 'I' for Inactive)
REMARK    1  A    between atoms: C_8  and  C_10 
REMARK       I    between atoms: C_10  and  N_12 
REMARK    2  A    between atoms: N_15  and  C_18 
REMARK    3  A    between atoms: C_18  and  C_19 
REMARK    4  A    between atoms: C_19  and  C_20 
ROOT
HETATM    1  C   UNK N   1       2.212   0.119  -0.373  0.00  0.00     0.002 A 
HETATM    2  C   UNK N   1       1.069  -0.670  -0.224  0.00  0.00     0.015 A 
HETATM    3  C   UNK N   1      -0.152  -0.002  -0.076  0.00  0.00     0.014 A 
HETATM    4  C   UNK N   1      -1.421  -0.449   0.054  0.00  0.00     0.072 A 
HETATM    5  C   UNK N   1      -2.254   0.644   0.178  0.00  0.00     0.112 A 
HETATM    6  N   UNK N   1      -1.519   1.757   0.115  0.00  0.00    -0.363 N 
HETATM    7  C   UNK N   1      -0.257   1.343  -0.060  0.00  0.00     0.059 A 
HETATM    8  C   UNK N   1       0.797   2.151  -0.190  0.00  0.00     0.059 A 
HETATM    9  C   UNK N   1       2.068   1.516  -0.362  0.00  0.00     0.019 A 
HETATM   10  C   UNK N   1      -1.858  -1.779   0.022  0.00  0.00     0.102 C 
HETATM   11  N   UNK N   1      -2.250  -2.860  -0.000  0.00  0.00    -0.191 NA
HETATM   12  H   UNK N   1      -1.837   2.686   0.183  0.00  0.00     0.165 HD
ENDROOT
BRANCH   8  13
HETATM   13  C   UNK N   1       0.498   3.615  -0.108  0.00  0.00     0.256 C 
HETATM   14  O   UNK N   1      -0.475   4.063  -0.702  0.00  0.00    -0.267 OA
HETATM   15  N   UNK N   1       1.256   4.444   0.637  0.00  0.00    -0.345 N 
HETATM   16  C   UNK N   1       1.264   5.840   0.337  0.00  0.00     0.156 C 
HETATM   17  C   UNK N   1       2.392   3.933   1.310  0.00  0.00     0.156 C 
HETATM   18  C   UNK N   1       2.592   6.087  -0.386  0.00  0.00     0.292 C 
HETATM   19  N   UNK N   1       3.262   4.822  -0.825  0.00  0.00     0.091 N 
HETATM   20  C   UNK N   1       3.314   3.712   0.159  0.00  0.00     0.292 C 
BRANCH  19  21
HETATM   21  C   UNK N   1       4.642   5.149  -0.936  0.00  0.00     0.277 C 
BRANCH  21  22
HETATM   22  C   UNK N   1       5.169   5.363   0.476  0.00  0.00     0.068 C 
BRANCH  22  23
HETATM   23  C   UNK N   1       6.490   5.602   0.294  0.00  0.00    -0.056 A 
HETATM   24  C   UNK N   1       6.810   6.923   0.152  0.00  0.00     0.010 A 
HETATM   25  C   UNK N   1       8.115   7.258  -0.027  0.00  0.00     0.043 A 
HETATM   26  C   UNK N   1       9.076   6.253  -0.071  0.00  0.00     0.116 A 
HETATM   27  C   UNK N   1       8.729   4.896   0.021  0.00  0.00     0.043 A 
HETATM   28  F   UNK N   1      10.359   6.611  -0.147  0.00  0.00    -0.206 F 
HETATM   29  C   UNK N   1       7.403   4.559   0.199  0.00  0.00     0.010 A 
ENDBRANCH  22  23
ENDBRANCH  21  22
ENDBRANCH  19  21
ENDBRANCH   8  13
TORSDOF 4
