MODEL 1
REMARK VINA RESULT:      -8.3      0.000      0.000
REMARK  9 active torsions:
REMARK  status: ('A' for Active; 'I' for Inactive)
REMARK    1  A    between atoms: C_3  and  C_2 
REMARK    2  A    between atoms: C_3  and  C_4 
REMARK    3  A    between atoms: C_3  and  C_29 
REMARK    4  A    between atoms: C_4  and  C_5 
REMARK    5  A    between atoms: C_5  and  C_6 
REMARK    6  A    between atoms: C_8  and  C_6 
REMARK    7  A    between atoms: C_17  and  C_18 
REMARK    8  A    between atoms: C_21  and  O_27 
REMARK    9  A    between atoms: C_23  and  O_26 
ROOT
HETATM    1  C   UNK N   1      28.256  18.112   6.368  0.00  0.00    -0.002 C 
HETATM    2  C   UNK N   1      27.828  19.512   5.934  0.00  0.00     0.006 C 
HETATM    3  C   UNK N   1      27.649  19.442   4.417  0.00  0.00     0.010 C 
HETATM    4  C   UNK N   1      27.568  17.950   4.085  0.00  0.00     0.023 C 
HETATM    5  C   UNK N   1      28.547  17.327   5.081  0.00  0.00    -0.033 C 
HETATM    6  C   UNK N   1      28.345  15.806   5.223  0.00  0.00     0.010 C 
HETATM    7  C   UNK N   1      26.884  15.430   5.501  0.00  0.00     0.005 C 
HETATM    8  C   UNK N   1      25.987  15.931   4.375  0.00  0.00     0.034 C 
HETATM    9  C   UNK N   1      26.156  17.417   4.268  0.00  0.00    -0.075 C 
HETATM   10  C   UNK N   1      25.105  18.251   4.280  0.00  0.00     0.004 C 
HETATM   11  C   UNK N   1      29.959  17.567   4.563  0.00  0.00     0.016 C 
ENDROOT
BRANCH  10  12
HETATM   12  C   UNK N   1      23.701  17.826   4.370  0.00  0.00     0.008 C 
HETATM   13  C   UNK N   1      22.671  18.536   3.860  0.00  0.00    -0.048 C 
HETATM   14  C   UNK N   1      21.316  17.911   3.936  0.00  0.00     0.071 C 
HETATM   15  C   UNK N   1      22.807  19.851   3.127  0.00  0.00    -0.033 C 
HETATM   16  C   UNK N   1      20.613  18.085   2.600  0.00  0.00     0.125 C 
HETATM   17  C   UNK N   1      20.350  19.573   2.419  0.00  0.00     0.068 C 
HETATM   18  C   UNK N   1      21.643  20.388   2.316  0.00  0.00     0.153 C 
HETATM   19  C   UNK N   1      23.965  20.512   3.054  0.00  0.00     0.022 C 
BRANCH  16  20
HETATM   20  O   UNK N   1      19.401  17.399   2.619  0.00  0.00    -0.395 OA
HETATM   21  H   UNK N   1      18.720  17.598   3.281  0.00  0.00     0.210 HD
ENDBRANCH  16  20
BRANCH  18  22
HETATM   22  O   UNK N   1      21.370  21.712   2.664  0.00  0.00    -0.391 OA
HETATM   23  H   UNK N   1      21.353  22.531   2.143  0.00  0.00     0.210 HD
ENDBRANCH  18  22
ENDBRANCH  10  12
BRANCH   1  24
HETATM   24  C   UNK N   1      29.259  18.108   7.544  0.00  0.00    -0.014 C 
HETATM   25  C   UNK N   1      28.720  18.688   8.842  0.00  0.00     0.010 C 
BRANCH  24  26
HETATM   26  C   UNK N   1      30.095  16.833   7.737  0.00  0.00     0.005 C 
BRANCH  26  27
HETATM   27  C   UNK N   1      31.170  16.940   8.807  0.00  0.00     0.005 C 
BRANCH  27  28
HETATM   28  C   UNK N   1      32.546  16.610   8.224  0.00  0.00    -0.012 C 
BRANCH  28  29
HETATM   29  C   UNK N   1      32.401  15.428   7.272  0.00  0.00     0.000 C 
HETATM   30  C   UNK N   1      33.055  14.188   7.855  0.00  0.00     0.005 C 
ENDBRANCH  28  29
BRANCH  28  31
HETATM   31  C   UNK N   1      33.146  17.815   7.477  0.00  0.00    -0.019 C 
HETATM   32  C   UNK N   1      34.463  18.259   8.085  0.00  0.00     0.010 C 
HETATM   33  C   UNK N   1      33.410  17.480   6.019  0.00  0.00     0.010 C 
ENDBRANCH  28  31
ENDBRANCH  27  28
ENDBRANCH  26  27
ENDBRANCH  24  26
ENDBRANCH   1  24
TORSDOF 9
ENDMDL
MODEL 2
REMARK VINA RESULT:      -8.2     11.518     14.940
REMARK  9 active torsions:
REMARK  status: ('A' for Active; 'I' for Inactive)
REMARK    1  A    between atoms: C_3  and  C_2 
REMARK    2  A    between atoms: C_3  and  C_4 
REMARK    3  A    between atoms: C_3  and  C_29 
REMARK    4  A    between atoms: C_4  and  C_5 
REMARK    5  A    between atoms: C_5  and  C_6 
REMARK    6  A    between atoms: C_8  and  C_6 
REMARK    7  A    between atoms: C_17  and  C_18 
REMARK    8  A    between atoms: C_21  and  O_27 
REMARK    9  A    between atoms: C_23  and  O_26 
ROOT
HETATM    1  C   UNK N   1      26.897  27.293  -5.186  0.00  0.00    -0.002 C 
HETATM    2  C   UNK N   1      27.086  26.558  -3.861  0.00  0.00     0.006 C 
HETATM    3  C   UNK N   1      26.298  25.254  -3.991  0.00  0.00     0.010 C 
HETATM    4  C   UNK N   1      26.037  25.084  -5.490  0.00  0.00     0.023 C 
HETATM    5  C   UNK N   1      25.819  26.522  -5.962  0.00  0.00    -0.033 C 
HETATM    6  C   UNK N   1      25.940  26.658  -7.492  0.00  0.00     0.010 C 
HETATM    7  C   UNK N   1      27.231  26.036  -8.038  0.00  0.00     0.005 C 
HETATM    8  C   UNK N   1      27.295  24.555  -7.680  0.00  0.00     0.034 C 
HETATM    9  C   UNK N   1      27.219  24.431  -6.188  0.00  0.00    -0.075 C 
HETATM   10  C   UNK N   1      28.124  23.728  -5.490  0.00  0.00     0.004 C 
HETATM   11  C   UNK N   1      24.410  26.938  -5.563  0.00  0.00     0.016 C 
ENDROOT
BRANCH  10  12
HETATM   12  C   UNK N   1      29.252  22.996  -6.083  0.00  0.00     0.008 C 
HETATM   13  C   UNK N   1      30.206  22.376  -5.353  0.00  0.00    -0.048 C 
HETATM   14  C   UNK N   1      31.222  21.580  -6.106  0.00  0.00     0.071 C 
HETATM   15  C   UNK N   1      30.253  22.341  -3.843  0.00  0.00    -0.033 C 
HETATM   16  C   UNK N   1      31.425  20.246  -5.407  0.00  0.00     0.125 C 
HETATM   17  C   UNK N   1      32.073  20.536  -4.061  0.00  0.00     0.068 C 
HETATM   18  C   UNK N   1      31.164  21.354  -3.137  0.00  0.00     0.153 C 
HETATM   19  C   UNK N   1      29.423  23.063  -3.085  0.00  0.00     0.022 C 
BRANCH  16  20
HETATM   20  O   UNK N   1      32.276  19.447  -6.168  0.00  0.00    -0.395 OA
HETATM   21  H   UNK N   1      32.110  19.288  -7.110  0.00  0.00     0.210 HD
ENDBRANCH  16  20
BRANCH  18  22
HETATM   22  O   UNK N   1      31.953  22.004  -2.187  0.00  0.00    -0.391 OA
HETATM   23  H   UNK N   1      32.255  21.741  -1.303  0.00  0.00     0.210 HD
ENDBRANCH  18  22
ENDBRANCH  10  12
BRANCH   1  24
HETATM   24  C   UNK N   1      26.821  28.830  -5.037  0.00  0.00    -0.014 C 
HETATM   25  C   UNK N   1      26.313  29.313  -3.687  0.00  0.00     0.010 C 
BRANCH  24  26
HETATM   26  C   UNK N   1      28.011  29.638  -5.574  0.00  0.00     0.005 C 
BRANCH  26  27
HETATM   27  C   UNK N   1      28.780  28.960  -6.697  0.00  0.00     0.005 C 
BRANCH  27  28
HETATM   28  C   UNK N   1      30.120  28.424  -6.187  0.00  0.00    -0.012 C 
BRANCH  28  29
HETATM   29  C   UNK N   1      30.435  29.090  -4.852  0.00  0.00     0.000 C 
HETATM   30  C   UNK N   1      31.647  29.996  -4.980  0.00  0.00     0.005 C 
ENDBRANCH  28  29
BRANCH  28  31
HETATM   31  C   UNK N   1      30.087  26.895  -6.016  0.00  0.00    -0.019 C 
HETATM   32  C   UNK N   1      30.908  26.189  -7.079  0.00  0.00     0.010 C 
HETATM   33  C   UNK N   1      30.646  26.483  -4.664  0.00  0.00     0.010 C 
ENDBRANCH  28  31
ENDBRANCH  27  28
ENDBRANCH  26  27
ENDBRANCH  24  26
ENDBRANCH   1  24
TORSDOF 9
ENDMDL
MODEL 3
REMARK VINA RESULT:      -8.1     11.257     15.114
REMARK  9 active torsions:
REMARK  status: ('A' for Active; 'I' for Inactive)
REMARK    1  A    between atoms: C_3  and  C_2 
REMARK    2  A    between atoms: C_3  and  C_4 
REMARK    3  A    between atoms: C_3  and  C_29 
REMARK    4  A    between atoms: C_4  and  C_5 
REMARK    5  A    between atoms: C_5  and  C_6 
REMARK    6  A    between atoms: C_8  and  C_6 
REMARK    7  A    between atoms: C_17  and  C_18 
REMARK    8  A    between atoms: C_21  and  O_27 
REMARK    9  A    between atoms: C_23  and  O_26 
ROOT
HETATM    1  C   UNK N   1      27.237  26.192  -6.733  0.00  0.00    -0.002 C 
HETATM    2  C   UNK N   1      28.600  26.842  -6.513  0.00  0.00     0.006 C 
HETATM    3  C   UNK N   1      28.610  27.307  -5.057  0.00  0.00     0.010 C 
HETATM    4  C   UNK N   1      27.458  26.558  -4.382  0.00  0.00     0.023 C 
HETATM    5  C   UNK N   1      26.399  26.502  -5.484  0.00  0.00    -0.033 C 
HETATM    6  C   UNK N   1      25.309  25.453  -5.192  0.00  0.00     0.010 C 
HETATM    7  C   UNK N   1      25.893  24.077  -4.849  0.00  0.00     0.005 C 
HETATM    8  C   UNK N   1      26.802  24.179  -3.629  0.00  0.00     0.034 C 
HETATM    9  C   UNK N   1      27.884  25.170  -3.934  0.00  0.00    -0.075 C 
HETATM   10  C   UNK N   1      29.182  24.872  -3.770  0.00  0.00     0.004 C 
HETATM   11  C   UNK N   1      25.729  27.867  -5.561  0.00  0.00     0.016 C 
ENDROOT
BRANCH  10  12
HETATM   12  C   UNK N   1      29.688  23.588  -3.265  0.00  0.00     0.008 C 
HETATM   13  C   UNK N   1      30.752  22.943  -3.795  0.00  0.00    -0.048 C 
HETATM   14  C   UNK N   1      31.209  21.705  -3.096  0.00  0.00     0.071 C 
HETATM   15  C   UNK N   1      31.569  23.441  -4.965  0.00  0.00    -0.033 C 
HETATM   16  C   UNK N   1      32.723  21.732  -2.976  0.00  0.00     0.125 C 
HETATM   17  C   UNK N   1      33.289  21.619  -4.384  0.00  0.00     0.068 C 
HETATM   18  C   UNK N   1      32.921  22.819  -5.262  0.00  0.00     0.153 C 
HETATM   19  C   UNK N   1      31.210  24.506  -5.686  0.00  0.00     0.022 C 
BRANCH  16  20
HETATM   20  O   UNK N   1      33.150  20.645  -2.217  0.00  0.00    -0.395 OA
HETATM   21  H   UNK N   1      32.954  19.734  -2.486  0.00  0.00     0.210 HD
ENDBRANCH  16  20
BRANCH  18  22
HETATM   22  O   UNK N   1      33.005  22.441  -6.603  0.00  0.00    -0.391 OA
HETATM   23  H   UNK N   1      32.769  22.901  -7.424  0.00  0.00     0.210 HD
ENDBRANCH  18  22
ENDBRANCH  10  12
BRANCH   1  24
HETATM   24  C   UNK N   1      26.663  26.421  -8.150  0.00  0.00    -0.014 C 
HETATM   25  C   UNK N   1      27.662  26.958  -9.162  0.00  0.00     0.010 C 
BRANCH  24  26
HETATM   26  C   UNK N   1      25.744  25.325  -8.712  0.00  0.00     0.005 C 
BRANCH  26  27
HETATM   27  C   UNK N   1      26.474  24.115  -9.273  0.00  0.00     0.005 C 
BRANCH  27  28
HETATM   28  C   UNK N   1      26.618  23.028  -8.206  0.00  0.00    -0.012 C 
BRANCH  28  29
HETATM   29  C   UNK N   1      25.701  21.865  -8.569  0.00  0.00     0.000 C 
HETATM   30  C   UNK N   1      24.812  21.499  -7.394  0.00  0.00     0.005 C 
ENDBRANCH  28  29
BRANCH  28  31
HETATM   31  C   UNK N   1      28.072  22.535  -8.096  0.00  0.00    -0.019 C 
HETATM   32  C   UNK N   1      29.058  23.558  -8.630  0.00  0.00     0.010 C 
HETATM   33  C   UNK N   1      28.448  22.257  -6.650  0.00  0.00     0.010 C 
ENDBRANCH  28  31
ENDBRANCH  27  28
ENDBRANCH  26  27
ENDBRANCH  24  26
ENDBRANCH   1  24
TORSDOF 9
ENDMDL
MODEL 4
REMARK VINA RESULT:      -8.0      5.414      8.375
REMARK  9 active torsions:
REMARK  status: ('A' for Active; 'I' for Inactive)
REMARK    1  A    between atoms: C_3  and  C_2 
REMARK    2  A    between atoms: C_3  and  C_4 
REMARK    3  A    between atoms: C_3  and  C_29 
REMARK    4  A    between atoms: C_4  and  C_5 
REMARK    5  A    between atoms: C_5  and  C_6 
REMARK    6  A    between atoms: C_8  and  C_6 
REMARK    7  A    between atoms: C_17  and  C_18 
REMARK    8  A    between atoms: C_21  and  O_27 
REMARK    9  A    between atoms: C_23  and  O_26 
ROOT
HETATM    1  C   UNK N   1      21.680  12.892   5.766  0.00  0.00    -0.002 C 
HETATM    2  C   UNK N   1      20.359  13.607   6.040  0.00  0.00     0.006 C 
HETATM    3  C   UNK N   1      20.616  14.511   7.245  0.00  0.00     0.010 C 
HETATM    4  C   UNK N   1      22.140  14.609   7.363  0.00  0.00     0.023 C 
HETATM    5  C   UNK N   1      22.602  13.210   6.952  0.00  0.00    -0.033 C 
HETATM    6  C   UNK N   1      24.101  13.173   6.599  0.00  0.00     0.010 C 
HETATM    7  C   UNK N   1      24.496  14.257   5.590  0.00  0.00     0.005 C 
HETATM    8  C   UNK N   1      24.167  15.639   6.144  0.00  0.00     0.034 C 
HETATM    9  C   UNK N   1      22.700  15.684   6.447  0.00  0.00    -0.075 C 
HETATM   10  C   UNK N   1      21.910  16.661   5.975  0.00  0.00     0.004 C 
HETATM   11  C   UNK N   1      22.372  12.275   8.131  0.00  0.00     0.016 C 
ENDROOT
BRANCH  10  12
HETATM   12  C   UNK N   1      22.374  17.786   5.151  0.00  0.00     0.008 C 
HETATM   13  C   UNK N   1      21.682  18.277   4.099  0.00  0.00    -0.048 C 
HETATM   14  C   UNK N   1      22.235  19.495   3.434  0.00  0.00     0.071 C 
HETATM   15  C   UNK N   1      20.346  17.752   3.623  0.00  0.00    -0.033 C 
HETATM   16  C   UNK N   1      21.106  20.480   3.183  0.00  0.00     0.125 C 
HETATM   17  C   UNK N   1      20.183  19.853   2.148  0.00  0.00     0.068 C 
HETATM   18  C   UNK N   1      19.512  18.574   2.658  0.00  0.00     0.153 C 
HETATM   19  C   UNK N   1      19.799  16.639   4.117  0.00  0.00     0.022 C 
BRANCH  16  20
HETATM   20  O   UNK N   1      21.628  21.668   2.678  0.00  0.00    -0.395 OA
HETATM   21  H   UNK N   1      22.377  22.112   3.106  0.00  0.00     0.210 HD
ENDBRANCH  16  20
BRANCH  18  22
HETATM   22  O   UNK N   1      19.120  17.802   1.564  0.00  0.00    -0.391 OA
HETATM   23  H   UNK N   1      18.665  18.029   0.737  0.00  0.00     0.210 HD
ENDBRANCH  18  22
ENDBRANCH  10  12
BRANCH   1  24
HETATM   24  C   UNK N   1      21.506  11.440   5.264  0.00  0.00    -0.014 C 
HETATM   25  C   UNK N   1      20.087  10.901   5.356  0.00  0.00     0.010 C 
BRANCH  24  26
HETATM   26  C   UNK N   1      22.225  11.067   3.958  0.00  0.00     0.005 C 
BRANCH  26  27
HETATM   27  C   UNK N   1      21.508  11.511   2.694  0.00  0.00     0.005 C 
BRANCH  27  28
HETATM   28  C   UNK N   1      22.289  12.624   1.992  0.00  0.00    -0.012 C 
BRANCH  28  29
HETATM   29  C   UNK N   1      22.222  12.392   0.487  0.00  0.00     0.000 C 
HETATM   30  C   UNK N   1      23.609  12.470  -0.127  0.00  0.00     0.005 C 
ENDBRANCH  28  29
BRANCH  28  31
HETATM   31  C   UNK N   1      21.721  14.013   2.334  0.00  0.00    -0.019 C 
HETATM   32  C   UNK N   1      22.820  15.038   2.546  0.00  0.00     0.010 C 
HETATM   33  C   UNK N   1      20.828  14.531   1.218  0.00  0.00     0.010 C 
ENDBRANCH  28  31
ENDBRANCH  27  28
ENDBRANCH  26  27
ENDBRANCH  24  26
ENDBRANCH   1  24
TORSDOF 9
ENDMDL
MODEL 5
REMARK VINA RESULT:      -8.0     12.350     15.366
REMARK  9 active torsions:
REMARK  status: ('A' for Active; 'I' for Inactive)
REMARK    1  A    between atoms: C_3  and  C_2 
REMARK    2  A    between atoms: C_3  and  C_4 
REMARK    3  A    between atoms: C_3  and  C_29 
REMARK    4  A    between atoms: C_4  and  C_5 
REMARK    5  A    between atoms: C_5  and  C_6 
REMARK    6  A    between atoms: C_8  and  C_6 
REMARK    7  A    between atoms: C_17  and  C_18 
REMARK    8  A    between atoms: C_21  and  O_27 
REMARK    9  A    between atoms: C_23  and  O_26 
ROOT
HETATM    1  C   UNK N   1      29.204  25.516  -4.633  0.00  0.00    -0.002 C 
HETATM    2  C   UNK N   1      30.027  25.277  -5.897  0.00  0.00     0.006 C 
HETATM    3  C   UNK N   1      29.813  23.808  -6.262  0.00  0.00     0.010 C 
HETATM    4  C   UNK N   1      28.578  23.368  -5.472  0.00  0.00     0.023 C 
HETATM    5  C   UNK N   1      28.724  24.137  -4.158  0.00  0.00    -0.033 C 
HETATM    6  C   UNK N   1      27.407  24.180  -3.359  0.00  0.00     0.010 C 
HETATM    7  C   UNK N   1      26.220  24.656  -4.205  0.00  0.00     0.005 C 
HETATM    8  C   UNK N   1      26.025  23.735  -5.404  0.00  0.00     0.034 C 
HETATM    9  C   UNK N   1      27.294  23.729  -6.201  0.00  0.00    -0.075 C 
HETATM   10  C   UNK N   1      27.302  23.980  -7.519  0.00  0.00     0.004 C 
HETATM   11  C   UNK N   1      29.766  23.422  -3.310  0.00  0.00     0.016 C 
ENDROOT
BRANCH  10  12
HETATM   12  C   UNK N   1      26.105  24.258  -8.325  0.00  0.00     0.008 C 
HETATM   13  C   UNK N   1      26.103  25.073  -9.403  0.00  0.00    -0.048 C 
HETATM   14  C   UNK N   1      24.831  25.162 -10.181  0.00  0.00     0.071 C 
HETATM   15  C   UNK N   1      27.313  25.806  -9.935  0.00  0.00    -0.033 C 
HETATM   16  C   UNK N   1      25.148  25.078 -11.664  0.00  0.00     0.125 C 
HETATM   17  C   UNK N   1      25.921  26.336 -12.032  0.00  0.00     0.068 C 
HETATM   18  C   UNK N   1      27.277  26.420 -11.322  0.00  0.00     0.153 C 
HETATM   19  C   UNK N   1      28.477  25.832  -9.281  0.00  0.00     0.022 C 
BRANCH  16  20
HETATM   20  O   UNK N   1      23.962  25.034 -12.393  0.00  0.00    -0.395 OA
HETATM   21  H   UNK N   1      23.164  24.616 -12.033  0.00  0.00     0.210 HD
ENDBRANCH  16  20
BRANCH  18  22
HETATM   22  O   UNK N   1      27.683  27.754 -11.281  0.00  0.00    -0.391 OA
HETATM   23  H   UNK N   1      27.718  28.444 -11.963  0.00  0.00     0.210 HD
ENDBRANCH  18  22
ENDBRANCH  10  12
BRANCH   1  24
HETATM   24  C   UNK N   1      29.857  26.512  -3.647  0.00  0.00    -0.014 C 
HETATM   25  C   UNK N   1      31.372  26.606  -3.748  0.00  0.00     0.010 C 
BRANCH  24  26
HETATM   26  C   UNK N   1      29.164  27.872  -3.475  0.00  0.00     0.005 C 
BRANCH  26  27
HETATM   27  C   UNK N   1      27.646  27.812  -3.478  0.00  0.00     0.005 C 
BRANCH  27  28
HETATM   28  C   UNK N   1      27.077  28.577  -4.676  0.00  0.00    -0.012 C 
BRANCH  28  29
HETATM   29  C   UNK N   1      27.864  29.872  -4.844  0.00  0.00     0.000 C 
HETATM   30  C   UNK N   1      27.040  31.062  -4.383  0.00  0.00     0.005 C 
ENDBRANCH  28  29
BRANCH  28  31
HETATM   31  C   UNK N   1      27.156  27.743  -5.967  0.00  0.00    -0.019 C 
HETATM   32  C   UNK N   1      25.780  27.367  -6.482  0.00  0.00     0.010 C 
HETATM   33  C   UNK N   1      27.860  28.512  -7.073  0.00  0.00     0.010 C 
ENDBRANCH  28  31
ENDBRANCH  27  28
ENDBRANCH  26  27
ENDBRANCH  24  26
ENDBRANCH   1  24
TORSDOF 9
ENDMDL
MODEL 6
REMARK VINA RESULT:      -7.8      6.198     11.116
REMARK  9 active torsions:
REMARK  status: ('A' for Active; 'I' for Inactive)
REMARK    1  A    between atoms: C_3  and  C_2 
REMARK    2  A    between atoms: C_3  and  C_4 
REMARK    3  A    between atoms: C_3  and  C_29 
REMARK    4  A    between atoms: C_4  and  C_5 
REMARK    5  A    between atoms: C_5  and  C_6 
REMARK    6  A    between atoms: C_8  and  C_6 
REMARK    7  A    between atoms: C_17  and  C_18 
REMARK    8  A    between atoms: C_21  and  O_27 
REMARK    9  A    between atoms: C_23  and  O_26 
ROOT
HETATM    1  C   UNK N   1      32.001  15.305   5.691  0.00  0.00    -0.002 C 
HETATM    2  C   UNK N   1      32.416  13.873   6.023  0.00  0.00     0.006 C 
HETATM    3  C   UNK N   1      33.936  13.834   5.869  0.00  0.00     0.010 C 
HETATM    4  C   UNK N   1      34.384  15.298   5.869  0.00  0.00     0.023 C 
HETATM    5  C   UNK N   1      33.248  16.000   5.125  0.00  0.00    -0.033 C 
HETATM    6  C   UNK N   1      33.262  17.525   5.345  0.00  0.00     0.010 C 
HETATM    7  C   UNK N   1      33.333  17.905   6.829  0.00  0.00     0.005 C 
HETATM    8  C   UNK N   1      34.588  17.315   7.464  0.00  0.00     0.034 C 
HETATM    9  C   UNK N   1      34.549  15.828   7.284  0.00  0.00    -0.075 C 
HETATM   10  C   UNK N   1      34.705  14.986   8.317  0.00  0.00     0.004 C 
HETATM   11  C   UNK N   1      33.430  15.738   3.636  0.00  0.00     0.016 C 
ENDROOT
BRANCH  10  12
HETATM   12  C   UNK N   1      34.950  15.402   9.705  0.00  0.00     0.008 C 
HETATM   13  C   UNK N   1      34.980  14.544  10.748  0.00  0.00    -0.048 C 
HETATM   14  C   UNK N   1      35.354  15.110  12.080  0.00  0.00     0.071 C 
HETATM   15  C   UNK N   1      34.773  13.050  10.644  0.00  0.00    -0.033 C 
HETATM   16  C   UNK N   1      36.350  14.181  12.752  0.00  0.00     0.125 C 
HETATM   17  C   UNK N   1      35.617  12.886  13.069  0.00  0.00     0.068 C 
HETATM   18  C   UNK N   1      35.152  12.151  11.807  0.00  0.00     0.153 C 
HETATM   19  C   UNK N   1      34.384  12.460   9.512  0.00  0.00     0.022 C 
BRANCH  16  20
HETATM   20  O   UNK N   1      36.800  14.760  13.937  0.00  0.00    -0.395 OA
HETATM   21  H   UNK N   1      36.957  15.714  14.004  0.00  0.00     0.210 HD
ENDBRANCH  16  20
BRANCH  18  22
HETATM   22  O   UNK N   1      34.094  11.305  12.140  0.00  0.00    -0.391 OA
HETATM   23  H   UNK N   1      33.545  10.708  11.606  0.00  0.00     0.210 HD
ENDBRANCH  18  22
ENDBRANCH  10  12
BRANCH   1  24
HETATM   24  C   UNK N   1      30.639  15.403   4.966  0.00  0.00    -0.014 C 
HETATM   25  C   UNK N   1      29.893  14.085   4.833  0.00  0.00     0.010 C 
BRANCH  24  26
HETATM   26  C   UNK N   1      29.737  16.588   5.342  0.00  0.00     0.005 C 
BRANCH  26  27
HETATM   27  C   UNK N   1      29.322  16.626   6.804  0.00  0.00     0.005 C 
BRANCH  27  28
HETATM   28  C   UNK N   1      29.517  18.028   7.385  0.00  0.00    -0.012 C 
BRANCH  28  29
HETATM   29  C   UNK N   1      28.150  18.603   7.738  0.00  0.00     0.000 C 
HETATM   30  C   UNK N   1      27.815  19.778   6.837  0.00  0.00     0.005 C 
ENDBRANCH  28  29
BRANCH  28  31
HETATM   31  C   UNK N   1      30.413  18.000   8.636  0.00  0.00    -0.019 C 
HETATM   32  C   UNK N   1      29.705  18.565   9.853  0.00  0.00     0.010 C 
HETATM   33  C   UNK N   1      30.835  16.581   8.976  0.00  0.00     0.010 C 
ENDBRANCH  28  31
ENDBRANCH  27  28
ENDBRANCH  26  27
ENDBRANCH  24  26
ENDBRANCH   1  24
TORSDOF 9
ENDMDL
MODEL 7
REMARK VINA RESULT:      -7.7      5.856      9.557
REMARK  9 active torsions:
REMARK  status: ('A' for Active; 'I' for Inactive)
REMARK    1  A    between atoms: C_3  and  C_2 
REMARK    2  A    between atoms: C_3  and  C_4 
REMARK    3  A    between atoms: C_3  and  C_29 
REMARK    4  A    between atoms: C_4  and  C_5 
REMARK    5  A    between atoms: C_5  and  C_6 
REMARK    6  A    between atoms: C_8  and  C_6 
REMARK    7  A    between atoms: C_17  and  C_18 
REMARK    8  A    between atoms: C_21  and  O_27 
REMARK    9  A    between atoms: C_23  and  O_26 
ROOT
HETATM    1  C   UNK N   1      22.151  13.825   1.952  0.00  0.00    -0.002 C 
HETATM    2  C   UNK N   1      21.603  12.589   2.661  0.00  0.00     0.006 C 
HETATM    3  C   UNK N   1      22.752  11.581   2.690  0.00  0.00     0.010 C 
HETATM    4  C   UNK N   1      24.014  12.393   2.389  0.00  0.00     0.023 C 
HETATM    5  C   UNK N   1      23.518  13.427   1.376  0.00  0.00    -0.033 C 
HETATM    6  C   UNK N   1      24.495  14.608   1.224  0.00  0.00     0.010 C 
HETATM    7  C   UNK N   1      24.886  15.227   2.572  0.00  0.00     0.005 C 
HETATM    8  C   UNK N   1      25.537  14.176   3.465  0.00  0.00     0.034 C 
HETATM    9  C   UNK N   1      24.567  13.048   3.644  0.00  0.00    -0.075 C 
HETATM   10  C   UNK N   1      24.231  12.589   4.860  0.00  0.00     0.004 C 
HETATM   11  C   UNK N   1      23.399  12.738   0.024  0.00  0.00     0.016 C 
ENDROOT
BRANCH  10  12
HETATM   12  C   UNK N   1      24.774  13.102   6.126  0.00  0.00     0.008 C 
HETATM   13  C   UNK N   1      24.085  13.102   7.288  0.00  0.00    -0.048 C 
HETATM   14  C   UNK N   1      24.818  13.554   8.509  0.00  0.00     0.071 C 
HETATM   15  C   UNK N   1      22.677  12.578   7.459  0.00  0.00    -0.033 C 
HETATM   16  C   UNK N   1      24.523  12.594   9.649  0.00  0.00     0.125 C 
HETATM   17  C   UNK N   1      23.050  12.747   9.998  0.00  0.00     0.068 C 
HETATM   18  C   UNK N   1      22.129  12.322   8.850  0.00  0.00     0.153 C 
HETATM   19  C   UNK N   1      21.923  12.205   6.421  0.00  0.00     0.022 C 
BRANCH  16  20
HETATM   20  O   UNK N   1      25.298  12.934  10.756  0.00  0.00    -0.395 OA
HETATM   21  H   UNK N   1      25.547  12.272  11.420  0.00  0.00     0.210 HD
ENDBRANCH  16  20
BRANCH  18  22
HETATM   22  O   UNK N   1      20.889  12.941   9.013  0.00  0.00    -0.391 OA
HETATM   23  H   UNK N   1      20.189  13.172   8.380  0.00  0.00     0.210 HD
ENDBRANCH  18  22
ENDBRANCH  10  12
BRANCH   1  24
HETATM   24  C   UNK N   1      21.105  14.554   1.078  0.00  0.00    -0.014 C 
HETATM   25  C   UNK N   1      19.896  13.712   0.699  0.00  0.00     0.010 C 
BRANCH  24  26
HETATM   26  C   UNK N   1      20.753  15.996   1.475  0.00  0.00     0.005 C 
BRANCH  26  27
HETATM   27  C   UNK N   1      20.417  16.182   2.946  0.00  0.00     0.005 C 
BRANCH  27  28
HETATM   28  C   UNK N   1      21.623  16.733   3.710  0.00  0.00    -0.012 C 
BRANCH  28  29
HETATM   29  C   UNK N   1      21.277  18.125   4.226  0.00  0.00     0.000 C 
HETATM   30  C   UNK N   1      21.980  19.190   3.404  0.00  0.00     0.005 C 
ENDBRANCH  28  29
BRANCH  28  31
HETATM   31  C   UNK N   1      22.011  15.819   4.886  0.00  0.00    -0.019 C 
HETATM   32  C   UNK N   1      23.177  16.381   5.678  0.00  0.00     0.010 C 
HETATM   33  C   UNK N   1      20.850  15.645   5.852  0.00  0.00     0.010 C 
ENDBRANCH  28  31
ENDBRANCH  27  28
ENDBRANCH  26  27
ENDBRANCH  24  26
ENDBRANCH   1  24
TORSDOF 9
ENDMDL
MODEL 8
REMARK VINA RESULT:      -7.5      9.137     14.127
REMARK  9 active torsions:
REMARK  status: ('A' for Active; 'I' for Inactive)
REMARK    1  A    between atoms: C_3  and  C_2 
REMARK    2  A    between atoms: C_3  and  C_4 
REMARK    3  A    between atoms: C_3  and  C_29 
REMARK    4  A    between atoms: C_4  and  C_5 
REMARK    5  A    between atoms: C_5  and  C_6 
REMARK    6  A    between atoms: C_8  and  C_6 
REMARK    7  A    between atoms: C_17  and  C_18 
REMARK    8  A    between atoms: C_21  and  O_27 
REMARK    9  A    between atoms: C_23  and  O_26 
ROOT
HETATM    1  C   UNK N   1      34.949  13.118   9.962  0.00  0.00    -0.002 C 
HETATM    2  C   UNK N   1      35.181  11.709  10.502  0.00  0.00     0.006 C 
HETATM    3  C   UNK N   1      36.555  11.739  11.170  0.00  0.00     0.010 C 
HETATM    4  C   UNK N   1      36.882  13.222  11.364  0.00  0.00     0.023 C 
HETATM    5  C   UNK N   1      36.281  13.867  10.114  0.00  0.00    -0.033 C 
HETATM    6  C   UNK N   1      36.122  15.392  10.265  0.00  0.00     0.010 C 
HETATM    7  C   UNK N   1      35.388  15.782  11.554  0.00  0.00     0.005 C 
HETATM    8  C   UNK N   1      36.143  15.255  12.770  0.00  0.00     0.034 C 
HETATM    9  C   UNK N   1      36.259  13.766  12.639  0.00  0.00    -0.075 C 
HETATM   10  C   UNK N   1      35.880  12.938  13.624  0.00  0.00     0.004 C 
HETATM   11  C   UNK N   1      37.228  13.606   8.951  0.00  0.00     0.016 C 
ENDROOT
BRANCH  10  12
HETATM   12  C   UNK N   1      35.344  13.371  14.921  0.00  0.00     0.008 C 
HETATM   13  C   UNK N   1      35.198  12.548  15.983  0.00  0.00    -0.048 C 
HETATM   14  C   UNK N   1      34.744  13.169  17.264  0.00  0.00     0.071 C 
HETATM   15  C   UNK N   1      35.562  11.080  15.994  0.00  0.00    -0.033 C 
HETATM   16  C   UNK N   1      35.592  12.631  18.404  0.00  0.00     0.125 C 
HETATM   17  C   UNK N   1      35.267  11.151  18.549  0.00  0.00     0.068 C 
HETATM   18  C   UNK N   1      35.669  10.339  17.313  0.00  0.00     0.153 C 
HETATM   19  C   UNK N   1      35.923  10.425  14.888  0.00  0.00     0.022 C 
BRANCH  16  20
HETATM   20  O   UNK N   1      35.262  13.295  19.583  0.00  0.00    -0.395 OA
HETATM   21  H   UNK N   1      34.760  12.854  20.286  0.00  0.00     0.210 HD
ENDBRANCH  16  20
BRANCH  18  22
HETATM   22  O   UNK N   1      34.916   9.164  17.281  0.00  0.00    -0.391 OA
HETATM   23  H   UNK N   1      34.057   8.931  17.669  0.00  0.00     0.210 HD
ENDBRANCH  18  22
ENDBRANCH  10  12
BRANCH   1  24
HETATM   24  C   UNK N   1      34.169  13.149   8.627  0.00  0.00    -0.014 C 
HETATM   25  C   UNK N   1      34.043  11.802   7.933  0.00  0.00     0.010 C 
BRANCH  24  26
HETATM   26  C   UNK N   1      32.879  13.983   8.598  0.00  0.00     0.005 C 
BRANCH  26  27
HETATM   27  C   UNK N   1      32.816  15.009   7.478  0.00  0.00     0.005 C 
BRANCH  27  28
HETATM   28  C   UNK N   1      34.013  15.958   7.546  0.00  0.00    -0.012 C 
BRANCH  28  29
HETATM   29  C   UNK N   1      34.920  15.685   6.352  0.00  0.00     0.000 C 
HETATM   30  C   UNK N   1      34.131  15.070   5.210  0.00  0.00     0.005 C 
ENDBRANCH  28  29
BRANCH  28  31
HETATM   31  C   UNK N   1      33.567  17.431   7.540  0.00  0.00    -0.019 C 
HETATM   32  C   UNK N   1      32.249  17.626   8.267  0.00  0.00     0.010 C 
HETATM   33  C   UNK N   1      34.595  18.319   8.221  0.00  0.00     0.010 C 
ENDBRANCH  28  31
ENDBRANCH  27  28
ENDBRANCH  26  27
ENDBRANCH  24  26
ENDBRANCH   1  24
TORSDOF 9
ENDMDL
MODEL 9
REMARK VINA RESULT:      -7.4     10.272     13.884
REMARK  9 active torsions:
REMARK  status: ('A' for Active; 'I' for Inactive)
REMARK    1  A    between atoms: C_3  and  C_2 
REMARK    2  A    between atoms: C_3  and  C_4 
REMARK    3  A    between atoms: C_3  and  C_29 
REMARK    4  A    between atoms: C_4  and  C_5 
REMARK    5  A    between atoms: C_5  and  C_6 
REMARK    6  A    between atoms: C_8  and  C_6 
REMARK    7  A    between atoms: C_17  and  C_18 
REMARK    8  A    between atoms: C_21  and  O_27 
REMARK    9  A    between atoms: C_23  and  O_26 
ROOT
HETATM    1  C   UNK N   1      35.935   9.399  13.452  0.00  0.00    -0.002 C 
HETATM    2  C   UNK N   1      34.553   9.719  12.888  0.00  0.00     0.006 C 
HETATM    3  C   UNK N   1      33.874  10.610  13.929  0.00  0.00     0.010 C 
HETATM    4  C   UNK N   1      35.002  11.111  14.834  0.00  0.00     0.023 C 
HETATM    5  C   UNK N   1      35.943   9.907  14.901  0.00  0.00    -0.033 C 
HETATM    6  C   UNK N   1      37.344  10.291  15.417  0.00  0.00     0.010 C 
HETATM    7  C   UNK N   1      37.944  11.481  14.659  0.00  0.00     0.005 C 
HETATM    8  C   UNK N   1      37.035  12.699  14.785  0.00  0.00     0.034 C 
HETATM    9  C   UNK N   1      35.686  12.334  14.244  0.00  0.00    -0.075 C 
HETATM   10  C   UNK N   1      35.072  13.079  13.312  0.00  0.00     0.004 C 
HETATM   11  C   UNK N   1      35.345   8.899  15.872  0.00  0.00     0.016 C 
ENDROOT
BRANCH  10  12
HETATM   12  C   UNK N   1      35.616  14.320  12.742  0.00  0.00     0.008 C 
HETATM   13  C   UNK N   1      35.530  14.640  11.432  0.00  0.00    -0.048 C 
HETATM   14  C   UNK N   1      36.033  15.989  11.031  0.00  0.00     0.071 C 
HETATM   15  C   UNK N   1      34.869  13.785  10.374  0.00  0.00    -0.033 C 
HETATM   16  C   UNK N   1      35.032  16.631  10.086  0.00  0.00     0.125 C 
HETATM   17  C   UNK N   1      35.034  15.814   8.802  0.00  0.00     0.068 C 
HETATM   18  C   UNK N   1      34.539  14.381   9.019  0.00  0.00     0.153 C 
HETATM   19  C   UNK N   1      34.440  12.545  10.623  0.00  0.00     0.022 C 
BRANCH  16  20
HETATM   20  O   UNK N   1      35.428  17.936   9.805  0.00  0.00    -0.395 OA
HETATM   21  H   UNK N   1      36.256  18.299  10.159  0.00  0.00     0.210 HD
ENDBRANCH  16  20
BRANCH  18  22
HETATM   22  O   UNK N   1      35.032  13.573   7.993  0.00  0.00    -0.391 OA
HETATM   23  H   UNK N   1      34.779  13.480   7.060  0.00  0.00     0.210 HD
ENDBRANCH  18  22
ENDBRANCH  10  12
BRANCH   1  24
HETATM   24  C   UNK N   1      36.431   7.976  13.108  0.00  0.00    -0.014 C 
HETATM   25  C   UNK N   1      35.330   6.983  12.769  0.00  0.00     0.010 C 
BRANCH  24  26
HETATM   26  C   UNK N   1      37.660   7.872  12.192  0.00  0.00     0.005 C 
BRANCH  26  27
HETATM   27  C   UNK N   1      38.253   9.209  11.777  0.00  0.00     0.005 C 
BRANCH  27  28
HETATM   28  C   UNK N   1      38.107   9.419  10.268  0.00  0.00    -0.012 C 
BRANCH  28  29
HETATM   29  C   UNK N   1      37.030   8.476   9.747  0.00  0.00     0.000 C 
HETATM   30  C   UNK N   1      35.780   9.249   9.367  0.00  0.00     0.005 C 
ENDBRANCH  28  29
BRANCH  28  31
HETATM   31  C   UNK N   1      37.736  10.875   9.936  0.00  0.00    -0.019 C 
HETATM   32  C   UNK N   1      37.893  11.788  11.137  0.00  0.00     0.010 C 
HETATM   33  C   UNK N   1      38.620  11.427   8.829  0.00  0.00     0.010 C 
ENDBRANCH  28  31
ENDBRANCH  27  28
ENDBRANCH  26  27
ENDBRANCH  24  26
ENDBRANCH   1  24
TORSDOF 9
ENDMDL
