MODEL 1
REMARK VINA RESULT:      -7.0      0.000      0.000
REMARK  5 active torsions:
REMARK  status: ('A' for Active; 'I' for Inactive)
REMARK    1  A    between atoms: C_10  and  C_8 
REMARK    2  A    between atoms: C_8  and  O_21 
REMARK    3  A    between atoms: S_25  and  C_9 
REMARK    4  A    between atoms: C_15  and  C_12 
REMARK    5  A    between atoms: S_25  and  C_13 
ROOT
HETATM    1  C   UNK N   1      21.326  13.291   5.908  0.00  0.00     0.017 C 
HETATM    2  C   UNK N   1      21.958  14.428   6.695  0.00  0.00     0.043 C 
HETATM    3  C   UNK N   1      21.476  12.846   8.965  0.00  0.00     0.120 A 
HETATM    4  C   UNK N   1      22.222  14.057   8.193  0.00  0.00     0.095 A 
HETATM    5  C   UNK N   1      20.657  15.841   8.027  0.00  0.00     0.108 C 
HETATM    6  C   UNK N   1      21.022  15.630   6.762  0.00  0.00     0.013 C 
HETATM    7  C   UNK N   1      20.683  13.976   9.527  0.00  0.00     0.213 A 
HETATM    8  N   UNK N   1      21.302  14.921   8.859  0.00  0.00    -0.206 NA
HETATM    9  O   UNK N   1      19.490  13.982   9.794  0.00  0.00    -0.279 OA
ENDROOT
BRANCH   6  10
HETATM   10  S   UNK N   1      20.381  16.593   5.354  0.00  0.00    -0.123 SA
BRANCH  10  11
HETATM   11  C   UNK N   1      21.506  18.034   5.158  0.00  0.00     0.092 C 
HETATM   12  C   UNK N   1      21.098  19.046   4.062  0.00  0.00     0.167 C 
HETATM   13  N   UNK N   1      22.392  19.529   3.663  0.00  0.00    -0.283 N 
HETATM   14  C   UNK N   1      22.853  20.459   2.817  0.00  0.00     0.201 A 
HETATM   15  N   UNK N   1      23.396  18.931   4.216  0.00  0.00    -0.283 N 
HETATM   16  N   UNK N   1      24.211  20.444   2.840  0.00  0.00    -0.346 N 
HETATM   17  C   UNK N   1      24.527  19.465   3.731  0.00  0.00     0.201 A 
ATOM     18  HN  UNK N   1      24.852  21.034   2.309  1.00  0.00     0.167 HD
HETATM   19  C   UNK N   1      23.051  17.893   5.156  0.00  0.00     0.167 C 
ENDBRANCH  10  11
ENDBRANCH   6  10
BRANCH   5  20
HETATM   20  C   UNK N   1      19.681  16.847   8.531  0.00  0.00     0.222 C 
HETATM   21  O   UNK N   1      20.083  17.915   8.964  0.00  0.00    -0.643 OA
HETATM   22  O   UNK N   1      18.358  16.597   8.529  0.00  0.00    -0.643 OA
ENDBRANCH   5  20
BRANCH   3  23
HETATM   23  C   UNK N   1      22.392  12.133   9.962  0.00  0.00     0.128 C 
HETATM   24  C   UNK N   1      23.556  11.480   9.241  0.00  0.00     0.040 C 
BRANCH  23  25
HETATM   25  O   UNK N   1      22.890  13.067  10.870  0.00  0.00    -0.395 OA
HETATM   26  H   UNK N   1      23.384  13.838  10.553  0.00  0.00     0.210 HD
ENDBRANCH  23  25
ENDBRANCH   3  23
TORSDOF 5
ENDMDL
MODEL 2
REMARK VINA RESULT:      -6.6     11.002     12.475
REMARK  5 active torsions:
REMARK  status: ('A' for Active; 'I' for Inactive)
REMARK    1  A    between atoms: C_10  and  C_8 
REMARK    2  A    between atoms: C_8  and  O_21 
REMARK    3  A    between atoms: S_25  and  C_9 
REMARK    4  A    between atoms: C_15  and  C_12 
REMARK    5  A    between atoms: S_25  and  C_13 
ROOT
HETATM    1  C   UNK N   1      33.292  13.769   8.184  0.00  0.00     0.017 C 
HETATM    2  C   UNK N   1      34.444  14.590   7.628  0.00  0.00     0.043 C 
HETATM    3  C   UNK N   1      35.452  14.562  10.250  0.00  0.00     0.120 A 
HETATM    4  C   UNK N   1      35.617  14.763   8.652  0.00  0.00     0.095 A 
HETATM    5  C   UNK N   1      34.647  16.867   8.114  0.00  0.00     0.108 C 
HETATM    6  C   UNK N   1      33.999  16.014   7.319  0.00  0.00     0.013 C 
HETATM    7  C   UNK N   1      35.441  16.052  10.221  0.00  0.00     0.213 A 
HETATM    8  N   UNK N   1      35.550  16.163   8.917  0.00  0.00    -0.206 NA
HETATM    9  O   UNK N   1      34.783  16.801  10.928  0.00  0.00    -0.279 OA
ENDROOT
BRANCH   6  10
HETATM   10  S   UNK N   1      32.706  16.522   6.139  0.00  0.00    -0.123 SA
BRANCH  10  11
HETATM   11  C   UNK N   1      31.115  16.466   7.059  0.00  0.00     0.092 C 
HETATM   12  C   UNK N   1      29.947  17.244   6.408  0.00  0.00     0.167 C 
HETATM   13  N   UNK N   1      29.210  17.630   7.579  0.00  0.00    -0.283 N 
HETATM   14  C   UNK N   1      28.057  18.265   7.824  0.00  0.00     0.201 A 
HETATM   15  N   UNK N   1      29.772  17.333   8.705  0.00  0.00    -0.283 N 
HETATM   16  N   UNK N   1      27.887  18.371   9.168  0.00  0.00    -0.346 N 
HETATM   17  C   UNK N   1      28.989  17.776   9.700  0.00  0.00     0.201 A 
ATOM     18  HN  UNK N   1      27.107  18.800   9.667  1.00  0.00     0.167 HD
HETATM   19  C   UNK N   1      31.035  16.644   8.599  0.00  0.00     0.167 C 
ENDBRANCH  10  11
ENDBRANCH   6  10
BRANCH   5  20
HETATM   20  C   UNK N   1      34.448  18.340   8.216  0.00  0.00     0.222 C 
HETATM   21  O   UNK N   1      35.418  19.080   8.257  0.00  0.00    -0.643 OA
HETATM   22  O   UNK N   1      33.213  18.875   8.272  0.00  0.00    -0.643 OA
ENDBRANCH   5  20
BRANCH   3  23
HETATM   23  C   UNK N   1      36.690  13.933  10.893  0.00  0.00     0.128 C 
HETATM   24  C   UNK N   1      36.846  12.491  10.445  0.00  0.00     0.040 C 
BRANCH  23  25
HETATM   25  O   UNK N   1      37.820  14.651  10.502  0.00  0.00    -0.395 OA
HETATM   26  H   UNK N   1      38.453  14.963  11.166  0.00  0.00     0.210 HD
ENDBRANCH  23  25
ENDBRANCH   3  23
TORSDOF 5
ENDMDL
MODEL 3
REMARK VINA RESULT:      -6.6      2.237      2.630
REMARK  5 active torsions:
REMARK  status: ('A' for Active; 'I' for Inactive)
REMARK    1  A    between atoms: C_10  and  C_8 
REMARK    2  A    between atoms: C_8  and  O_21 
REMARK    3  A    between atoms: S_25  and  C_9 
REMARK    4  A    between atoms: C_15  and  C_12 
REMARK    5  A    between atoms: S_25  and  C_13 
ROOT
HETATM    1  C   UNK N   1      20.510  12.654   6.130  0.00  0.00     0.017 C 
HETATM    2  C   UNK N   1      21.235  13.926   6.537  0.00  0.00     0.043 C 
HETATM    3  C   UNK N   1      21.767  12.601   8.955  0.00  0.00     0.120 A 
HETATM    4  C   UNK N   1      22.047  13.764   7.866  0.00  0.00     0.095 A 
HETATM    5  C   UNK N   1      20.320  15.381   8.120  0.00  0.00     0.108 C 
HETATM    6  C   UNK N   1      20.245  15.047   6.832  0.00  0.00     0.013 C 
HETATM    7  C   UNK N   1      21.090  13.723   9.665  0.00  0.00     0.213 A 
HETATM    8  N   UNK N   1      21.320  14.626   8.741  0.00  0.00    -0.206 NA
HETATM    9  O   UNK N   1      20.073  13.665  10.341  0.00  0.00    -0.279 OA
ENDROOT
BRANCH   6  10
HETATM   10  S   UNK N   1      19.042  15.775   5.671  0.00  0.00    -0.123 SA
BRANCH  10  11
HETATM   11  C   UNK N   1      19.965  16.118   4.118  0.00  0.00     0.092 C 
HETATM   12  C   UNK N   1      20.058  17.609   3.720  0.00  0.00     0.167 C 
HETATM   13  N   UNK N   1      20.109  17.491   2.289  0.00  0.00    -0.283 N 
HETATM   14  C   UNK N   1      20.256  18.334   1.259  0.00  0.00     0.201 A 
HETATM   15  N   UNK N   1      19.957  16.292   1.830  0.00  0.00    -0.283 N 
HETATM   16  N   UNK N   1      20.193  17.630   0.098  0.00  0.00    -0.346 N 
HETATM   17  C   UNK N   1      19.999  16.341   0.490  0.00  0.00     0.201 A 
ATOM     18  HN  UNK N   1      20.273  17.986  -0.854  1.00  0.00     0.167 HD
HETATM   19  C   UNK N   1      19.781  15.269   2.832  0.00  0.00     0.167 C 
ENDBRANCH  10  11
ENDBRANCH   6  10
BRANCH   5  20
HETATM   20  C   UNK N   1      19.468  16.359   8.854  0.00  0.00     0.222 C 
HETATM   21  O   UNK N   1      19.904  17.470   9.108  0.00  0.00    -0.643 OA
HETATM   22  O   UNK N   1      18.223  16.037   9.253  0.00  0.00    -0.643 OA
ENDBRANCH   5  20
BRANCH   3  23
HETATM   23  C   UNK N   1      23.050  12.092   9.614  0.00  0.00     0.128 C 
HETATM   24  C   UNK N   1      24.005  11.549   8.568  0.00  0.00     0.040 C 
BRANCH  23  25
HETATM   25  O   UNK N   1      23.667  13.150  10.283  0.00  0.00    -0.395 OA
HETATM   26  H   UNK N   1      24.352  13.673   9.839  0.00  0.00     0.210 HD
ENDBRANCH  23  25
ENDBRANCH   3  23
TORSDOF 5
ENDMDL
MODEL 4
REMARK VINA RESULT:      -6.5      5.308      6.653
REMARK  5 active torsions:
REMARK  status: ('A' for Active; 'I' for Inactive)
REMARK    1  A    between atoms: C_10  and  C_8 
REMARK    2  A    between atoms: C_8  and  O_21 
REMARK    3  A    between atoms: S_25  and  C_9 
REMARK    4  A    between atoms: C_15  and  C_12 
REMARK    5  A    between atoms: S_25  and  C_13 
ROOT
HETATM    1  C   UNK N   1      22.323  15.113   2.936  0.00  0.00     0.017 C 
HETATM    2  C   UNK N   1      21.061  15.797   3.434  0.00  0.00     0.043 C 
HETATM    3  C   UNK N   1      20.162  15.606   0.780  0.00  0.00     0.120 A 
HETATM    4  C   UNK N   1      19.915  15.811   2.366  0.00  0.00     0.095 A 
HETATM    5  C   UNK N   1      20.604  18.025   2.896  0.00  0.00     0.108 C 
HETATM    6  C   UNK N   1      21.319  17.270   3.730  0.00  0.00     0.013 C 
HETATM    7  C   UNK N   1      19.993  17.087   0.780  0.00  0.00     0.213 A 
HETATM    8  N   UNK N   1      19.823  17.204   2.076  0.00  0.00    -0.206 NA
HETATM    9  O   UNK N   1      20.582  17.899   0.081  0.00  0.00    -0.279 OA
ENDROOT
BRANCH   6  10
HETATM   10  S   UNK N   1      22.497  17.949   4.945  0.00  0.00    -0.123 SA
BRANCH  10  11
HETATM   11  C   UNK N   1      24.053  18.282   4.025  0.00  0.00     0.092 C 
HETATM   12  C   UNK N   1      25.243  17.362   4.384  0.00  0.00     0.167 C 
HETATM   13  N   UNK N   1      26.342  18.256   4.145  0.00  0.00    -0.283 N 
HETATM   14  C   UNK N   1      27.678  18.167   4.172  0.00  0.00     0.201 A 
HETATM   15  N   UNK N   1      26.009  19.469   3.846  0.00  0.00    -0.283 N 
HETATM   16  N   UNK N   1      28.209  19.383   3.878  0.00  0.00    -0.346 N 
HETATM   17  C   UNK N   1      27.129  20.188   3.681  0.00  0.00     0.201 A 
ATOM     18  HN  UNK N   1      29.195  19.636   3.818  1.00  0.00     0.167 HD
HETATM   19  C   UNK N   1      24.590  19.718   3.784  0.00  0.00     0.167 C 
ENDBRANCH  10  11
ENDBRANCH   6  10
BRANCH   5  20
HETATM   20  C   UNK N   1      20.627  19.510   2.772  0.00  0.00     0.222 C 
HETATM   21  O   UNK N   1      21.479  20.046   2.082  0.00  0.00    -0.643 OA
HETATM   22  O   UNK N   1      19.729  20.277   3.418  0.00  0.00    -0.643 OA
ENDBRANCH   5  20
BRANCH   3  23
HETATM   23  C   UNK N   1      19.034  14.822   0.107  0.00  0.00     0.128 C 
HETATM   24  C   UNK N   1      18.616  13.646   0.970  0.00  0.00     0.040 C 
BRANCH  23  25
HETATM   25  O   UNK N   1      17.936  15.665  -0.069  0.00  0.00    -0.395 OA
HETATM   26  H   UNK N   1      17.114  15.320  -0.449  0.00  0.00     0.210 HD
ENDBRANCH  23  25
ENDBRANCH   3  23
TORSDOF 5
ENDMDL
MODEL 5
REMARK VINA RESULT:      -6.3      2.492      7.010
REMARK  5 active torsions:
REMARK  status: ('A' for Active; 'I' for Inactive)
REMARK    1  A    between atoms: C_10  and  C_8 
REMARK    2  A    between atoms: C_8  and  O_21 
REMARK    3  A    between atoms: S_25  and  C_9 
REMARK    4  A    between atoms: C_15  and  C_12 
REMARK    5  A    between atoms: S_25  and  C_13 
ROOT
HETATM    1  C   UNK N   1      23.795  15.427   5.851  0.00  0.00     0.017 C 
HETATM    2  C   UNK N   1      22.500  15.430   5.056  0.00  0.00     0.043 C 
HETATM    3  C   UNK N   1      22.683  18.231   5.168  0.00  0.00     0.120 A 
HETATM    4  C   UNK N   1      22.108  16.856   4.538  0.00  0.00     0.095 A 
HETATM    5  C   UNK N   1      20.474  16.029   6.055  0.00  0.00     0.108 C 
HETATM    6  C   UNK N   1      21.324  15.009   5.929  0.00  0.00     0.013 C 
HETATM    7  C   UNK N   1      21.340  18.247   5.814  0.00  0.00     0.213 A 
HETATM    8  N   UNK N   1      20.928  17.112   5.297  0.00  0.00    -0.206 NA
HETATM    9  O   UNK N   1      21.065  18.638   6.939  0.00  0.00    -0.279 OA
ENDROOT
BRANCH   6  10
HETATM   10  S   UNK N   1      21.116  13.413   6.785  0.00  0.00    -0.123 SA
BRANCH  10  11
HETATM   11  C   UNK N   1      21.882  13.613   8.444  0.00  0.00     0.092 C 
HETATM   12  C   UNK N   1      23.363  13.180   8.546  0.00  0.00     0.167 C 
HETATM   13  N   UNK N   1      23.414  12.753   9.917  0.00  0.00    -0.283 N 
HETATM   14  C   UNK N   1      24.362  12.312  10.752  0.00  0.00     0.201 A 
HETATM   15  N   UNK N   1      22.279  12.758  10.537  0.00  0.00    -0.283 N 
HETATM   16  N   UNK N   1      23.795  12.025  11.954  0.00  0.00    -0.346 N 
HETATM   17  C   UNK N   1      22.476  12.313  11.787  0.00  0.00     0.201 A 
ATOM     18  HN  UNK N   1      24.255  11.673  12.793  1.00  0.00     0.167 HD
HETATM   19  C   UNK N   1      21.154  13.209   9.754  0.00  0.00     0.167 C 
ENDBRANCH  10  11
ENDBRANCH   6  10
BRANCH   5  20
HETATM   20  C   UNK N   1      19.244  16.084   6.895  0.00  0.00     0.222 C 
HETATM   21  O   UNK N   1      19.344  16.140   8.110  0.00  0.00    -0.643 OA
HETATM   22  O   UNK N   1      18.018  16.064   6.338  0.00  0.00    -0.643 OA
ENDBRANCH   5  20
BRANCH   3  23
HETATM   23  C   UNK N   1      22.910  19.312   4.109  0.00  0.00     0.128 C 
HETATM   24  C   UNK N   1      24.321  19.228   3.558  0.00  0.00     0.040 C 
BRANCH  23  25
HETATM   25  O   UNK N   1      22.006  19.121   3.064  0.00  0.00    -0.395 OA
HETATM   26  H   UNK N   1      21.503  18.295   3.000  0.00  0.00     0.210 HD
ENDBRANCH  23  25
ENDBRANCH   3  23
TORSDOF 5
ENDMDL
MODEL 6
REMARK VINA RESULT:      -6.3      6.703      9.377
REMARK  5 active torsions:
REMARK  status: ('A' for Active; 'I' for Inactive)
REMARK    1  A    between atoms: C_10  and  C_8 
REMARK    2  A    between atoms: C_8  and  O_21 
REMARK    3  A    between atoms: S_25  and  C_9 
REMARK    4  A    between atoms: C_15  and  C_12 
REMARK    5  A    between atoms: S_25  and  C_13 
ROOT
HETATM    1  C   UNK N   1      26.845  20.844   6.689  0.00  0.00     0.017 C 
HETATM    2  C   UNK N   1      27.657  19.894   5.825  0.00  0.00     0.043 C 
HETATM    3  C   UNK N   1      25.333  19.662   4.265  0.00  0.00     0.120 A 
HETATM    4  C   UNK N   1      26.928  19.511   4.493  0.00  0.00     0.095 A 
HETATM    5  C   UNK N   1      27.254  17.592   5.860  0.00  0.00     0.108 C 
HETATM    6  C   UNK N   1      27.872  18.562   6.534  0.00  0.00     0.013 C 
HETATM    7  C   UNK N   1      25.375  18.192   4.504  0.00  0.00     0.213 A 
HETATM    8  N   UNK N   1      26.670  18.124   4.706  0.00  0.00    -0.206 NA
HETATM    9  O   UNK N   1      24.545  17.513   5.091  0.00  0.00    -0.279 OA
ENDROOT
BRANCH   6  10
HETATM   10  S   UNK N   1      28.734  18.296   8.119  0.00  0.00    -0.123 SA
BRANCH  10  11
HETATM   11  C   UNK N   1      30.290  17.403   7.718  0.00  0.00     0.092 C 
HETATM   12  C   UNK N   1      31.526  17.825   8.546  0.00  0.00     0.167 C 
HETATM   13  N   UNK N   1      32.572  17.580   7.591  0.00  0.00    -0.283 N 
HETATM   14  C   UNK N   1      33.909  17.644   7.592  0.00  0.00     0.201 A 
HETATM   15  N   UNK N   1      32.170  17.229   6.413  0.00  0.00    -0.283 N 
HETATM   16  N   UNK N   1      34.368  17.318   6.355  0.00  0.00    -0.346 N 
HETATM   17  C   UNK N   1      33.246  17.065   5.629  0.00  0.00     0.201 A 
ATOM     18  HN  UNK N   1      35.338  17.273   6.040  1.00  0.00     0.167 HD
HETATM   19  C   UNK N   1      30.740  17.123   6.259  0.00  0.00     0.167 C 
ENDBRANCH  10  11
ENDBRANCH   6  10
BRANCH   5  20
HETATM   20  C   UNK N   1      27.127  16.159   6.247  0.00  0.00     0.222 C 
HETATM   21  O   UNK N   1      27.738  15.307   5.622  0.00  0.00    -0.643 OA
HETATM   22  O   UNK N   1      26.339  15.781   7.272  0.00  0.00    -0.643 OA
ENDBRANCH   5  20
BRANCH   3  23
HETATM   23  C   UNK N   1      24.981  20.080   2.836  0.00  0.00     0.128 C 
HETATM   24  C   UNK N   1      23.589  20.680   2.786  0.00  0.00     0.040 C 
BRANCH  23  25
HETATM   25  O   UNK N   1      25.900  21.036   2.403  0.00  0.00    -0.395 OA
HETATM   26  H   UNK N   1      26.122  21.790   2.970  0.00  0.00     0.210 HD
ENDBRANCH  23  25
ENDBRANCH   3  23
TORSDOF 5
ENDMDL
MODEL 7
REMARK VINA RESULT:      -6.2      1.478      2.173
REMARK  5 active torsions:
REMARK  status: ('A' for Active; 'I' for Inactive)
REMARK    1  A    between atoms: C_10  and  C_8 
REMARK    2  A    between atoms: C_8  and  O_21 
REMARK    3  A    between atoms: S_25  and  C_9 
REMARK    4  A    between atoms: C_15  and  C_12 
REMARK    5  A    between atoms: S_25  and  C_13 
ROOT
HETATM    1  C   UNK N   1      21.530  12.481   6.525  0.00  0.00     0.017 C 
HETATM    2  C   UNK N   1      22.154  13.745   7.091  0.00  0.00     0.043 C 
HETATM    3  C   UNK N   1      21.252  12.823   9.585  0.00  0.00     0.120 A 
HETATM    4  C   UNK N   1      22.193  13.756   8.657  0.00  0.00     0.095 A 
HETATM    5  C   UNK N   1      20.824  15.518   7.832  0.00  0.00     0.108 C 
HETATM    6  C   UNK N   1      21.327  14.972   6.725  0.00  0.00     0.013 C 
HETATM    7  C   UNK N   1      20.496  14.099   9.732  0.00  0.00     0.213 A 
HETATM    8  N   UNK N   1      21.275  14.809   8.949  0.00  0.00    -0.206 NA
HETATM    9  O   UNK N   1      19.284  14.237   9.814  0.00  0.00    -0.279 OA
ENDROOT
BRANCH   6  10
HETATM   10  S   UNK N   1      20.955  15.577   5.045  0.00  0.00    -0.123 SA
BRANCH  10  11
HETATM   11  C   UNK N   1      22.448  16.492   4.484  0.00  0.00     0.092 C 
HETATM   12  C   UNK N   1      23.800  15.820   4.821  0.00  0.00     0.167 C 
HETATM   13  N   UNK N   1      24.636  16.981   4.963  0.00  0.00    -0.283 N 
HETATM   14  C   UNK N   1      25.936  17.207   5.186  0.00  0.00     0.201 A 
HETATM   15  N   UNK N   1      24.019  18.115   4.887  0.00  0.00    -0.283 N 
HETATM   16  N   UNK N   1      26.146  18.549   5.253  0.00  0.00    -0.346 N 
HETATM   17  C   UNK N   1      24.915  19.097   5.065  0.00  0.00     0.201 A 
ATOM     18  HN  UNK N   1      27.029  19.036   5.410  1.00  0.00     0.167 HD
HETATM   19  C   UNK N   1      22.599  18.027   4.652  0.00  0.00     0.167 C 
ENDBRANCH  10  11
ENDBRANCH   6  10
BRANCH   5  20
HETATM   20  C   UNK N   1      19.883  16.670   7.928  0.00  0.00     0.222 C 
HETATM   21  O   UNK N   1      18.693  16.498   7.720  0.00  0.00    -0.643 OA
HETATM   22  O   UNK N   1      20.324  17.906   8.230  0.00  0.00    -0.643 OA
ENDBRANCH   5  20
BRANCH   3  23
HETATM   23  C   UNK N   1      21.967  12.341  10.849  0.00  0.00     0.128 C 
HETATM   24  C   UNK N   1      20.960  11.969  11.921  0.00  0.00     0.040 C 
BRANCH  23  25
HETATM   25  O   UNK N   1      22.730  11.215  10.537  0.00  0.00    -0.395 OA
HETATM   26  H   UNK N   1      23.139  11.131   9.663  0.00  0.00     0.210 HD
ENDBRANCH  23  25
ENDBRANCH   3  23
TORSDOF 5
ENDMDL
MODEL 8
REMARK VINA RESULT:      -6.1      9.066     10.692
REMARK  5 active torsions:
REMARK  status: ('A' for Active; 'I' for Inactive)
REMARK    1  A    between atoms: C_10  and  C_8 
REMARK    2  A    between atoms: C_8  and  O_21 
REMARK    3  A    between atoms: S_25  and  C_9 
REMARK    4  A    between atoms: C_15  and  C_12 
REMARK    5  A    between atoms: S_25  and  C_13 
ROOT
HETATM    1  C   UNK N   1      30.697  18.427   8.910  0.00  0.00     0.017 C 
HETATM    2  C   UNK N   1      30.850  17.049   8.287  0.00  0.00     0.043 C 
HETATM    3  C   UNK N   1      33.596  17.358   8.791  0.00  0.00     0.120 A 
HETATM    4  C   UNK N   1      32.291  16.460   8.463  0.00  0.00     0.095 A 
HETATM    5  C   UNK N   1      31.785  16.786   6.161  0.00  0.00     0.108 C 
HETATM    6  C   UNK N   1      30.648  17.109   6.777  0.00  0.00     0.013 C 
HETATM    7  C   UNK N   1      33.839  17.155   7.334  0.00  0.00     0.213 A 
HETATM    8  N   UNK N   1      32.753  16.451   7.113  0.00  0.00    -0.206 NA
HETATM    9  O   UNK N   1      34.320  17.955   6.545  0.00  0.00    -0.279 OA
ENDROOT
BRANCH   6  10
HETATM   10  S   UNK N   1      29.142  17.641   5.898  0.00  0.00    -0.123 SA
BRANCH  10  11
HETATM   11  C   UNK N   1      28.572  16.190   4.924  0.00  0.00     0.092 C 
HETATM   12  C   UNK N   1      28.525  16.400   3.392  0.00  0.00     0.167 C 
HETATM   13  N   UNK N   1      27.441  15.523   3.045  0.00  0.00    -0.283 N 
HETATM   14  C   UNK N   1      26.855  15.120   1.910  0.00  0.00     0.201 A 
HETATM   15  N   UNK N   1      26.831  14.979   4.047  0.00  0.00    -0.283 N 
HETATM   16  N   UNK N   1      25.828  14.284   2.215  0.00  0.00    -0.346 N 
HETATM   17  C   UNK N   1      25.834  14.216   3.575  0.00  0.00     0.201 A 
ATOM     18  HN  UNK N   1      25.195  13.811   1.570  1.00  0.00     0.167 HD
HETATM   19  C   UNK N   1      27.353  15.328   5.346  0.00  0.00     0.167 C 
ENDBRANCH  10  11
ENDBRANCH   6  10
BRANCH   5  20
HETATM   20  C   UNK N   1      32.060  16.808   4.697  0.00  0.00     0.222 C 
HETATM   21  O   UNK N   1      32.208  15.758   4.093  0.00  0.00    -0.643 OA
HETATM   22  O   UNK N   1      32.160  17.970   4.024  0.00  0.00    -0.643 OA
ENDBRANCH   5  20
BRANCH   3  23
HETATM   23  C   UNK N   1      34.580  16.647   9.721  0.00  0.00     0.128 C 
HETATM   24  C   UNK N   1      35.259  15.499   8.998  0.00  0.00     0.040 C 
BRANCH  23  25
HETATM   25  O   UNK N   1      35.552  17.557  10.136  0.00  0.00    -0.395 OA
HETATM   26  H   UNK N   1      36.130  17.345  10.885  0.00  0.00     0.210 HD
ENDBRANCH  23  25
ENDBRANCH   3  23
TORSDOF 5
ENDMDL
MODEL 9
REMARK VINA RESULT:      -6.1      5.597      8.077
REMARK  5 active torsions:
REMARK  status: ('A' for Active; 'I' for Inactive)
REMARK    1  A    between atoms: C_10  and  C_8 
REMARK    2  A    between atoms: C_8  and  O_21 
REMARK    3  A    between atoms: S_25  and  C_9 
REMARK    4  A    between atoms: C_15  and  C_12 
REMARK    5  A    between atoms: S_25  and  C_13 
ROOT
HETATM    1  C   UNK N   1      24.743  16.075   3.414  0.00  0.00     0.017 C 
HETATM    2  C   UNK N   1      25.003  16.933   4.641  0.00  0.00     0.043 C 
HETATM    3  C   UNK N   1      22.671  18.316   3.909  0.00  0.00     0.120 A 
HETATM    4  C   UNK N   1      23.811  17.892   4.976  0.00  0.00     0.095 A 
HETATM    5  C   UNK N   1      25.766  19.133   4.433  0.00  0.00     0.108 C 
HETATM    6  C   UNK N   1      26.186  17.867   4.411  0.00  0.00     0.013 C 
HETATM    7  C   UNK N   1      23.482  19.566   3.862  0.00  0.00     0.213 A 
HETATM    8  N   UNK N   1      24.397  19.166   4.715  0.00  0.00    -0.206 NA
HETATM    9  O   UNK N   1      23.703  20.269   2.886  0.00  0.00    -0.279 OA
ENDROOT
BRANCH   6  10
HETATM   10  S   UNK N   1      27.905  17.383   4.045  0.00  0.00    -0.123 SA
BRANCH  10  11
HETATM   11  C   UNK N   1      28.904  17.882   5.505  0.00  0.00     0.092 C 
HETATM   12  C   UNK N   1      30.262  17.156   5.656  0.00  0.00     0.167 C 
HETATM   13  N   UNK N   1      30.400  17.162   7.087  0.00  0.00    -0.283 N 
HETATM   14  C   UNK N   1      31.335  16.777   7.964  0.00  0.00     0.201 A 
HETATM   15  N   UNK N   1      29.381  17.625   7.735  0.00  0.00    -0.283 N 
HETATM   16  N   UNK N   1      30.881  17.009   9.224  0.00  0.00    -0.346 N 
HETATM   17  C   UNK N   1      29.641  17.541   9.049  0.00  0.00     0.201 A 
ATOM     18  HN  UNK N   1      31.362  16.825  10.104  1.00  0.00     0.167 HD
HETATM   19  C   UNK N   1      28.285  18.076   6.915  0.00  0.00     0.167 C 
ENDBRANCH  10  11
ENDBRANCH   6  10
BRANCH   5  20
HETATM   20  C   UNK N   1      26.568  20.358   4.159  0.00  0.00     0.222 C 
HETATM   21  O   UNK N   1      26.792  20.689   3.006  0.00  0.00    -0.643 OA
HETATM   22  O   UNK N   1      27.063  21.107   5.164  0.00  0.00    -0.643 OA
ENDBRANCH   5  20
BRANCH   3  23
HETATM   23  C   UNK N   1      21.290  18.460   4.552  0.00  0.00     0.128 C 
HETATM   24  C   UNK N   1      21.349  18.101   6.024  0.00  0.00     0.040 C 
BRANCH  23  25
HETATM   25  O   UNK N   1      20.867  19.784   4.427  0.00  0.00    -0.395 OA
HETATM   26  H   UNK N   1      20.918  20.385   5.186  0.00  0.00     0.210 HD
ENDBRANCH  23  25
ENDBRANCH   3  23
TORSDOF 5
ENDMDL
