MODEL 1
REMARK VINA RESULT:      -6.0      0.000      0.000
REMARK  9 active torsions:
REMARK  status: ('A' for Active; 'I' for Inactive)
REMARK    1  A    between atoms: N_18  and  C_5 
REMARK    2  A    between atoms: N_18  and  C_6 
REMARK    3  A    between atoms: C_10  and  C_9 
REMARK    4  A    between atoms: N_16  and  C_9 
REMARK    5  A    between atoms: N_18  and  C_10 
REMARK    6  A    between atoms: S_23  and  C_12 
REMARK    7  A    between atoms: C_15  and  C_13 
REMARK    8  A    between atoms: O_22  and  C_14 
REMARK    9  A    between atoms: O_19  and  C_15 
ROOT
HETATM    1  C   UNK N   1      30.816  17.038   6.624  0.00  0.00     0.026 A 
HETATM    2  C   UNK N   1      32.011  16.692   5.993  0.00  0.00     0.039 A 
HETATM    3  C   UNK N   1      32.064  18.005   8.443  0.00  0.00     0.042 A 
HETATM    4  C   UNK N   1      30.845  17.702   7.849  0.00  0.00     0.059 A 
HETATM    5  C   UNK N   1      33.278  17.639   7.853  0.00  0.00     0.049 A 
HETATM    6  C   UNK N   1      33.255  16.980   6.592  0.00  0.00     0.082 A 
ENDROOT
BRANCH   5   7
HETATM    7  C   UNK N   1      34.511  18.008   8.615  0.00  0.00     0.149 C 
HETATM    8  N   UNK N   1      35.065  17.273   9.519  0.00  0.00    -0.369 N 
ATOM      9  HN  UNK N   1      35.925  17.632   9.936  1.00  0.00     0.161 HD
BRANCH   8  10
HETATM   10  C   UNK N   1      34.599  15.998  10.003  0.00  0.00     0.152 C 
BRANCH  10  11
HETATM   11  C   UNK N   1      35.606  14.879   9.675  0.00  0.00     0.292 C 
BRANCH  11  12
HETATM   12  N   UNK N   1      36.712  14.721  10.635  0.00  0.00     0.089 N 
BRANCH  12  13
HETATM   13  C   UNK N   1      36.373  13.756  11.680  0.00  0.00     0.268 C 
HETATM   14  C   UNK N   1      36.167  14.476  12.997  0.00  0.00     0.037 C 
ENDBRANCH  12  13
BRANCH  12  15
HETATM   15  C   UNK N   1      37.913  14.296   9.918  0.00  0.00     0.268 C 
HETATM   16  C   UNK N   1      38.439  12.974  10.452  0.00  0.00     0.037 C 
ENDBRANCH  12  15
ENDBRANCH  11  12
ENDBRANCH  10  11
ENDBRANCH   8  10
BRANCH   7  17
HETATM   17  O   UNK N   1      35.026  19.238   8.410  0.00  0.00    -0.346 OA
HETATM   18  H   UNK N   1      35.913  19.530   8.475  0.00  0.00     0.219 HD
ENDBRANCH   7  17
ENDBRANCH   5   7
BRANCH   6  19
HETATM   19  O   UNK N   1      34.406  16.682   5.942  0.00  0.00    -0.355 OA
HETATM   20  C   UNK N   1      34.968  15.425   5.921  0.00  0.00     0.210 C 
ENDBRANCH   6  19
BRANCH   4  21
HETATM   21  S   UNK N   1      29.334  18.102   8.716  0.00  0.00     0.171 S 
HETATM   22  C   UNK N   1      27.985  16.956   9.107  0.00  0.00     0.167 C 
HETATM   23  O   UNK N   1      28.709  19.276   7.948  0.00  0.00    -0.223 OA
HETATM   24  O   UNK N   1      29.708  18.849  10.006  0.00  0.00    -0.223 OA
ENDBRANCH   4  21
TORSDOF 9
ENDMDL
MODEL 2
REMARK VINA RESULT:      -5.6      3.322      5.308
REMARK  9 active torsions:
REMARK  status: ('A' for Active; 'I' for Inactive)
REMARK    1  A    between atoms: N_18  and  C_5 
REMARK    2  A    between atoms: N_18  and  C_6 
REMARK    3  A    between atoms: C_10  and  C_9 
REMARK    4  A    between atoms: N_16  and  C_9 
REMARK    5  A    between atoms: N_18  and  C_10 
REMARK    6  A    between atoms: S_23  and  C_12 
REMARK    7  A    between atoms: C_15  and  C_13 
REMARK    8  A    between atoms: O_22  and  C_14 
REMARK    9  A    between atoms: O_19  and  C_15 
ROOT
HETATM    1  C   UNK N   1      33.668  14.728   8.254  0.00  0.00     0.026 A 
HETATM    2  C   UNK N   1      33.964  13.424   8.651  0.00  0.00     0.039 A 
HETATM    3  C   UNK N   1      35.617  15.520   9.428  0.00  0.00     0.042 A 
HETATM    4  C   UNK N   1      34.502  15.777   8.638  0.00  0.00     0.059 A 
HETATM    5  C   UNK N   1      35.918  14.229   9.873  0.00  0.00     0.049 A 
HETATM    6  C   UNK N   1      35.083  13.151   9.464  0.00  0.00     0.082 A 
ENDROOT
BRANCH   5   7
HETATM    7  C   UNK N   1      37.135  14.103  10.734  0.00  0.00     0.149 C 
HETATM    8  N   UNK N   1      37.118  13.838  11.996  0.00  0.00    -0.369 N 
ATOM      9  HN  UNK N   1      38.024  13.746  12.456  1.00  0.00     0.161 HD
BRANCH   8  10
HETATM   10  C   UNK N   1      35.953  13.656  12.827  0.00  0.00     0.152 C 
BRANCH  10  11
HETATM   11  C   UNK N   1      36.196  12.567  13.889  0.00  0.00     0.292 C 
BRANCH  11  12
HETATM   12  N   UNK N   1      35.254  12.564  15.020  0.00  0.00     0.089 N 
BRANCH  12  13
HETATM   13  C   UNK N   1      34.856  11.203  15.376  0.00  0.00     0.268 C 
HETATM   14  C   UNK N   1      33.607  10.817  14.612  0.00  0.00     0.037 C 
ENDBRANCH  12  13
BRANCH  12  15
HETATM   15  C   UNK N   1      35.875  13.229  16.164  0.00  0.00     0.268 C 
HETATM   16  C   UNK N   1      34.968  13.203  17.383  0.00  0.00     0.037 C 
ENDBRANCH  12  15
ENDBRANCH  11  12
ENDBRANCH  10  11
ENDBRANCH   8  10
BRANCH   7  17
HETATM   17  O   UNK N   1      38.329  14.382  10.172  0.00  0.00    -0.346 OA
HETATM   18  H   UNK N   1      39.028  13.804   9.943  0.00  0.00     0.219 HD
ENDBRANCH   7  17
ENDBRANCH   5   7
BRANCH   6  19
HETATM   19  O   UNK N   1      35.384  11.873   9.799  0.00  0.00    -0.355 OA
HETATM   20  C   UNK N   1      34.530  11.045  10.495  0.00  0.00     0.210 C 
ENDBRANCH   6  19
BRANCH   4  21
HETATM   21  S   UNK N   1      34.118  17.466   8.202  0.00  0.00     0.171 S 
HETATM   22  C   UNK N   1      32.484  18.250   8.279  0.00  0.00     0.167 C 
HETATM   23  O   UNK N   1      34.632  17.656   6.768  0.00  0.00    -0.223 OA
HETATM   24  O   UNK N   1      35.117  18.384   8.923  0.00  0.00    -0.223 OA
ENDBRANCH   4  21
TORSDOF 9
ENDMDL
MODEL 3
REMARK VINA RESULT:      -5.6      3.995      7.280
REMARK  9 active torsions:
REMARK  status: ('A' for Active; 'I' for Inactive)
REMARK    1  A    between atoms: N_18  and  C_5 
REMARK    2  A    between atoms: N_18  and  C_6 
REMARK    3  A    between atoms: C_10  and  C_9 
REMARK    4  A    between atoms: N_16  and  C_9 
REMARK    5  A    between atoms: N_18  and  C_10 
REMARK    6  A    between atoms: S_23  and  C_12 
REMARK    7  A    between atoms: C_15  and  C_13 
REMARK    8  A    between atoms: O_22  and  C_14 
REMARK    9  A    between atoms: O_19  and  C_15 
ROOT
HETATM    1  C   UNK N   1      37.045  12.889  12.003  0.00  0.00     0.026 A 
HETATM    2  C   UNK N   1      37.011  13.003  10.613  0.00  0.00     0.039 A 
HETATM    3  C   UNK N   1      35.747  14.909  12.194  0.00  0.00     0.042 A 
HETATM    4  C   UNK N   1      36.405  13.842  12.794  0.00  0.00     0.059 A 
HETATM    5  C   UNK N   1      35.727  15.071  10.804  0.00  0.00     0.049 A 
HETATM    6  C   UNK N   1      36.359  14.089   9.991  0.00  0.00     0.082 A 
ENDROOT
BRANCH   5   7
HETATM    7  C   UNK N   1      35.002  16.278  10.299  0.00  0.00     0.149 C 
HETATM    8  N   UNK N   1      33.834  16.259   9.753  0.00  0.00    -0.369 N 
ATOM      9  HN  UNK N   1      33.440  17.161   9.485  1.00  0.00     0.161 HD
BRANCH   8  10
HETATM   10  C   UNK N   1      33.024  15.097   9.483  0.00  0.00     0.152 C 
BRANCH  10  11
HETATM   11  C   UNK N   1      31.837  15.452   8.566  0.00  0.00     0.292 C 
BRANCH  11  12
HETATM   12  N   UNK N   1      31.838  16.824   8.031  0.00  0.00     0.089 N 
BRANCH  12  13
HETATM   13  C   UNK N   1      32.244  16.846   6.627  0.00  0.00     0.268 C 
HETATM   14  C   UNK N   1      33.519  17.648   6.474  0.00  0.00     0.037 C 
ENDBRANCH  12  13
BRANCH  12  15
HETATM   15  C   UNK N   1      30.503  17.400   8.186  0.00  0.00     0.268 C 
HETATM   16  C   UNK N   1      30.538  18.669   9.020  0.00  0.00     0.037 C 
ENDBRANCH  12  15
ENDBRANCH  11  12
ENDBRANCH  10  11
ENDBRANCH   8  10
BRANCH   7  17
HETATM   17  O   UNK N   1      35.657  17.457  10.329  0.00  0.00    -0.346 OA
HETATM   18  H   UNK N   1      35.921  18.009   9.621  0.00  0.00     0.219 HD
ENDBRANCH   7  17
ENDBRANCH   5   7
BRANCH   6  19
HETATM   19  O   UNK N   1      36.293  14.158   8.640  0.00  0.00    -0.355 OA
HETATM   20  C   UNK N   1      37.352  13.871   7.808  0.00  0.00     0.210 C 
ENDBRANCH   6  19
BRANCH   4  21
HETATM   21  S   UNK N   1      36.485  13.763  14.577  0.00  0.00     0.171 S 
HETATM   22  C   UNK N   1      37.203  15.013  15.676  0.00  0.00     0.167 C 
HETATM   23  O   UNK N   1      37.179  12.433  14.906  0.00  0.00    -0.223 OA
HETATM   24  O   UNK N   1      35.082  13.421  15.102  0.00  0.00    -0.223 OA
ENDBRANCH   4  21
TORSDOF 9
ENDMDL
MODEL 4
REMARK VINA RESULT:      -5.5     15.157     17.624
REMARK  9 active torsions:
REMARK  status: ('A' for Active; 'I' for Inactive)
REMARK    1  A    between atoms: N_18  and  C_5 
REMARK    2  A    between atoms: N_18  and  C_6 
REMARK    3  A    between atoms: C_10  and  C_9 
REMARK    4  A    between atoms: N_16  and  C_9 
REMARK    5  A    between atoms: N_18  and  C_10 
REMARK    6  A    between atoms: S_23  and  C_12 
REMARK    7  A    between atoms: C_15  and  C_13 
REMARK    8  A    between atoms: O_22  and  C_14 
REMARK    9  A    between atoms: O_19  and  C_15 
ROOT
HETATM    1  C   UNK N   1      25.663  26.088  -7.442  0.00  0.00     0.026 A 
HETATM    2  C   UNK N   1      25.962  26.970  -6.403  0.00  0.00     0.039 A 
HETATM    3  C   UNK N   1      26.346  24.238  -6.058  0.00  0.00     0.042 A 
HETATM    4  C   UNK N   1      25.850  24.718  -7.265  0.00  0.00     0.059 A 
HETATM    5  C   UNK N   1      26.690  25.101  -5.012  0.00  0.00     0.049 A 
HETATM    6  C   UNK N   1      26.480  26.498  -5.179  0.00  0.00     0.082 A 
ENDROOT
BRANCH   5   7
HETATM    7  C   UNK N   1      27.233  24.448  -3.781  0.00  0.00     0.149 C 
HETATM    8  N   UNK N   1      28.487  24.311  -3.513  0.00  0.00    -0.369 N 
ATOM      9  HN  UNK N   1      28.719  23.877  -2.619  1.00  0.00     0.161 HD
BRANCH   8  10
HETATM   10  C   UNK N   1      29.597  24.708  -4.343  0.00  0.00     0.152 C 
BRANCH  10  11
HETATM   11  C   UNK N   1      30.461  23.492  -4.729  0.00  0.00     0.292 C 
BRANCH  11  12
HETATM   12  N   UNK N   1      31.610  23.225  -3.846  0.00  0.00     0.089 N 
BRANCH  12  13
HETATM   13  C   UNK N   1      31.352  22.082  -2.972  0.00  0.00     0.268 C 
HETATM   14  C   UNK N   1      30.556  21.033  -3.721  0.00  0.00     0.037 C 
ENDBRANCH  12  13
BRANCH  12  15
HETATM   15  C   UNK N   1      32.798  22.985  -4.663  0.00  0.00     0.268 C 
HETATM   16  C   UNK N   1      33.296  24.268  -5.309  0.00  0.00     0.037 C 
ENDBRANCH  12  15
ENDBRANCH  11  12
ENDBRANCH  10  11
ENDBRANCH   8  10
BRANCH   7  17
HETATM   17  O   UNK N   1      26.350  23.877  -2.936  0.00  0.00    -0.346 OA
HETATM   18  H   UNK N   1      26.425  23.714  -2.017  0.00  0.00     0.219 HD
ENDBRANCH   7  17
ENDBRANCH   5   7
BRANCH   6  19
HETATM   19  O   UNK N   1      26.717  27.363  -4.164  0.00  0.00    -0.355 OA
HETATM   20  C   UNK N   1      25.877  28.404  -3.835  0.00  0.00     0.210 C 
ENDBRANCH   6  19
BRANCH   4  21
HETATM   21  S   UNK N   1      25.539  23.566  -8.595  0.00  0.00     0.171 S 
HETATM   22  C   UNK N   1      26.761  22.485  -9.386  0.00  0.00     0.167 C 
HETATM   23  O   UNK N   1      24.884  24.387  -9.715  0.00  0.00    -0.223 OA
HETATM   24  O   UNK N   1      24.327  22.706  -8.207  0.00  0.00    -0.223 OA
ENDBRANCH   4  21
TORSDOF 9
ENDMDL
MODEL 5
REMARK VINA RESULT:      -5.4     15.734     18.563
REMARK  9 active torsions:
REMARK  status: ('A' for Active; 'I' for Inactive)
REMARK    1  A    between atoms: N_18  and  C_5 
REMARK    2  A    between atoms: N_18  and  C_6 
REMARK    3  A    between atoms: C_10  and  C_9 
REMARK    4  A    between atoms: N_16  and  C_9 
REMARK    5  A    between atoms: N_18  and  C_10 
REMARK    6  A    between atoms: S_23  and  C_12 
REMARK    7  A    between atoms: C_15  and  C_13 
REMARK    8  A    between atoms: O_22  and  C_14 
REMARK    9  A    between atoms: O_19  and  C_15 
ROOT
HETATM    1  C   UNK N   1      27.997  22.642  -7.188  0.00  0.00     0.026 A 
HETATM    2  C   UNK N   1      28.975  23.152  -6.333  0.00  0.00     0.039 A 
HETATM    3  C   UNK N   1      26.283  23.552  -5.761  0.00  0.00     0.042 A 
HETATM    4  C   UNK N   1      26.649  22.850  -6.903  0.00  0.00     0.059 A 
HETATM    5  C   UNK N   1      27.239  24.044  -4.866  0.00  0.00     0.049 A 
HETATM    6  C   UNK N   1      28.618  23.855  -5.163  0.00  0.00     0.082 A 
ENDROOT
BRANCH   5   7
HETATM    7  C   UNK N   1      26.702  24.760  -3.667  0.00  0.00     0.149 C 
HETATM    8  N   UNK N   1      26.314  25.990  -3.658  0.00  0.00    -0.369 N 
ATOM      9  HN  UNK N   1      25.935  26.342  -2.778  1.00  0.00     0.161 HD
BRANCH   8  10
HETATM   10  C   UNK N   1      26.357  26.919  -4.759  0.00  0.00     0.152 C 
BRANCH  10  11
HETATM   11  C   UNK N   1      25.805  28.296  -4.343  0.00  0.00     0.292 C 
BRANCH  11  12
HETATM   12  N   UNK N   1      26.764  29.412  -4.420  0.00  0.00     0.089 N 
BRANCH  12  13
HETATM   13  C   UNK N   1      27.024  29.980  -3.098  0.00  0.00     0.268 C 
HETATM   14  C   UNK N   1      28.295  29.388  -2.526  0.00  0.00     0.037 C 
ENDBRANCH  12  13
BRANCH  12  15
HETATM   15  C   UNK N   1      28.007  28.935  -5.023  0.00  0.00     0.268 C 
HETATM   16  C   UNK N   1      28.396  29.773  -6.230  0.00  0.00     0.037 C 
ENDBRANCH  12  15
ENDBRANCH  11  12
ENDBRANCH  10  11
ENDBRANCH   8  10
BRANCH   7  17
HETATM   17  O   UNK N   1      26.715  24.101  -2.490  0.00  0.00    -0.346 OA
HETATM   18  H   UNK N   1      26.062  24.069  -1.819  0.00  0.00     0.219 HD
ENDBRANCH   7  17
ENDBRANCH   5   7
BRANCH   6  19
HETATM   19  O   UNK N   1      29.579  24.386  -4.371  0.00  0.00    -0.355 OA
HETATM   20  C   UNK N   1      30.249  23.674  -3.401  0.00  0.00     0.210 C 
ENDBRANCH   6  19
BRANCH   4  21
HETATM   21  S   UNK N   1      25.370  22.155  -7.940  0.00  0.00     0.171 S 
HETATM   22  C   UNK N   1      25.614  21.005  -9.321  0.00  0.00     0.167 C 
HETATM   23  O   UNK N   1      24.584  23.352  -8.495  0.00  0.00    -0.223 OA
HETATM   24  O   UNK N   1      24.280  21.573  -7.027  0.00  0.00    -0.223 OA
ENDBRANCH   4  21
TORSDOF 9
ENDMDL
MODEL 6
REMARK VINA RESULT:      -5.4     12.560     14.634
REMARK  9 active torsions:
REMARK  status: ('A' for Active; 'I' for Inactive)
REMARK    1  A    between atoms: N_18  and  C_5 
REMARK    2  A    between atoms: N_18  and  C_6 
REMARK    3  A    between atoms: C_10  and  C_9 
REMARK    4  A    between atoms: N_16  and  C_9 
REMARK    5  A    between atoms: N_18  and  C_10 
REMARK    6  A    between atoms: S_23  and  C_12 
REMARK    7  A    between atoms: C_15  and  C_13 
REMARK    8  A    between atoms: O_22  and  C_14 
REMARK    9  A    between atoms: O_19  and  C_15 
ROOT
HETATM    1  C   UNK N   1      21.441  15.955   7.256  0.00  0.00     0.026 A 
HETATM    2  C   UNK N   1      22.262  15.543   6.206  0.00  0.00     0.039 A 
HETATM    3  C   UNK N   1      19.525  15.822   5.802  0.00  0.00     0.042 A 
HETATM    4  C   UNK N   1      20.068  16.088   7.053  0.00  0.00     0.059 A 
HETATM    5  C   UNK N   1      20.327  15.443   4.720  0.00  0.00     0.049 A 
HETATM    6  C   UNK N   1      21.726  15.284   4.927  0.00  0.00     0.082 A 
ENDROOT
BRANCH   5   7
HETATM    7  C   UNK N   1      19.611  15.212   3.427  0.00  0.00     0.149 C 
HETATM    8  N   UNK N   1      19.719  15.960   2.383  0.00  0.00    -0.369 N 
ATOM      9  HN  UNK N   1      19.201  15.666   1.554  1.00  0.00     0.161 HD
BRANCH   8  10
HETATM   10  C   UNK N   1      20.497  17.169   2.261  0.00  0.00     0.152 C 
BRANCH  10  11
HETATM   11  C   UNK N   1      19.714  18.386   2.789  0.00  0.00     0.292 C 
BRANCH  11  12
HETATM   12  N   UNK N   1      20.527  19.431   3.433  0.00  0.00     0.089 N 
BRANCH  12  13
HETATM   13  C   UNK N   1      21.290  18.892   4.558  0.00  0.00     0.268 C 
HETATM   14  C   UNK N   1      22.764  18.861   4.212  0.00  0.00     0.037 C 
ENDBRANCH  12  13
BRANCH  12  15
HETATM   15  C   UNK N   1      21.428  20.017   2.441  0.00  0.00     0.268 C 
HETATM   16  C   UNK N   1      20.664  20.833   1.411  0.00  0.00     0.037 C 
ENDBRANCH  12  15
ENDBRANCH  11  12
ENDBRANCH  10  11
ENDBRANCH   8  10
BRANCH   7  17
HETATM   17  O   UNK N   1      18.715  14.204   3.382  0.00  0.00    -0.346 OA
HETATM   18  H   UNK N   1      18.733  13.415   2.878  0.00  0.00     0.219 HD
ENDBRANCH   7  17
ENDBRANCH   5   7
BRANCH   6  19
HETATM   19  O   UNK N   1      22.529  14.836   3.933  0.00  0.00    -0.355 OA
HETATM   20  C   UNK N   1      23.401  13.778   4.073  0.00  0.00     0.210 C 
ENDBRANCH   6  19
BRANCH   4  21
HETATM   21  S   UNK N   1      18.997  16.677   8.357  0.00  0.00     0.171 S 
HETATM   22  C   UNK N   1      19.210  18.201   9.316  0.00  0.00     0.167 C 
HETATM   23  O   UNK N   1      18.899  15.526   9.370  0.00  0.00    -0.223 OA
HETATM   24  O   UNK N   1      17.551  16.643   7.837  0.00  0.00    -0.223 OA
ENDBRANCH   4  21
TORSDOF 9
ENDMDL
MODEL 7
REMARK VINA RESULT:      -5.3     13.076     14.837
REMARK  9 active torsions:
REMARK  status: ('A' for Active; 'I' for Inactive)
REMARK    1  A    between atoms: N_18  and  C_5 
REMARK    2  A    between atoms: N_18  and  C_6 
REMARK    3  A    between atoms: C_10  and  C_9 
REMARK    4  A    between atoms: N_16  and  C_9 
REMARK    5  A    between atoms: N_18  and  C_10 
REMARK    6  A    between atoms: S_23  and  C_12 
REMARK    7  A    between atoms: C_15  and  C_13 
REMARK    8  A    between atoms: O_22  and  C_14 
REMARK    9  A    between atoms: O_19  and  C_15 
ROOT
HETATM    1  C   UNK N   1      21.875  17.528   5.778  0.00  0.00     0.026 A 
HETATM    2  C   UNK N   1      22.228  18.482   4.822  0.00  0.00     0.039 A 
HETATM    3  C   UNK N   1      19.930  16.955   4.477  0.00  0.00     0.042 A 
HETATM    4  C   UNK N   1      20.727  16.759   5.600  0.00  0.00     0.059 A 
HETATM    5  C   UNK N   1      20.238  17.928   3.521  0.00  0.00     0.049 A 
HETATM    6  C   UNK N   1      21.422  18.701   3.686  0.00  0.00     0.082 A 
ENDROOT
BRANCH   5   7
HETATM    7  C   UNK N   1      19.280  18.045   2.378  0.00  0.00     0.149 C 
HETATM    8  N   UNK N   1      19.382  17.403   1.265  0.00  0.00    -0.369 N 
ATOM      9  HN  UNK N   1      18.638  17.550   0.582  1.00  0.00     0.161 HD
BRANCH   8  10
HETATM   10  C   UNK N   1      20.437  16.497   0.881  0.00  0.00     0.152 C 
BRANCH  10  11
HETATM   11  C   UNK N   1      19.942  15.038   0.885  0.00  0.00     0.292 C 
BRANCH  11  12
HETATM   12  N   UNK N   1      20.935  14.034   1.305  0.00  0.00     0.089 N 
BRANCH  12  13
HETATM   13  C   UNK N   1      20.999  13.928   2.762  0.00  0.00     0.268 C 
HETATM   14  C   UNK N   1      22.365  14.364   3.249  0.00  0.00     0.037 C 
ENDBRANCH  12  13
BRANCH  12  15
HETATM   15  C   UNK N   1      20.590  12.742   0.714  0.00  0.00     0.268 C 
HETATM   16  C   UNK N   1      19.123  12.686   0.320  0.00  0.00     0.037 C 
ENDBRANCH  12  15
ENDBRANCH  11  12
ENDBRANCH  10  11
ENDBRANCH   8  10
BRANCH   7  17
HETATM   17  O   UNK N   1      18.292  18.958   2.483  0.00  0.00    -0.346 OA
HETATM   18  H   UNK N   1      17.864  19.450   1.811  0.00  0.00     0.219 HD
ENDBRANCH   7  17
ENDBRANCH   5   7
BRANCH   6  19
HETATM   19  O   UNK N   1      21.805  19.595   2.744  0.00  0.00    -0.355 OA
HETATM   20  C   UNK N   1      22.916  20.401   2.863  0.00  0.00     0.210 C 
ENDBRANCH   6  19
BRANCH   4  21
HETATM   21  S   UNK N   1      20.210  15.576   6.835  0.00  0.00     0.171 S 
HETATM   22  C   UNK N   1      21.245  14.869   8.145  0.00  0.00     0.167 C 
HETATM   23  O   UNK N   1      19.612  14.394   6.057  0.00  0.00    -0.223 OA
HETATM   24  O   UNK N   1      18.917  16.096   7.482  0.00  0.00    -0.223 OA
ENDBRANCH   4  21
TORSDOF 9
ENDMDL
MODEL 8
REMARK VINA RESULT:      -5.2      3.704      6.588
REMARK  9 active torsions:
REMARK  status: ('A' for Active; 'I' for Inactive)
REMARK    1  A    between atoms: N_18  and  C_5 
REMARK    2  A    between atoms: N_18  and  C_6 
REMARK    3  A    between atoms: C_10  and  C_9 
REMARK    4  A    between atoms: N_16  and  C_9 
REMARK    5  A    between atoms: N_18  and  C_10 
REMARK    6  A    between atoms: S_23  and  C_12 
REMARK    7  A    between atoms: C_15  and  C_13 
REMARK    8  A    between atoms: O_22  and  C_14 
REMARK    9  A    between atoms: O_19  and  C_15 
ROOT
HETATM    1  C   UNK N   1      35.564  12.518   9.876  0.00  0.00     0.026 A 
HETATM    2  C   UNK N   1      35.628  13.183   8.651  0.00  0.00     0.039 A 
HETATM    3  C   UNK N   1      34.938  14.579  10.955  0.00  0.00     0.042 A 
HETATM    4  C   UNK N   1      35.211  13.218  11.029  0.00  0.00     0.059 A 
HETATM    5  C   UNK N   1      35.030  15.281   9.748  0.00  0.00     0.049 A 
HETATM    6  C   UNK N   1      35.367  14.566   8.565  0.00  0.00     0.082 A 
ENDROOT
BRANCH   5   7
HETATM    7  C   UNK N   1      34.731  16.745   9.821  0.00  0.00     0.149 C 
HETATM    8  N   UNK N   1      33.654  17.298   9.378  0.00  0.00    -0.369 N 
ATOM      9  HN  UNK N   1      33.564  18.304   9.524  1.00  0.00     0.161 HD
BRANCH   8  10
HETATM   10  C   UNK N   1      32.563  16.647   8.697  0.00  0.00     0.152 C 
BRANCH  10  11
HETATM   11  C   UNK N   1      32.146  17.435   7.440  0.00  0.00     0.292 C 
BRANCH  11  12
HETATM   12  N   UNK N   1      31.405  16.665   6.427  0.00  0.00     0.089 N 
BRANCH  12  13
HETATM   13  C   UNK N   1      31.687  17.154   5.078  0.00  0.00     0.268 C 
HETATM   14  C   UNK N   1      33.168  17.436   4.934  0.00  0.00     0.037 C 
ENDBRANCH  12  13
BRANCH  12  15
HETATM   15  C   UNK N   1      31.763  15.252   6.542  0.00  0.00     0.268 C 
HETATM   16  C   UNK N   1      30.961  14.395   5.576  0.00  0.00     0.037 C 
ENDBRANCH  12  15
ENDBRANCH  11  12
ENDBRANCH  10  11
ENDBRANCH   8  10
BRANCH   7  17
HETATM   17  O   UNK N   1      35.698  17.555  10.298  0.00  0.00    -0.346 OA
HETATM   18  H   UNK N   1      35.690  18.484  10.420  0.00  0.00     0.219 HD
ENDBRANCH   7  17
ENDBRANCH   5   7
BRANCH   6  19
HETATM   19  O   UNK N   1      35.385  15.186   7.360  0.00  0.00    -0.355 OA
HETATM   20  C   UNK N   1      35.908  14.621   6.218  0.00  0.00     0.210 C 
ENDBRANCH   6  19
BRANCH   4  21
HETATM   21  S   UNK N   1      35.183  12.413  12.624  0.00  0.00     0.171 S 
HETATM   22  C   UNK N   1      34.278  10.900  13.047  0.00  0.00     0.167 C 
HETATM   23  O   UNK N   1      34.743  13.488  13.628  0.00  0.00    -0.223 OA
HETATM   24  O   UNK N   1      36.635  12.244  13.097  0.00  0.00    -0.223 OA
ENDBRANCH   4  21
TORSDOF 9
ENDMDL
MODEL 9
REMARK VINA RESULT:      -5.2      4.071      7.288
REMARK  9 active torsions:
REMARK  status: ('A' for Active; 'I' for Inactive)
REMARK    1  A    between atoms: N_18  and  C_5 
REMARK    2  A    between atoms: N_18  and  C_6 
REMARK    3  A    between atoms: C_10  and  C_9 
REMARK    4  A    between atoms: N_16  and  C_9 
REMARK    5  A    between atoms: N_18  and  C_10 
REMARK    6  A    between atoms: S_23  and  C_12 
REMARK    7  A    between atoms: C_15  and  C_13 
REMARK    8  A    between atoms: O_22  and  C_14 
REMARK    9  A    between atoms: O_19  and  C_15 
ROOT
HETATM    1  C   UNK N   1      32.717  16.751   4.701  0.00  0.00     0.026 A 
HETATM    2  C   UNK N   1      33.293  17.558   5.683  0.00  0.00     0.039 A 
HETATM    3  C   UNK N   1      31.086  15.984   6.299  0.00  0.00     0.042 A 
HETATM    4  C   UNK N   1      31.607  15.968   5.010  0.00  0.00     0.059 A 
HETATM    5  C   UNK N   1      31.664  16.754   7.313  0.00  0.00     0.049 A 
HETATM    6  C   UNK N   1      32.784  17.573   6.998  0.00  0.00     0.082 A 
ENDROOT
BRANCH   5   7
HETATM    7  C   UNK N   1      31.014  16.656   8.657  0.00  0.00     0.149 C 
HETATM    8  N   UNK N   1      30.019  17.379   9.047  0.00  0.00    -0.369 N 
ATOM      9  HN  UNK N   1      29.650  17.183   9.978  1.00  0.00     0.161 HD
BRANCH   8  10
HETATM   10  C   UNK N   1      29.373  18.434   8.307  0.00  0.00     0.152 C 
BRANCH  10  11
HETATM   11  C   UNK N   1      28.138  17.904   7.553  0.00  0.00     0.292 C 
BRANCH  11  12
HETATM   12  N   UNK N   1      27.695  18.721   6.410  0.00  0.00     0.089 N 
BRANCH  12  13
HETATM   13  C   UNK N   1      27.683  20.144   6.749  0.00  0.00     0.268 C 
HETATM   14  C   UNK N   1      26.450  20.800   6.162  0.00  0.00     0.037 C 
ENDBRANCH  12  13
BRANCH  12  15
HETATM   15  C   UNK N   1      28.581  18.476   5.273  0.00  0.00     0.268 C 
HETATM   16  C   UNK N   1      27.832  17.845   4.111  0.00  0.00     0.037 C 
ENDBRANCH  12  15
ENDBRANCH  11  12
ENDBRANCH  10  11
ENDBRANCH   8  10
BRANCH   7  17
HETATM   17  O   UNK N   1      31.568  15.820   9.559  0.00  0.00    -0.346 OA
HETATM   18  H   UNK N   1      31.310  15.639  10.440  0.00  0.00     0.219 HD
ENDBRANCH   7  17
ENDBRANCH   5   7
BRANCH   6  19
HETATM   19  O   UNK N   1      33.324  18.400   7.925  0.00  0.00    -0.355 OA
HETATM   20  C   UNK N   1      34.665  18.422   8.241  0.00  0.00     0.210 C 
ENDBRANCH   6  19
BRANCH   4  21
HETATM   21  S   UNK N   1      30.884  14.874   3.796  0.00  0.00     0.171 S 
HETATM   22  C   UNK N   1      29.814  13.450   4.136  0.00  0.00     0.167 C 
HETATM   23  O   UNK N   1      32.057  14.355   2.950  0.00  0.00    -0.223 OA
HETATM   24  O   UNK N   1      30.199  15.737   2.725  0.00  0.00    -0.223 OA
ENDBRANCH   4  21
TORSDOF 9
ENDMDL
