MODEL 1
REMARK VINA RESULT:      -8.5      0.000      0.000
REMARK  4 active torsions:
REMARK  status: ('A' for Active; 'I' for Inactive)
REMARK    1  A    between atoms: C_19  and  C_16 
REMARK    2  A    between atoms: N_27  and  C_16 
REMARK    3  A    between atoms: C_26  and  C_17 
REMARK    4  A    between atoms: N_28  and  C_17 
REMARK       I    between atoms: N_29  and  C_26 
ROOT
HETATM    1  C   UNK N   1      28.962  16.707   3.282  0.00  0.00     0.375 C 
ENDROOT
BRANCH   1   2
HETATM    2  C   UNK N   1      27.560  16.273   2.915  0.00  0.00     0.257 C 
HETATM    3  N   UNK N   1      26.400  16.912   3.388  0.00  0.00    -0.279 N 
HETATM    4  C   UNK N   1      26.498  18.200   4.077  0.00  0.00     0.059 A 
HETATM    5  C   UNK N   1      25.095  16.273   3.184  0.00  0.00     0.059 A 
HETATM    6  C   UNK N   1      27.722  18.906   4.106  0.00  0.00     0.031 A 
HETATM    7  C   UNK N   1      25.395  18.840   4.701  0.00  0.00     0.033 A 
HETATM    8  C   UNK N   1      27.873  20.143   4.723  0.00  0.00     0.002 A 
HETATM    9  C   UNK N   1      26.784  20.738   5.335  0.00  0.00     0.002 A 
HETATM   10  C   UNK N   1      25.557  20.089   5.320  0.00  0.00     0.021 A 
HETATM   11  S   UNK N   1      23.760  18.176   4.808  0.00  0.00    -0.086 SA
HETATM   12  C   UNK N   1      23.890  16.760   3.756  0.00  0.00     0.033 A 
HETATM   13  C   UNK N   1      22.681  16.078   3.552  0.00  0.00     0.021 A 
HETATM   14  C   UNK N   1      22.623  14.917   2.793  0.00  0.00     0.002 A 
HETATM   15  C   UNK N   1      23.781  14.417   2.225  0.00  0.00     0.002 A 
HETATM   16  C   UNK N   1      24.988  15.085   2.419  0.00  0.00     0.031 A 
HETATM   17  O   UNK N   1      27.491  15.250   2.251  0.00  0.00    -0.271 OA
ENDBRANCH   1   2
BRANCH   1  18
HETATM   18  N   UNK N   1      29.885  15.632   3.647  0.00  0.00     0.100 N 
HETATM   19  C   UNK N   1      31.195  16.301   3.629  0.00  0.00     0.303 C 
HETATM   20  C   UNK N   1      32.295  15.508   4.353  0.00  0.00     0.303 C 
HETATM   21  N   UNK N   1      31.893  15.176   5.720  0.00  0.00     0.096 N 
HETATM   22  C   UNK N   1      30.681  14.352   5.618  0.00  0.00     0.303 C 
HETATM   23  C   UNK N   1      29.540  15.151   4.989  0.00  0.00     0.303 C 
BRANCH  21  24
HETATM   24  C   UNK N   1      31.707  16.429   6.483  0.00  0.00     0.311 C 
BRANCH  24  25
HETATM   25  C   UNK N   1      32.821  16.712   7.445  0.00  0.00    -0.027 A 
HETATM   26  C   UNK N   1      33.564  17.910   7.311  0.00  0.00     0.012 A 
HETATM   27  C   UNK N   1      34.562  18.234   8.248  0.00  0.00     0.040 A 
HETATM   28  C   UNK N   1      34.778  17.337   9.289  0.00  0.00     0.105 A 
HETATM   29  C   UNK N   1      34.083  16.198   9.412  0.00  0.00     0.105 A 
HETATM   30  O   UNK N   1      35.652  17.426  10.288  0.00  0.00    -0.323 OA
HETATM   31  C   UNK N   1      33.083  15.835   8.515  0.00  0.00     0.048 A 
HETATM   32  O   UNK N   1      34.504  15.542  10.490  0.00  0.00    -0.323 OA
HETATM   33  C   UNK N   1      35.518  16.292  11.095  0.00  0.00     0.352 A 
ENDBRANCH  24  25
ENDBRANCH  21  24
ENDBRANCH   1  18
TORSDOF 4
ENDMDL
MODEL 2
REMARK VINA RESULT:      -8.3      5.358      9.076
REMARK  4 active torsions:
REMARK  status: ('A' for Active; 'I' for Inactive)
REMARK    1  A    between atoms: C_19  and  C_16 
REMARK    2  A    between atoms: N_27  and  C_16 
REMARK    3  A    between atoms: C_26  and  C_17 
REMARK    4  A    between atoms: N_28  and  C_17 
REMARK       I    between atoms: N_29  and  C_26 
ROOT
HETATM    1  C   UNK N   1      22.247  17.566   3.661  0.00  0.00     0.375 C 
ENDROOT
BRANCH   1   2
HETATM    2  C   UNK N   1      23.494  18.377   3.939  0.00  0.00     0.257 C 
HETATM    3  N   UNK N   1      24.691  17.822   4.425  0.00  0.00    -0.279 N 
HETATM    4  C   UNK N   1      24.869  16.369   4.456  0.00  0.00     0.059 A 
HETATM    5  C   UNK N   1      25.755  18.714   4.899  0.00  0.00     0.059 A 
HETATM    6  C   UNK N   1      23.931  15.518   3.827  0.00  0.00     0.031 A 
HETATM    7  C   UNK N   1      25.987  15.730   5.055  0.00  0.00     0.033 A 
HETATM    8  C   UNK N   1      24.057  14.134   3.802  0.00  0.00     0.002 A 
HETATM    9  C   UNK N   1      25.149  13.537   4.405  0.00  0.00     0.002 A 
HETATM   10  C   UNK N   1      26.105  14.333   5.023  0.00  0.00     0.021 A 
HETATM   11  S   UNK N   1      27.297  16.557   5.905  0.00  0.00    -0.086 SA
HETATM   12  C   UNK N   1      26.931  18.250   5.546  0.00  0.00     0.033 A 
HETATM   13  C   UNK N   1      27.891  19.161   6.010  0.00  0.00     0.021 A 
HETATM   14  C   UNK N   1      27.728  20.531   5.854  0.00  0.00     0.002 A 
HETATM   15  C   UNK N   1      26.591  21.013   5.230  0.00  0.00     0.002 A 
HETATM   16  C   UNK N   1      25.630  20.119   4.764  0.00  0.00     0.031 A 
HETATM   17  O   UNK N   1      23.365  19.585   3.811  0.00  0.00    -0.271 OA
ENDBRANCH   1   2
BRANCH   1  18
HETATM   18  N   UNK N   1      21.199  17.642   4.679  0.00  0.00     0.100 N 
HETATM   19  C   UNK N   1      20.383  16.450   4.400  0.00  0.00     0.303 C 
HETATM   20  C   UNK N   1      19.446  16.070   5.557  0.00  0.00     0.303 C 
HETATM   21  N   UNK N   1      20.188  15.918   6.810  0.00  0.00     0.096 N 
HETATM   22  C   UNK N   1      20.813  17.216   7.092  0.00  0.00     0.303 C 
HETATM   23  C   UNK N   1      21.825  17.573   6.004  0.00  0.00     0.303 C 
BRANCH  21  24
HETATM   24  C   UNK N   1      21.150  14.804   6.665  0.00  0.00     0.311 C 
BRANCH  24  25
HETATM   25  C   UNK N   1      21.576  14.210   7.973  0.00  0.00    -0.027 A 
HETATM   26  C   UNK N   1      20.627  14.076   9.015  0.00  0.00     0.012 A 
HETATM   27  C   UNK N   1      20.984  13.451  10.224  0.00  0.00     0.040 A 
HETATM   28  C   UNK N   1      22.289  12.984  10.342  0.00  0.00     0.105 A 
HETATM   29  C   UNK N   1      23.191  13.119   9.360  0.00  0.00     0.105 A 
HETATM   30  O   UNK N   1      22.853  12.361  11.373  0.00  0.00    -0.323 OA
HETATM   31  C   UNK N   1      22.886  13.724   8.145  0.00  0.00     0.048 A 
HETATM   32  O   UNK N   1      24.346  12.587   9.751  0.00  0.00    -0.323 OA
HETATM   33  C   UNK N   1      24.184  12.081  11.045  0.00  0.00     0.352 A 
ENDBRANCH  24  25
ENDBRANCH  21  24
ENDBRANCH   1  18
TORSDOF 4
ENDMDL
MODEL 3
REMARK VINA RESULT:      -8.2      5.326      8.624
REMARK  4 active torsions:
REMARK  status: ('A' for Active; 'I' for Inactive)
REMARK    1  A    between atoms: C_19  and  C_16 
REMARK    2  A    between atoms: N_27  and  C_16 
REMARK    3  A    between atoms: C_26  and  C_17 
REMARK    4  A    between atoms: N_28  and  C_17 
REMARK       I    between atoms: N_29  and  C_26 
ROOT
HETATM    1  C   UNK N   1      22.896  16.149   3.885  0.00  0.00     0.375 C 
ENDROOT
BRANCH   1   2
HETATM    2  C   UNK N   1      23.819  17.342   4.009  0.00  0.00     0.257 C 
HETATM    3  N   UNK N   1      25.212  17.269   3.833  0.00  0.00    -0.279 N 
HETATM    4  C   UNK N   1      25.821  16.062   3.271  0.00  0.00     0.059 A 
HETATM    5  C   UNK N   1      26.045  18.414   4.217  0.00  0.00     0.059 A 
HETATM    6  C   UNK N   1      25.012  15.039   2.724  0.00  0.00     0.031 A 
HETATM    7  C   UNK N   1      27.224  15.858   3.187  0.00  0.00     0.033 A 
HETATM    8  C   UNK N   1      25.530  13.881   2.156  0.00  0.00     0.002 A 
HETATM    9  C   UNK N   1      26.901  13.703   2.100  0.00  0.00     0.002 A 
HETATM   10  C   UNK N   1      27.737  14.687   2.611  0.00  0.00     0.021 A 
HETATM   11  S   UNK N   1      28.452  16.976   3.794  0.00  0.00    -0.086 SA
HETATM   12  C   UNK N   1      27.465  18.380   4.221  0.00  0.00     0.033 A 
HETATM   13  C   UNK N   1      28.200  19.499   4.638  0.00  0.00     0.021 A 
HETATM   14  C   UNK N   1      27.573  20.664   5.057  0.00  0.00     0.002 A 
HETATM   15  C   UNK N   1      26.191  20.727   5.066  0.00  0.00     0.002 A 
HETATM   16  C   UNK N   1      25.448  19.623   4.654  0.00  0.00     0.031 A 
HETATM   17  O   UNK N   1      23.283  18.374   4.382  0.00  0.00    -0.271 OA
ENDBRANCH   1   2
BRANCH   1  18
HETATM   18  N   UNK N   1      21.832  16.061   4.885  0.00  0.00     0.100 N 
HETATM   19  C   UNK N   1      21.206  14.764   4.587  0.00  0.00     0.303 C 
HETATM   20  C   UNK N   1      20.317  14.240   5.726  0.00  0.00     0.303 C 
HETATM   21  N   UNK N   1      21.053  14.191   6.990  0.00  0.00     0.096 N 
HETATM   22  C   UNK N   1      21.475  15.565   7.290  0.00  0.00     0.303 C 
HETATM   23  C   UNK N   1      22.439  16.076   6.221  0.00  0.00     0.303 C 
BRANCH  21  24
HETATM   24  C   UNK N   1      22.172  13.233   6.857  0.00  0.00     0.311 C 
BRANCH  24  25
HETATM   25  C   UNK N   1      22.839  12.908   8.159  0.00  0.00    -0.027 A 
HETATM   26  C   UNK N   1      24.241  13.066   8.277  0.00  0.00     0.012 A 
HETATM   27  C   UNK N   1      24.878  12.843   9.511  0.00  0.00     0.040 A 
HETATM   28  C   UNK N   1      24.078  12.466  10.586  0.00  0.00     0.105 A 
HETATM   29  C   UNK N   1      22.753  12.307  10.473  0.00  0.00     0.105 A 
HETATM   30  O   UNK N   1      24.445  12.208  11.838  0.00  0.00    -0.323 OA
HETATM   31  C   UNK N   1      22.075  12.520   9.276  0.00  0.00     0.048 A 
HETATM   32  O   UNK N   1      22.254  11.942  11.651  0.00  0.00    -0.323 OA
HETATM   33  C   UNK N   1      23.305  11.864  12.571  0.00  0.00     0.352 A 
ENDBRANCH  24  25
ENDBRANCH  21  24
ENDBRANCH   1  18
TORSDOF 4
ENDMDL
MODEL 4
REMARK VINA RESULT:      -8.2      5.692      8.635
REMARK  4 active torsions:
REMARK  status: ('A' for Active; 'I' for Inactive)
REMARK    1  A    between atoms: C_19  and  C_16 
REMARK    2  A    between atoms: N_27  and  C_16 
REMARK    3  A    between atoms: C_26  and  C_17 
REMARK    4  A    between atoms: N_28  and  C_17 
REMARK       I    between atoms: N_29  and  C_26 
ROOT
HETATM    1  C   UNK N   1      21.896  15.586   3.815  0.00  0.00     0.375 C 
ENDROOT
BRANCH   1   2
HETATM    2  C   UNK N   1      23.163  16.285   4.259  0.00  0.00     0.257 C 
HETATM    3  N   UNK N   1      23.439  17.638   3.992  0.00  0.00    -0.279 N 
HETATM    4  C   UNK N   1      22.388  18.515   3.472  0.00  0.00     0.059 A 
HETATM    5  C   UNK N   1      24.789  18.158   4.238  0.00  0.00     0.059 A 
HETATM    6  C   UNK N   1      21.047  18.071   3.416  0.00  0.00     0.031 A 
HETATM    7  C   UNK N   1      22.620  19.851   3.051  0.00  0.00     0.033 A 
HETATM    8  C   UNK N   1      20.002  18.864   2.955  0.00  0.00     0.002 A 
HETATM    9  C   UNK N   1      20.259  20.157   2.538  0.00  0.00     0.002 A 
HETATM   10  C   UNK N   1      21.558  20.643   2.590  0.00  0.00     0.021 A 
HETATM   11  S   UNK N   1      24.197  20.648   3.020  0.00  0.00    -0.086 SA
HETATM   12  C   UNK N   1      25.205  19.461   3.858  0.00  0.00     0.033 A 
HETATM   13  C   UNK N   1      26.523  19.880   4.089  0.00  0.00     0.021 A 
HETATM   14  C   UNK N   1      27.456  19.045   4.690  0.00  0.00     0.002 A 
HETATM   15  C   UNK N   1      27.080  17.769   5.070  0.00  0.00     0.002 A 
HETATM   16  C   UNK N   1      25.774  17.340   4.846  0.00  0.00     0.031 A 
HETATM   17  O   UNK N   1      23.996  15.564   4.786  0.00  0.00    -0.271 OA
ENDBRANCH   1   2
BRANCH   1  18
HETATM   18  N   UNK N   1      20.965  15.219   4.882  0.00  0.00     0.100 N 
HETATM   19  C   UNK N   1      21.021  13.749   4.877  0.00  0.00     0.303 C 
HETATM   20  C   UNK N   1      20.443  13.112   6.151  0.00  0.00     0.303 C 
HETATM   21  N   UNK N   1      21.080  13.659   7.350  0.00  0.00     0.096 N 
HETATM   22  C   UNK N   1      20.807  15.102   7.355  0.00  0.00     0.303 C 
HETATM   23  C   UNK N   1      21.456  15.776   6.147  0.00  0.00     0.303 C 
BRANCH  21  24
HETATM   24  C   UNK N   1      22.520  13.318   7.326  0.00  0.00     0.311 C 
BRANCH  24  25
HETATM   25  C   UNK N   1      23.057  12.903   8.662  0.00  0.00    -0.027 A 
HETATM   26  C   UNK N   1      24.458  12.869   8.865  0.00  0.00     0.012 A 
HETATM   27  C   UNK N   1      24.983  12.560  10.132  0.00  0.00     0.040 A 
HETATM   28  C   UNK N   1      24.077  12.292  11.154  0.00  0.00     0.105 A 
HETATM   29  C   UNK N   1      22.751  12.314  10.960  0.00  0.00     0.105 A 
HETATM   30  O   UNK N   1      24.329  11.984  12.423  0.00  0.00    -0.323 OA
HETATM   31  C   UNK N   1      22.182  12.620   9.728  0.00  0.00     0.048 A 
HETATM   32  O   UNK N   1      22.137  12.017  12.103  0.00  0.00    -0.323 OA
HETATM   33  C   UNK N   1      23.111  11.796  13.083  0.00  0.00     0.352 A 
ENDBRANCH  24  25
ENDBRANCH  21  24
ENDBRANCH   1  18
TORSDOF 4
ENDMDL
MODEL 5
REMARK VINA RESULT:      -8.2      4.143      5.379
REMARK  4 active torsions:
REMARK  status: ('A' for Active; 'I' for Inactive)
REMARK    1  A    between atoms: C_19  and  C_16 
REMARK    2  A    between atoms: N_27  and  C_16 
REMARK    3  A    between atoms: C_26  and  C_17 
REMARK    4  A    between atoms: N_28  and  C_17 
REMARK       I    between atoms: N_29  and  C_26 
ROOT
HETATM    1  C   UNK N   1      25.365  14.967   5.606  0.00  0.00     0.375 C 
ENDROOT
BRANCH   1   2
HETATM    2  C   UNK N   1      24.772  14.064   6.666  0.00  0.00     0.257 C 
HETATM    3  N   UNK N   1      23.510  14.273   7.248  0.00  0.00    -0.279 N 
HETATM    4  C   UNK N   1      22.587  15.254   6.673  0.00  0.00     0.059 A 
HETATM    5  C   UNK N   1      23.130  13.499   8.435  0.00  0.00     0.059 A 
HETATM    6  C   UNK N   1      22.869  15.859   5.427  0.00  0.00     0.031 A 
HETATM    7  C   UNK N   1      21.356  15.619   7.279  0.00  0.00     0.033 A 
HETATM    8  C   UNK N   1      22.023  16.779   4.819  0.00  0.00     0.002 A 
HETATM    9  C   UNK N   1      20.835  17.127   5.438  0.00  0.00     0.002 A 
HETATM   10  C   UNK N   1      20.508  16.547   6.656  0.00  0.00     0.021 A 
HETATM   11  S   UNK N   1      20.766  15.014   8.832  0.00  0.00    -0.086 SA
HETATM   12  C   UNK N   1      21.947  13.745   9.182  0.00  0.00     0.033 A 
HETATM   13  C   UNK N   1      21.665  12.992  10.331  0.00  0.00     0.021 A 
HETATM   14  C   UNK N   1      22.520  11.992  10.773  0.00  0.00     0.002 A 
HETATM   15  C   UNK N   1      23.681  11.731  10.067  0.00  0.00     0.002 A 
HETATM   16  C   UNK N   1      23.974  12.471   8.924  0.00  0.00     0.031 A 
HETATM   17  O   UNK N   1      25.515  13.181   7.068  0.00  0.00    -0.271 OA
ENDBRANCH   1   2
BRANCH   1  18
HETATM   18  N   UNK N   1      25.805  16.284   6.067  0.00  0.00     0.100 N 
HETATM   19  C   UNK N   1      26.746  15.958   7.148  0.00  0.00     0.303 C 
HETATM   20  C   UNK N   1      27.651  17.135   7.545  0.00  0.00     0.303 C 
HETATM   21  N   UNK N   1      28.354  17.676   6.381  0.00  0.00     0.096 N 
HETATM   22  C   UNK N   1      27.326  18.142   5.443  0.00  0.00     0.303 C 
HETATM   23  C   UNK N   1      26.472  16.973   4.956  0.00  0.00     0.303 C 
BRANCH  21  24
HETATM   24  C   UNK N   1      29.243  16.630   5.829  0.00  0.00     0.311 C 
BRANCH  24  25
HETATM   25  C   UNK N   1      30.701  16.924   6.021  0.00  0.00    -0.027 A 
HETATM   26  C   UNK N   1      31.541  17.026   4.886  0.00  0.00     0.012 A 
HETATM   27  C   UNK N   1      32.895  17.378   5.036  0.00  0.00     0.040 A 
HETATM   28  C   UNK N   1      33.356  17.614   6.327  0.00  0.00     0.105 A 
HETATM   29  C   UNK N   1      32.564  17.508   7.402  0.00  0.00     0.105 A 
HETATM   30  O   UNK N   1      34.579  17.962   6.717  0.00  0.00    -0.323 OA
HETATM   31  C   UNK N   1      31.218  17.168   7.307  0.00  0.00     0.048 A 
HETATM   32  O   UNK N   1      33.270  17.784   8.496  0.00  0.00    -0.323 OA
HETATM   33  C   UNK N   1      34.581  18.085   8.110  0.00  0.00     0.352 A 
ENDBRANCH  24  25
ENDBRANCH  21  24
ENDBRANCH   1  18
TORSDOF 4
ENDMDL
MODEL 6
REMARK VINA RESULT:      -8.1      2.736      4.504
REMARK  4 active torsions:
REMARK  status: ('A' for Active; 'I' for Inactive)
REMARK    1  A    between atoms: C_19  and  C_16 
REMARK    2  A    between atoms: N_27  and  C_16 
REMARK    3  A    between atoms: C_26  and  C_17 
REMARK    4  A    between atoms: N_28  and  C_17 
REMARK       I    between atoms: N_29  and  C_26 
ROOT
HETATM    1  C   UNK N   1      25.466  17.485   5.046  0.00  0.00     0.375 C 
ENDROOT
BRANCH   1   2
HETATM    2  C   UNK N   1      24.321  18.318   4.513  0.00  0.00     0.257 C 
HETATM    3  N   UNK N   1      22.988  17.872   4.473  0.00  0.00    -0.279 N 
HETATM    4  C   UNK N   1      22.598  16.651   5.183  0.00  0.00     0.059 A 
HETATM    5  C   UNK N   1      21.995  18.642   3.715  0.00  0.00     0.059 A 
HETATM    6  C   UNK N   1      23.501  16.017   6.066  0.00  0.00     0.031 A 
HETATM    7  C   UNK N   1      21.310  16.064   5.081  0.00  0.00     0.033 A 
HETATM    8  C   UNK N   1      23.184  14.870   6.785  0.00  0.00     0.002 A 
HETATM    9  C   UNK N   1      21.925  14.311   6.657  0.00  0.00     0.002 A 
HETATM   10  C   UNK N   1      20.998  14.908   5.812  0.00  0.00     0.021 A 
HETATM   11  S   UNK N   1      20.000  16.655   4.051  0.00  0.00    -0.086 SA
HETATM   12  C   UNK N   1      20.667  18.194   3.489  0.00  0.00     0.033 A 
HETATM   13  C   UNK N   1      19.780  18.963   2.721  0.00  0.00     0.021 A 
HETATM   14  C   UNK N   1      20.166  20.173   2.162  0.00  0.00     0.002 A 
HETATM   15  C   UNK N   1      21.455  20.635   2.363  0.00  0.00     0.002 A 
HETATM   16  C   UNK N   1      22.346  19.881   3.124  0.00  0.00     0.031 A 
HETATM   17  O   UNK N   1      24.644  19.384   4.013  0.00  0.00    -0.271 OA
ENDBRANCH   1   2
BRANCH   1  18
HETATM   18  N   UNK N   1      26.416  16.996   4.047  0.00  0.00     0.100 N 
HETATM   19  C   UNK N   1      27.546  17.927   4.183  0.00  0.00     0.303 C 
HETATM   20  C   UNK N   1      28.840  17.415   3.531  0.00  0.00     0.303 C 
HETATM   21  N   UNK N   1      29.191  16.084   4.030  0.00  0.00     0.096 N 
HETATM   22  C   UNK N   1      28.079  15.192   3.680  0.00  0.00     0.303 C 
HETATM   23  C   UNK N   1      26.799  15.623   4.394  0.00  0.00     0.303 C 
BRANCH  21  24
HETATM   24  C   UNK N   1      29.459  16.173   5.482  0.00  0.00     0.311 C 
BRANCH  24  25
HETATM   25  C   UNK N   1      30.861  16.593   5.805  0.00  0.00    -0.027 A 
HETATM   26  C   UNK N   1      31.841  16.581   4.783  0.00  0.00     0.012 A 
HETATM   27  C   UNK N   1      33.143  17.044   5.043  0.00  0.00     0.040 A 
HETATM   28  C   UNK N   1      33.414  17.503   6.328  0.00  0.00     0.105 A 
HETATM   29  C   UNK N   1      32.491  17.506   7.299  0.00  0.00     0.105 A 
HETATM   30  O   UNK N   1      34.555  17.990   6.808  0.00  0.00    -0.323 OA
HETATM   31  C   UNK N   1      31.188  17.063   7.091  0.00  0.00     0.048 A 
HETATM   32  O   UNK N   1      33.030  17.992   8.415  0.00  0.00    -0.323 OA
HETATM   33  C   UNK N   1      34.363  18.322   8.153  0.00  0.00     0.352 A 
ENDBRANCH  24  25
ENDBRANCH  21  24
ENDBRANCH   1  18
TORSDOF 4
ENDMDL
MODEL 7
REMARK VINA RESULT:      -8.1      3.530      9.581
REMARK  4 active torsions:
REMARK  status: ('A' for Active; 'I' for Inactive)
REMARK    1  A    between atoms: C_19  and  C_16 
REMARK    2  A    between atoms: N_27  and  C_16 
REMARK    3  A    between atoms: C_26  and  C_17 
REMARK    4  A    between atoms: N_28  and  C_17 
REMARK       I    between atoms: N_29  and  C_26 
ROOT
HETATM    1  C   UNK N   1      28.483  16.595   4.757  0.00  0.00     0.375 C 
ENDROOT
BRANCH   1   2
HETATM    2  C   UNK N   1      29.898  16.091   4.943  0.00  0.00     0.257 C 
HETATM    3  N   UNK N   1      30.727  16.479   6.010  0.00  0.00    -0.279 N 
HETATM    4  C   UNK N   1      30.169  17.214   7.147  0.00  0.00     0.059 A 
HETATM    5  C   UNK N   1      32.154  16.139   5.970  0.00  0.00     0.059 A 
HETATM    6  C   UNK N   1      28.771  17.374   7.280  0.00  0.00     0.031 A 
HETATM    7  C   UNK N   1      30.961  17.757   8.193  0.00  0.00     0.033 A 
HETATM    8  C   UNK N   1      28.180  18.040   8.347  0.00  0.00     0.002 A 
HETATM    9  C   UNK N   1      28.976  18.571   9.346  0.00  0.00     0.002 A 
HETATM   10  C   UNK N   1      30.355  18.426   9.266  0.00  0.00     0.021 A 
HETATM   11  S   UNK N   1      32.726  17.696   8.269  0.00  0.00    -0.086 SA
HETATM   12  C   UNK N   1      33.097  16.616   6.919  0.00  0.00     0.033 A 
HETATM   13  C   UNK N   1      34.454  16.284   6.799  0.00  0.00     0.021 A 
HETATM   14  C   UNK N   1      34.918  15.487   5.761  0.00  0.00     0.002 A 
HETATM   15  C   UNK N   1      34.023  15.009   4.820  0.00  0.00     0.002 A 
HETATM   16  C   UNK N   1      32.672  15.331   4.927  0.00  0.00     0.031 A 
HETATM   17  O   UNK N   1      30.322  15.392   4.036  0.00  0.00    -0.271 OA
ENDBRANCH   1   2
BRANCH   1  18
HETATM   18  N   UNK N   1      27.555  15.662   4.118  0.00  0.00     0.100 N 
HETATM   19  C   UNK N   1      26.800  15.117   5.256  0.00  0.00     0.303 C 
HETATM   20  C   UNK N   1      25.499  14.410   4.843  0.00  0.00     0.303 C 
HETATM   21  N   UNK N   1      24.659  15.286   4.025  0.00  0.00     0.096 N 
HETATM   22  C   UNK N   1      25.437  15.623   2.827  0.00  0.00     0.303 C 
HETATM   23  C   UNK N   1      26.689  16.413   3.203  0.00  0.00     0.303 C 
BRANCH  21  24
HETATM   24  C   UNK N   1      24.260  16.459   4.834  0.00  0.00     0.311 C 
BRANCH  24  25
HETATM   25  C   UNK N   1      23.153  17.260   4.218  0.00  0.00    -0.027 A 
HETATM   26  C   UNK N   1      21.908  16.636   3.960  0.00  0.00     0.012 A 
HETATM   27  C   UNK N   1      20.831  17.386   3.456  0.00  0.00     0.040 A 
HETATM   28  C   UNK N   1      21.046  18.741   3.227  0.00  0.00     0.105 A 
HETATM   29  C   UNK N   1      22.226  19.330   3.461  0.00  0.00     0.105 A 
HETATM   30  O   UNK N   1      20.188  19.647   2.763  0.00  0.00    -0.323 OA
HETATM   31  C   UNK N   1      23.320  18.634   3.964  0.00  0.00     0.048 A 
HETATM   32  O   UNK N   1      22.141  20.621   3.148  0.00  0.00    -0.323 OA
HETATM   33  C   UNK N   1      20.844  20.880   2.693  0.00  0.00     0.352 A 
ENDBRANCH  24  25
ENDBRANCH  21  24
ENDBRANCH   1  18
TORSDOF 4
ENDMDL
MODEL 8
REMARK VINA RESULT:      -8.1      2.316      3.369
REMARK  4 active torsions:
REMARK  status: ('A' for Active; 'I' for Inactive)
REMARK    1  A    between atoms: C_19  and  C_16 
REMARK    2  A    between atoms: N_27  and  C_16 
REMARK    3  A    between atoms: C_26  and  C_17 
REMARK    4  A    between atoms: N_28  and  C_17 
REMARK       I    between atoms: N_29  and  C_26 
ROOT
HETATM    1  C   UNK N   1      25.716  16.396   5.042  0.00  0.00     0.375 C 
ENDROOT
BRANCH   1   2
HETATM    2  C   UNK N   1      24.277  15.969   4.847  0.00  0.00     0.257 C 
HETATM    3  N   UNK N   1      23.261  16.838   4.410  0.00  0.00    -0.279 N 
HETATM    4  C   UNK N   1      23.600  18.160   3.880  0.00  0.00     0.059 A 
HETATM    5  C   UNK N   1      21.862  16.404   4.491  0.00  0.00     0.059 A 
HETATM    6  C   UNK N   1      24.947  18.505   3.622  0.00  0.00     0.031 A 
HETATM    7  C   UNK N   1      22.630  19.142   3.546  0.00  0.00     0.033 A 
HETATM    8  C   UNK N   1      25.330  19.735   3.098  0.00  0.00     0.002 A 
HETATM    9  C   UNK N   1      24.365  20.678   2.794  0.00  0.00     0.002 A 
HETATM   10  C   UNK N   1      23.027  20.379   3.017  0.00  0.00     0.021 A 
HETATM   11  S   UNK N   1      20.886  18.966   3.770  0.00  0.00    -0.086 SA
HETATM   12  C   UNK N   1      20.762  17.260   4.220  0.00  0.00     0.033 A 
HETATM   13  C   UNK N   1      19.447  16.791   4.356  0.00  0.00     0.021 A 
HETATM   14  C   UNK N   1      19.179  15.489   4.755  0.00  0.00     0.002 A 
HETATM   15  C   UNK N   1      20.230  14.631   5.028  0.00  0.00     0.002 A 
HETATM   16  C   UNK N   1      21.541  15.084   4.897  0.00  0.00     0.031 A 
HETATM   17  O   UNK N   1      24.023  14.827   5.197  0.00  0.00    -0.271 OA
ENDBRANCH   1   2
BRANCH   1  18
HETATM   18  N   UNK N   1      26.729  15.424   4.631  0.00  0.00     0.100 N 
HETATM   19  C   UNK N   1      27.294  16.031   3.416  0.00  0.00     0.303 C 
HETATM   20  C   UNK N   1      28.640  15.418   2.998  0.00  0.00     0.303 C 
HETATM   21  N   UNK N   1      29.602  15.455   4.101  0.00  0.00     0.096 N 
HETATM   22  C   UNK N   1      29.023  14.667   5.195  0.00  0.00     0.303 C 
HETATM   23  C   UNK N   1      27.731  15.310   5.696  0.00  0.00     0.303 C 
BRANCH  21  24
HETATM   24  C   UNK N   1      29.874  16.866   4.453  0.00  0.00     0.311 C 
BRANCH  24  25
HETATM   25  C   UNK N   1      31.195  17.067   5.132  0.00  0.00    -0.027 A 
HETATM   26  C   UNK N   1      32.361  17.229   4.345  0.00  0.00     0.012 A 
HETATM   27  C   UNK N   1      33.598  17.497   4.957  0.00  0.00     0.040 A 
HETATM   28  C   UNK N   1      33.618  17.591   6.345  0.00  0.00     0.105 A 
HETATM   29  C   UNK N   1      32.518  17.428   7.092  0.00  0.00     0.105 A 
HETATM   30  O   UNK N   1      34.655  17.840   7.142  0.00  0.00    -0.323 OA
HETATM   31  C   UNK N   1      31.270  17.167   6.534  0.00  0.00     0.048 A 
HETATM   32  O   UNK N   1      32.835  17.567   8.377  0.00  0.00    -0.323 OA
HETATM   33  C   UNK N   1      34.205  17.836   8.466  0.00  0.00     0.352 A 
ENDBRANCH  24  25
ENDBRANCH  21  24
ENDBRANCH   1  18
TORSDOF 4
ENDMDL
MODEL 9
REMARK VINA RESULT:      -8.1      2.956      5.042
REMARK  4 active torsions:
REMARK  status: ('A' for Active; 'I' for Inactive)
REMARK    1  A    between atoms: C_19  and  C_16 
REMARK    2  A    between atoms: N_27  and  C_16 
REMARK    3  A    between atoms: C_26  and  C_17 
REMARK    4  A    between atoms: N_28  and  C_17 
REMARK       I    between atoms: N_29  and  C_26 
ROOT
HETATM    1  C   UNK N   1      30.731  16.658   7.594  0.00  0.00     0.375 C 
ENDROOT
BRANCH   1   2
HETATM    2  C   UNK N   1      29.618  17.663   7.396  0.00  0.00     0.257 C 
HETATM    3  N   UNK N   1      28.759  17.661   6.283  0.00  0.00    -0.279 N 
HETATM    4  C   UNK N   1      28.743  16.519   5.366  0.00  0.00     0.059 A 
HETATM    5  C   UNK N   1      27.881  18.814   6.052  0.00  0.00     0.059 A 
HETATM    6  C   UNK N   1      29.441  15.333   5.688  0.00  0.00     0.031 A 
HETATM    7  C   UNK N   1      28.007  16.500   4.152  0.00  0.00     0.033 A 
HETATM    8  C   UNK N   1      29.446  14.208   4.871  0.00  0.00     0.002 A 
HETATM    9  C   UNK N   1      28.731  14.221   3.687  0.00  0.00     0.002 A 
HETATM   10  C   UNK N   1      28.018  15.359   3.335  0.00  0.00     0.021 A 
HETATM   11  S   UNK N   1      27.054  17.847   3.518  0.00  0.00    -0.086 SA
HETATM   12  C   UNK N   1      27.094  18.974   4.881  0.00  0.00     0.033 A 
HETATM   13  C   UNK N   1      26.306  20.121   4.706  0.00  0.00     0.021 A 
HETATM   14  C   UNK N   1      26.268  21.127   5.662  0.00  0.00     0.002 A 
HETATM   15  C   UNK N   1      27.026  21.001   6.812  0.00  0.00     0.002 A 
HETATM   16  C   UNK N   1      27.813  19.867   6.998  0.00  0.00     0.031 A 
HETATM   17  O   UNK N   1      29.574  18.558   8.225  0.00  0.00    -0.271 OA
ENDBRANCH   1   2
BRANCH   1  18
HETATM   18  N   UNK N   1      32.088  17.158   7.372  0.00  0.00     0.100 N 
HETATM   19  C   UNK N   1      32.722  16.988   8.687  0.00  0.00     0.303 C 
HETATM   20  C   UNK N   1      34.256  17.067   8.639  0.00  0.00     0.303 C 
HETATM   21  N   UNK N   1      34.803  16.122   7.665  0.00  0.00     0.096 N 
HETATM   22  C   UNK N   1      34.252  16.494   6.356  0.00  0.00     0.303 C 
HETATM   23  C   UNK N   1      32.733  16.330   6.347  0.00  0.00     0.303 C 
BRANCH  21  24
HETATM   24  C   UNK N   1      34.467  14.746   8.092  0.00  0.00     0.311 C 
BRANCH  24  25
HETATM   25  C   UNK N   1      35.141  14.335   9.366  0.00  0.00    -0.027 A 
HETATM   26  C   UNK N   1      36.553  14.233   9.401  0.00  0.00     0.012 A 
HETATM   27  C   UNK N   1      37.212  13.926  10.604  0.00  0.00     0.040 A 
HETATM   28  C   UNK N   1      36.424  13.729  11.734  0.00  0.00     0.105 A 
HETATM   29  C   UNK N   1      35.087  13.815  11.700  0.00  0.00     0.105 A 
HETATM   30  O   UNK N   1      36.812  13.437  12.972  0.00  0.00    -0.323 OA
HETATM   31  C   UNK N   1      34.389  14.121  10.536  0.00  0.00     0.048 A 
HETATM   32  O   UNK N   1      34.602  13.576  12.916  0.00  0.00    -0.323 OA
HETATM   33  C   UNK N   1      35.675  13.327  13.778  0.00  0.00     0.352 A 
ENDBRANCH  24  25
ENDBRANCH  21  24
ENDBRANCH   1  18
TORSDOF 4
ENDMDL
