MODEL 1
REMARK VINA RESULT:      -7.6      0.000      0.000
REMARK  6 active torsions:
REMARK  status: ('A' for Active; 'I' for Inactive)
REMARK    1  A    between atoms: C_3  and  C_7 
REMARK       I    between atoms: C_7  and  N_9 
REMARK    2  A    between atoms: N_9  and  N_10 
REMARK       I    between atoms: N_10  and  C_11 
REMARK    3  A    between atoms: C_13  and  C_11 
REMARK    4  A    between atoms: N_21  and  O_22 
REMARK    5  A    between atoms: O_22  and  S_23 
REMARK    6  A    between atoms: S_23  and  O_26 
ROOT
HETATM    1  C   UNK N   1      35.059  16.610   8.343  0.00  0.00     0.161 C 
HETATM    2  C   UNK N   1      35.069  15.335   7.420  0.00  0.00     0.032 C 
HETATM    3  C   UNK N   1      35.091  13.944   8.208  0.00  0.00     0.031 C 
HETATM    4  C   UNK N   1      34.504  13.946   9.681  0.00  0.00     0.134 C 
HETATM    5  C   UNK N   1      33.599  15.177   9.652  0.00  0.00     0.129 C 
HETATM    6  N   UNK N   1      34.628  16.198   9.646  0.00  0.00    -0.217 NA
HETATM    7  C   UNK N   1      35.618  15.757  10.410  0.00  0.00     0.325 C 
HETATM    8  O   UNK N   1      36.620  16.405  10.685  0.00  0.00    -0.251 OA
HETATM    9  N   UNK N   1      35.529  14.446  10.580  0.00  0.00    -0.187 N 
ENDROOT
BRANCH   1  10
HETATM   10  C   UNK N   1      34.392  17.904   7.939  0.00  0.00     0.254 C 
HETATM   11  N   UNK N   1      33.303  17.971   7.138  0.00  0.00    -0.266 N 
HETATM   12  H   UNK N   1      32.925  18.858   6.934  0.00  0.00     0.190 HD
HETATM   13  O   UNK N   1      34.874  18.945   8.354  0.00  0.00    -0.270 OA
BRANCH  11  14
HETATM   14  N   UNK N   1      32.701  16.864   6.597  0.00  0.00    -0.267 N 
HETATM   15  C   UNK N   1      31.386  16.614   6.807  0.00  0.00     0.241 C 
HETATM   16  O   UNK N   1      30.882  15.629   6.290  0.00  0.00    -0.271 OA
HETATM   17  H   UNK N   1      33.232  16.242   6.047  0.00  0.00     0.190 HD
BRANCH  15  18
HETATM   18  C   UNK N   1      30.543  17.538   7.666  0.00  0.00     0.097 C 
HETATM   19  C   UNK N   1      29.139  17.718   7.088  0.00  0.00     0.017 C 
HETATM   20  C   UNK N   1      28.338  18.669   7.964  0.00  0.00     0.020 C 
HETATM   21  C   UNK N   1      28.293  18.104   9.380  0.00  0.00     0.113 C 
HETATM   22  N   UNK N   1      29.648  17.984   9.918  0.00  0.00    -0.420 N 
HETATM   23  C   UNK N   1      30.411  17.032   9.110  0.00  0.00     0.127 C 
HETATM   24  H   UNK N   1      30.006  18.487  10.732  0.00  0.00     0.153 HD
ENDBRANCH  15  18
ENDBRANCH  11  14
ENDBRANCH   1  10
BRANCH   9  25
HETATM   25  O   UNK N   1      36.469  13.692  11.170  0.00  0.00    -0.132 OA
BRANCH  25  26
HETATM   26  S   UNK N   1      36.117  13.789  12.859  0.00  0.00     0.263 S 
HETATM   27  O   UNK N   1      36.797  12.620  13.588  0.00  0.00    -0.578 OA
HETATM   28  O   UNK N   1      34.614  13.575  13.087  0.00  0.00    -0.578 OA
BRANCH  26  29
HETATM   29  O   UNK N   1      36.584  15.259  13.618  0.00  0.00    -0.272 OA
HETATM   30  H   UNK N   1      37.131  15.914  14.080  0.00  0.00     0.234 HD
ENDBRANCH  26  29
ENDBRANCH  25  26
ENDBRANCH   9  25
TORSDOF 6
ENDMDL
MODEL 2
REMARK VINA RESULT:      -7.5     11.124     14.195
REMARK  6 active torsions:
REMARK  status: ('A' for Active; 'I' for Inactive)
REMARK    1  A    between atoms: C_3  and  C_7 
REMARK       I    between atoms: C_7  and  N_9 
REMARK    2  A    between atoms: N_9  and  N_10 
REMARK       I    between atoms: N_10  and  C_11 
REMARK    3  A    between atoms: C_13  and  C_11 
REMARK    4  A    between atoms: N_21  and  O_22 
REMARK    5  A    between atoms: O_22  and  S_23 
REMARK    6  A    between atoms: S_23  and  O_26 
ROOT
HETATM    1  C   UNK N   1      21.219  15.480   6.321  0.00  0.00     0.161 C 
HETATM    2  C   UNK N   1      22.774  15.718   6.247  0.00  0.00     0.032 C 
HETATM    3  C   UNK N   1      23.207  17.033   5.449  0.00  0.00     0.031 C 
HETATM    4  C   UNK N   1      22.142  18.206   5.368  0.00  0.00     0.134 C 
HETATM    5  C   UNK N   1      21.248  17.895   6.567  0.00  0.00     0.129 C 
HETATM    6  N   UNK N   1      20.576  16.727   6.035  0.00  0.00    -0.217 NA
HETATM    7  C   UNK N   1      20.396  16.938   4.737  0.00  0.00     0.325 C 
HETATM    8  O   UNK N   1      19.789  16.181   3.992  0.00  0.00    -0.251 OA
HETATM    9  N   UNK N   1      21.202  17.896   4.305  0.00  0.00    -0.187 N 
ENDROOT
BRANCH   1  10
HETATM   10  C   UNK N   1      20.555  14.784   7.486  0.00  0.00     0.254 C 
HETATM   11  N   UNK N   1      20.764  13.486   7.806  0.00  0.00    -0.266 N 
HETATM   12  H   UNK N   1      20.298  13.116   8.592  0.00  0.00     0.190 HD
HETATM   13  O   UNK N   1      19.780  15.434   8.169  0.00  0.00    -0.270 OA
BRANCH  11  14
HETATM   14  N   UNK N   1      21.593  12.661   7.090  0.00  0.00    -0.267 N 
HETATM   15  C   UNK N   1      22.738  12.182   7.634  0.00  0.00     0.241 C 
HETATM   16  O   UNK N   1      23.439  11.433   6.971  0.00  0.00    -0.271 OA
HETATM   17  H   UNK N   1      21.353  12.414   6.168  0.00  0.00     0.190 HD
BRANCH  15  18
HETATM   18  C   UNK N   1      23.151  12.561   9.044  0.00  0.00     0.097 C 
HETATM   19  C   UNK N   1      22.631  11.554  10.071  0.00  0.00     0.017 C 
HETATM   20  C   UNK N   1      23.043  11.985  11.470  0.00  0.00     0.020 C 
HETATM   21  C   UNK N   1      24.564  12.097  11.515  0.00  0.00     0.113 C 
HETATM   22  N   UNK N   1      25.024  13.096  10.552  0.00  0.00    -0.420 N 
HETATM   23  C   UNK N   1      24.675  12.666   9.198  0.00  0.00     0.127 C 
HETATM   24  H   UNK N   1      25.514  13.961  10.788  0.00  0.00     0.153 HD
ENDBRANCH  15  18
ENDBRANCH  11  14
ENDBRANCH   1  10
BRANCH   9  25
HETATM   25  O   UNK N   1      21.366  18.225   3.014  0.00  0.00    -0.132 OA
BRANCH  25  26
HETATM   26  S   UNK N   1      20.176  19.441   2.714  0.00  0.00     0.263 S 
HETATM   27  O   UNK N   1      20.562  20.231   1.454  0.00  0.00    -0.578 OA
HETATM   28  O   UNK N   1      20.196  20.475   3.848  0.00  0.00    -0.578 OA
BRANCH  26  29
HETATM   29  O   UNK N   1      18.569  18.859   2.531  0.00  0.00    -0.272 OA
HETATM   30  H   UNK N   1      17.626  18.714   2.705  0.00  0.00     0.234 HD
ENDBRANCH  26  29
ENDBRANCH  25  26
ENDBRANCH   9  25
TORSDOF 6
ENDMDL
MODEL 3
REMARK VINA RESULT:      -7.5      1.659      2.832
REMARK  6 active torsions:
REMARK  status: ('A' for Active; 'I' for Inactive)
REMARK    1  A    between atoms: C_3  and  C_7 
REMARK       I    between atoms: C_7  and  N_9 
REMARK    2  A    between atoms: N_9  and  N_10 
REMARK       I    between atoms: N_10  and  C_11 
REMARK    3  A    between atoms: C_13  and  C_11 
REMARK    4  A    between atoms: N_21  and  O_22 
REMARK    5  A    between atoms: O_22  and  S_23 
REMARK    6  A    between atoms: S_23  and  O_26 
ROOT
HETATM    1  C   UNK N   1      34.971  16.674   8.681  0.00  0.00     0.161 C 
HETATM    2  C   UNK N   1      34.950  15.431   7.715  0.00  0.00     0.032 C 
HETATM    3  C   UNK N   1      35.022  14.014   8.453  0.00  0.00     0.031 C 
HETATM    4  C   UNK N   1      34.506  13.961   9.952  0.00  0.00     0.134 C 
HETATM    5  C   UNK N   1      33.589  15.182  10.008  0.00  0.00     0.129 C 
HETATM    6  N   UNK N   1      34.606  16.214   9.987  0.00  0.00    -0.217 NA
HETATM    7  C   UNK N   1      35.637  15.759  10.689  0.00  0.00     0.325 C 
HETATM    8  O   UNK N   1      36.644  16.408  10.937  0.00  0.00    -0.251 OA
HETATM    9  N   UNK N   1      35.568  14.442  10.818  0.00  0.00    -0.187 N 
ENDROOT
BRANCH   1  10
HETATM   10  C   UNK N   1      34.273  17.974   8.353  0.00  0.00     0.254 C 
HETATM   11  N   UNK N   1      32.941  18.079   8.138  0.00  0.00    -0.266 N 
HETATM   12  H   UNK N   1      32.567  18.969   7.941  0.00  0.00     0.190 HD
HETATM   13  O   UNK N   1      34.958  18.981   8.269  0.00  0.00    -0.270 OA
BRANCH  11  14
HETATM   14  N   UNK N   1      32.087  17.007   8.182  0.00  0.00    -0.267 N 
HETATM   15  C   UNK N   1      31.700  16.377   7.045  0.00  0.00     0.241 C 
HETATM   16  O   UNK N   1      30.956  15.413   7.129  0.00  0.00    -0.271 OA
HETATM   17  H   UNK N   1      31.751  16.690   9.051  0.00  0.00     0.190 HD
BRANCH  15  18
HETATM   18  C   UNK N   1      32.181  16.854   5.687  0.00  0.00     0.097 C 
HETATM   19  C   UNK N   1      32.835  15.721   4.894  0.00  0.00     0.017 C 
HETATM   20  C   UNK N   1      33.325  16.247   3.553  0.00  0.00     0.020 C 
HETATM   21  C   UNK N   1      32.138  16.844   2.803  0.00  0.00     0.113 C 
HETATM   22  N   UNK N   1      31.563  17.950   3.568  0.00  0.00    -0.420 N 
HETATM   23  C   UNK N   1      31.045  17.444   4.840  0.00  0.00     0.127 C 
HETATM   24  H   UNK N   1      31.529  18.923   3.263  0.00  0.00     0.153 HD
ENDBRANCH  15  18
ENDBRANCH  11  14
ENDBRANCH   1  10
BRANCH   9  25
HETATM   25  O   UNK N   1      36.542  13.679  11.336  0.00  0.00    -0.132 OA
BRANCH  25  26
HETATM   26  S   UNK N   1      36.255  13.693  13.040  0.00  0.00     0.263 S 
HETATM   27  O   UNK N   1      36.906  12.455  13.676  0.00  0.00    -0.578 OA
HETATM   28  O   UNK N   1      34.753  13.531  13.312  0.00  0.00    -0.578 OA
BRANCH  26  29
HETATM   29  O   UNK N   1      36.814  15.095  13.862  0.00  0.00    -0.272 OA
HETATM   30  H   UNK N   1      36.813  15.879  14.433  0.00  0.00     0.234 HD
ENDBRANCH  26  29
ENDBRANCH  25  26
ENDBRANCH   9  25
TORSDOF 6
ENDMDL
MODEL 4
REMARK VINA RESULT:      -7.4     11.605     14.223
REMARK  6 active torsions:
REMARK  status: ('A' for Active; 'I' for Inactive)
REMARK    1  A    between atoms: C_3  and  C_7 
REMARK       I    between atoms: C_7  and  N_9 
REMARK    2  A    between atoms: N_9  and  N_10 
REMARK       I    between atoms: N_10  and  C_11 
REMARK    3  A    between atoms: C_13  and  C_11 
REMARK    4  A    between atoms: N_21  and  O_22 
REMARK    5  A    between atoms: O_22  and  S_23 
REMARK    6  A    between atoms: S_23  and  O_26 
ROOT
HETATM    1  C   UNK N   1      21.278  16.485   6.747  0.00  0.00     0.161 C 
HETATM    2  C   UNK N   1      21.473  17.981   6.298  0.00  0.00     0.032 C 
HETATM    3  C   UNK N   1      21.264  18.238   4.733  0.00  0.00     0.031 C 
HETATM    4  C   UNK N   1      20.340  17.209   3.956  0.00  0.00     0.134 C 
HETATM    5  C   UNK N   1      19.505  16.622   5.093  0.00  0.00     0.129 C 
HETATM    6  N   UNK N   1      20.535  15.818   5.720  0.00  0.00    -0.217 NA
HETATM    7  C   UNK N   1      21.300  15.336   4.749  0.00  0.00     0.325 C 
HETATM    8  O   UNK N   1      22.224  14.553   4.921  0.00  0.00    -0.251 OA
HETATM    9  N   UNK N   1      21.134  16.035   3.635  0.00  0.00    -0.187 N 
ENDROOT
BRANCH   1  10
HETATM   10  C   UNK N   1      20.766  16.105   8.117  0.00  0.00     0.254 C 
HETATM   11  N   UNK N   1      20.589  14.827   8.527  0.00  0.00    -0.266 N 
HETATM   12  H   UNK N   1      20.262  14.670   9.442  0.00  0.00     0.190 HD
HETATM   13  O   UNK N   1      20.490  17.007   8.891  0.00  0.00    -0.270 OA
BRANCH  11  14
HETATM   14  N   UNK N   1      20.843  13.742   7.728  0.00  0.00    -0.267 N 
HETATM   15  C   UNK N   1      21.767  12.816   8.083  0.00  0.00     0.241 C 
HETATM   16  O   UNK N   1      21.949  11.853   7.355  0.00  0.00    -0.271 OA
HETATM   17  H   UNK N   1      20.347  13.633   6.884  0.00  0.00     0.190 HD
BRANCH  15  18
HETATM   18  C   UNK N   1      22.566  12.964   9.364  0.00  0.00     0.097 C 
HETATM   19  C   UNK N   1      22.215  11.871  10.375  0.00  0.00     0.017 C 
HETATM   20  C   UNK N   1      23.017  12.071  11.652  0.00  0.00     0.020 C 
HETATM   21  C   UNK N   1      24.501  12.053  11.300  0.00  0.00     0.113 C 
HETATM   22  N   UNK N   1      24.811  13.135  10.366  0.00  0.00    -0.420 N 
HETATM   23  C   UNK N   1      24.081  12.924   9.116  0.00  0.00     0.127 C 
HETATM   24  H   UNK N   1      25.439  13.917  10.557  0.00  0.00     0.153 HD
ENDBRANCH  15  18
ENDBRANCH  11  14
ENDBRANCH   1  10
BRANCH   9  25
HETATM   25  O   UNK N   1      21.883  15.892   2.531  0.00  0.00    -0.132 OA
BRANCH  25  26
HETATM   26  S   UNK N   1      20.779  15.348   1.318  0.00  0.00     0.263 S 
HETATM   27  O   UNK N   1      21.444  14.241   0.485  0.00  0.00    -0.578 OA
HETATM   28  O   UNK N   1      20.508  16.483   0.320  0.00  0.00    -0.578 OA
BRANCH  26  29
HETATM   29  O   UNK N   1      19.273  14.766   1.910  0.00  0.00    -0.272 OA
HETATM   30  H   UNK N   1      18.536  14.162   2.090  0.00  0.00     0.234 HD
ENDBRANCH  26  29
ENDBRANCH  25  26
ENDBRANCH   9  25
TORSDOF 6
ENDMDL
MODEL 5
REMARK VINA RESULT:      -7.2      3.038      5.049
REMARK  6 active torsions:
REMARK  status: ('A' for Active; 'I' for Inactive)
REMARK    1  A    between atoms: C_3  and  C_7 
REMARK       I    between atoms: C_7  and  N_9 
REMARK    2  A    between atoms: N_9  and  N_10 
REMARK       I    between atoms: N_10  and  C_11 
REMARK    3  A    between atoms: C_13  and  C_11 
REMARK    4  A    between atoms: N_21  and  O_22 
REMARK    5  A    between atoms: O_22  and  S_23 
REMARK    6  A    between atoms: S_23  and  O_26 
ROOT
HETATM    1  C   UNK N   1      36.813  12.938  11.547  0.00  0.00     0.161 C 
HETATM    2  C   UNK N   1      37.693  11.726  12.034  0.00  0.00     0.032 C 
HETATM    3  C   UNK N   1      37.460  11.306  13.559  0.00  0.00     0.031 C 
HETATM    4  C   UNK N   1      36.055  11.673  14.196  0.00  0.00     0.134 C 
HETATM    5  C   UNK N   1      35.180  11.819  12.953  0.00  0.00     0.129 C 
HETATM    6  N   UNK N   1      35.717  13.072  12.459  0.00  0.00    -0.217 NA
HETATM    7  C   UNK N   1      36.005  13.816  13.519  0.00  0.00     0.325 C 
HETATM    8  O   UNK N   1      36.410  14.970  13.463  0.00  0.00    -0.251 OA
HETATM    9  N   UNK N   1      36.090  13.066  14.608  0.00  0.00    -0.187 N 
ENDROOT
BRANCH   1  10
HETATM   10  C   UNK N   1      36.347  13.085  10.117  0.00  0.00     0.254 C 
HETATM   11  N   UNK N   1      36.013  14.269   9.553  0.00  0.00    -0.266 N 
HETATM   12  H   UNK N   1      35.730  14.275   8.609  0.00  0.00     0.190 HD
HETATM   13  O   UNK N   1      36.259  12.073   9.441  0.00  0.00    -0.270 OA
BRANCH  11  14
HETATM   14  N   UNK N   1      36.050  15.460  10.231  0.00  0.00    -0.267 N 
HETATM   15  C   UNK N   1      35.316  16.522   9.816  0.00  0.00     0.241 C 
HETATM   16  O   UNK N   1      35.360  17.558  10.460  0.00  0.00    -0.271 OA
HETATM   17  H   UNK N   1      36.617  15.545  11.032  0.00  0.00     0.190 HD
BRANCH  15  18
HETATM   18  C   UNK N   1      34.449  16.433   8.575  0.00  0.00     0.097 C 
HETATM   19  C   UNK N   1      33.018  16.016   8.918  0.00  0.00     0.017 C 
HETATM   20  C   UNK N   1      32.191  15.914   7.645  0.00  0.00     0.020 C 
HETATM   21  C   UNK N   1      32.226  17.262   6.934  0.00  0.00     0.113 C 
HETATM   22  N   UNK N   1      33.603  17.611   6.583  0.00  0.00    -0.420 N 
HETATM   23  C   UNK N   1      34.395  17.760   7.805  0.00  0.00     0.127 C 
HETATM   24  H   UNK N   1      33.957  17.732   5.633  0.00  0.00     0.153 HD
ENDBRANCH  15  18
ENDBRANCH  11  14
ENDBRANCH   1  10
BRANCH   9  25
HETATM   25  O   UNK N   1      36.522  13.505  15.800  0.00  0.00    -0.132 OA
BRANCH  25  26
HETATM   26  S   UNK N   1      35.228  13.159  16.891  0.00  0.00     0.263 S 
HETATM   27  O   UNK N   1      33.886  13.361  16.170  0.00  0.00    -0.578 OA
HETATM   28  O   UNK N   1      35.222  14.188  18.030  0.00  0.00    -0.578 OA
BRANCH  26  29
HETATM   29  O   UNK N   1      35.254  11.582  17.577  0.00  0.00    -0.272 OA
HETATM   30  H   UNK N   1      35.334  10.875  18.236  0.00  0.00     0.234 HD
ENDBRANCH  26  29
ENDBRANCH  25  26
ENDBRANCH   9  25
TORSDOF 6
ENDMDL
MODEL 6
REMARK VINA RESULT:      -7.0      3.941      7.540
REMARK  6 active torsions:
REMARK  status: ('A' for Active; 'I' for Inactive)
REMARK    1  A    between atoms: C_3  and  C_7 
REMARK       I    between atoms: C_7  and  N_9 
REMARK    2  A    between atoms: N_9  and  N_10 
REMARK       I    between atoms: N_10  and  C_11 
REMARK    3  A    between atoms: C_13  and  C_11 
REMARK    4  A    between atoms: N_21  and  O_22 
REMARK    5  A    between atoms: O_22  and  S_23 
REMARK    6  A    between atoms: S_23  and  O_26 
ROOT
HETATM    1  C   UNK N   1      35.898  12.735   9.962  0.00  0.00     0.161 C 
HETATM    2  C   UNK N   1      35.081  12.030   8.815  0.00  0.00     0.032 C 
HETATM    3  C   UNK N   1      34.419  13.032   7.759  0.00  0.00     0.031 C 
HETATM    4  C   UNK N   1      35.102  14.453   7.594  0.00  0.00     0.134 C 
HETATM    5  C   UNK N   1      36.514  14.180   8.111  0.00  0.00     0.129 C 
HETATM    6  N   UNK N   1      36.206  14.062   9.522  0.00  0.00    -0.217 NA
HETATM    7  C   UNK N   1      35.245  14.938   9.785  0.00  0.00     0.325 C 
HETATM    8  O   UNK N   1      34.796  15.157  10.902  0.00  0.00    -0.251 OA
HETATM    9  N   UNK N   1      34.636  15.312   8.669  0.00  0.00    -0.187 N 
ENDROOT
BRANCH   1  10
HETATM   10  C   UNK N   1      37.096  12.093  10.623  0.00  0.00     0.254 C 
HETATM   11  N   UNK N   1      37.657  12.548  11.767  0.00  0.00    -0.266 N 
HETATM   12  H   UNK N   1      38.430  12.061  12.136  0.00  0.00     0.190 HD
HETATM   13  O   UNK N   1      37.585  11.114  10.083  0.00  0.00    -0.270 OA
BRANCH  11  14
HETATM   14  N   UNK N   1      37.202  13.654  12.438  0.00  0.00    -0.267 N 
HETATM   15  C   UNK N   1      36.475  13.529  13.575  0.00  0.00     0.241 C 
HETATM   16  O   UNK N   1      36.106  14.538  14.155  0.00  0.00    -0.271 OA
HETATM   17  H   UNK N   1      37.405  14.552  12.089  0.00  0.00     0.190 HD
BRANCH  15  18
HETATM   18  C   UNK N   1      36.123  12.161  14.129  0.00  0.00     0.097 C 
HETATM   19  C   UNK N   1      36.379  12.082  15.635  0.00  0.00     0.017 C 
HETATM   20  C   UNK N   1      36.038  10.689  16.144  0.00  0.00     0.020 C 
HETATM   21  C   UNK N   1      34.581  10.392  15.807  0.00  0.00     0.113 C 
HETATM   22  N   UNK N   1      34.380  10.434  14.359  0.00  0.00    -0.420 N 
HETATM   23  C   UNK N   1      34.658  11.784  13.867  0.00  0.00     0.127 C 
HETATM   24  H   UNK N   1      34.091   9.644  13.780  0.00  0.00     0.153 HD
ENDBRANCH  15  18
ENDBRANCH  11  14
ENDBRANCH   1  10
BRANCH   9  25
HETATM   25  O   UNK N   1      33.525  16.063   8.626  0.00  0.00    -0.132 OA
BRANCH  25  26
HETATM   26  S   UNK N   1      34.080  17.649   8.221  0.00  0.00     0.263 S 
HETATM   27  O   UNK N   1      32.893  18.624   8.242  0.00  0.00    -0.578 OA
HETATM   28  O   UNK N   1      34.580  17.667   6.770  0.00  0.00    -0.578 OA
BRANCH  26  29
HETATM   29  O   UNK N   1      35.322  18.268   9.237  0.00  0.00    -0.272 OA
HETATM   30  H   UNK N   1      35.784  18.561  10.038  0.00  0.00     0.234 HD
ENDBRANCH  26  29
ENDBRANCH  25  26
ENDBRANCH   9  25
TORSDOF 6
ENDMDL
MODEL 7
REMARK VINA RESULT:      -6.9      2.313      3.303
REMARK  6 active torsions:
REMARK  status: ('A' for Active; 'I' for Inactive)
REMARK    1  A    between atoms: C_3  and  C_7 
REMARK       I    between atoms: C_7  and  N_9 
REMARK    2  A    between atoms: N_9  and  N_10 
REMARK       I    between atoms: N_10  and  C_11 
REMARK    3  A    between atoms: C_13  and  C_11 
REMARK    4  A    between atoms: N_21  and  O_22 
REMARK    5  A    between atoms: O_22  and  S_23 
REMARK    6  A    between atoms: S_23  and  O_26 
ROOT
HETATM    1  C   UNK N   1      32.670  17.166   7.492  0.00  0.00     0.161 C 
HETATM    2  C   UNK N   1      33.790  18.150   7.998  0.00  0.00     0.032 C 
HETATM    3  C   UNK N   1      34.770  17.531   9.100  0.00  0.00     0.031 C 
HETATM    4  C   UNK N   1      34.927  15.953   9.113  0.00  0.00     0.134 C 
HETATM    5  C   UNK N   1      34.505  15.588   7.690  0.00  0.00     0.129 C 
HETATM    6  N   UNK N   1      33.083  15.834   7.821  0.00  0.00    -0.217 NA
HETATM    7  C   UNK N   1      32.734  15.465   9.046  0.00  0.00     0.325 C 
HETATM    8  O   UNK N   1      31.585  15.468   9.468  0.00  0.00    -0.251 OA
HETATM    9  N   UNK N   1      33.798  15.387   9.831  0.00  0.00    -0.187 N 
ENDROOT
BRANCH   1  10
HETATM   10  C   UNK N   1      32.104  17.225   6.092  0.00  0.00     0.254 C 
HETATM   11  N   UNK N   1      30.814  16.947   5.790  0.00  0.00    -0.266 N 
HETATM   12  H   UNK N   1      30.526  17.023   4.851  0.00  0.00     0.190 HD
HETATM   13  O   UNK N   1      32.860  17.535   5.186  0.00  0.00    -0.270 OA
BRANCH  11  14
HETATM   14  N   UNK N   1      29.890  16.564   6.728  0.00  0.00    -0.267 N 
HETATM   15  C   UNK N   1      28.763  17.290   6.933  0.00  0.00     0.241 C 
HETATM   16  O   UNK N   1      27.955  16.904   7.762  0.00  0.00    -0.271 OA
HETATM   17  H   UNK N   1      30.046  15.750   7.260  0.00  0.00     0.190 HD
BRANCH  15  18
HETATM   18  C   UNK N   1      28.501  18.561   6.147  0.00  0.00     0.097 C 
HETATM   19  C   UNK N   1      27.634  18.292   4.917  0.00  0.00     0.017 C 
HETATM   20  C   UNK N   1      27.417  19.585   4.145  0.00  0.00     0.020 C 
HETATM   21  C   UNK N   1      26.768  20.604   5.077  0.00  0.00     0.113 C 
HETATM   22  N   UNK N   1      27.641  20.869   6.220  0.00  0.00    -0.420 N 
HETATM   23  C   UNK N   1      27.815  19.641   6.996  0.00  0.00     0.127 C 
HETATM   24  H   UNK N   1      28.064  21.772   6.442  0.00  0.00     0.153 HD
ENDBRANCH  15  18
ENDBRANCH  11  14
ENDBRANCH   1  10
BRANCH   9  25
HETATM   25  O   UNK N   1      33.750  15.194  11.158  0.00  0.00    -0.132 OA
BRANCH  25  26
HETATM   26  S   UNK N   1      34.990  14.034  11.479  0.00  0.00     0.263 S 
HETATM   27  O   UNK N   1      34.934  12.924  10.419  0.00  0.00    -0.578 OA
HETATM   28  O   UNK N   1      34.702  13.324  12.809  0.00  0.00    -0.578 OA
BRANCH  26  29
HETATM   29  O   UNK N   1      36.587  14.669  11.531  0.00  0.00    -0.272 OA
HETATM   30  H   UNK N   1      37.511  14.834  11.288  0.00  0.00     0.234 HD
ENDBRANCH  26  29
ENDBRANCH  25  26
ENDBRANCH   9  25
TORSDOF 6
ENDMDL
MODEL 8
REMARK VINA RESULT:      -6.9     12.597     14.730
REMARK  6 active torsions:
REMARK  status: ('A' for Active; 'I' for Inactive)
REMARK    1  A    between atoms: C_3  and  C_7 
REMARK       I    between atoms: C_7  and  N_9 
REMARK    2  A    between atoms: N_9  and  N_10 
REMARK       I    between atoms: N_10  and  C_11 
REMARK    3  A    between atoms: C_13  and  C_11 
REMARK    4  A    between atoms: N_21  and  O_22 
REMARK    5  A    between atoms: O_22  and  S_23 
REMARK    6  A    between atoms: S_23  and  O_26 
ROOT
HETATM    1  C   UNK N   1      20.306  14.045   4.371  0.00  0.00     0.161 C 
HETATM    2  C   UNK N   1      19.839  13.797   2.888  0.00  0.00     0.032 C 
HETATM    3  C   UNK N   1      19.962  15.072   1.931  0.00  0.00     0.031 C 
HETATM    4  C   UNK N   1      21.033  16.170   2.334  0.00  0.00     0.134 C 
HETATM    5  C   UNK N   1      21.986  15.363   3.216  0.00  0.00     0.129 C 
HETATM    6  N   UNK N   1      21.130  15.216   4.376  0.00  0.00    -0.217 NA
HETATM    7  C   UNK N   1      20.438  16.342   4.496  0.00  0.00     0.325 C 
HETATM    8  O   UNK N   1      19.671  16.587   5.417  0.00  0.00    -0.251 OA
HETATM    9  N   UNK N   1      20.451  17.021   3.358  0.00  0.00    -0.187 N 
ENDROOT
BRANCH   1  10
HETATM   10  C   UNK N   1      20.909  12.957   5.228  0.00  0.00     0.254 C 
HETATM   11  N   UNK N   1      20.992  13.021   6.578  0.00  0.00    -0.266 N 
HETATM   12  H   UNK N   1      21.390  12.260   7.060  0.00  0.00     0.190 HD
HETATM   13  O   UNK N   1      21.354  11.970   4.665  0.00  0.00    -0.270 OA
BRANCH  11  14
HETATM   14  N   UNK N   1      20.547  14.094   7.306  0.00  0.00    -0.267 N 
HETATM   15  C   UNK N   1      20.777  14.176   8.639  0.00  0.00     0.241 C 
HETATM   16  O   UNK N   1      20.383  15.159   9.248  0.00  0.00    -0.271 OA
HETATM   17  H   UNK N   1      20.052  14.816   6.854  0.00  0.00     0.190 HD
BRANCH  15  18
HETATM   18  C   UNK N   1      21.515  13.072   9.372  0.00  0.00     0.097 C 
HETATM   19  C   UNK N   1      22.989  13.423   9.580  0.00  0.00     0.017 C 
HETATM   20  C   UNK N   1      23.696  12.281  10.294  0.00  0.00     0.020 C 
HETATM   21  C   UNK N   1      22.988  12.025  11.621  0.00  0.00     0.113 C 
HETATM   22  N   UNK N   1      21.594  11.651  11.384  0.00  0.00    -0.420 N 
HETATM   23  C   UNK N   1      20.893  12.763  10.741  0.00  0.00     0.127 C 
HETATM   24  H   UNK N   1      21.175  10.752  11.628  0.00  0.00     0.153 HD
ENDBRANCH  15  18
ENDBRANCH  11  14
ENDBRANCH   1  10
BRANCH   9  25
HETATM   25  O   UNK N   1      19.713  18.115   3.118  0.00  0.00    -0.132 OA
BRANCH  25  26
HETATM   26  S   UNK N   1      20.853  19.413   3.069  0.00  0.00     0.263 S 
HETATM   27  O   UNK N   1      20.292  20.613   3.848  0.00  0.00    -0.578 OA
HETATM   28  O   UNK N   1      21.003  19.916   1.626  0.00  0.00    -0.578 OA
BRANCH  26  29
HETATM   29  O   UNK N   1      22.414  19.037   3.684  0.00  0.00    -0.272 OA
HETATM   30  H   UNK N   1      23.152  18.948   4.307  0.00  0.00     0.234 HD
ENDBRANCH  26  29
ENDBRANCH  25  26
ENDBRANCH   9  25
TORSDOF 6
ENDMDL
MODEL 9
REMARK VINA RESULT:      -6.9     12.888     14.919
REMARK  6 active torsions:
REMARK  status: ('A' for Active; 'I' for Inactive)
REMARK    1  A    between atoms: C_3  and  C_7 
REMARK       I    between atoms: C_7  and  N_9 
REMARK    2  A    between atoms: N_9  and  N_10 
REMARK       I    between atoms: N_10  and  C_11 
REMARK    3  A    between atoms: C_13  and  C_11 
REMARK    4  A    between atoms: N_21  and  O_22 
REMARK    5  A    between atoms: O_22  and  S_23 
REMARK    6  A    between atoms: S_23  and  O_26 
ROOT
HETATM    1  C   UNK N   1      19.999  17.623   2.253  0.00  0.00     0.161 C 
HETATM    2  C   UNK N   1      20.386  19.125   2.521  0.00  0.00     0.032 C 
HETATM    3  C   UNK N   1      21.079  19.391   3.937  0.00  0.00     0.031 C 
HETATM    4  C   UNK N   1      21.831  18.166   4.607  0.00  0.00     0.134 C 
HETATM    5  C   UNK N   1      22.112  17.276   3.398  0.00  0.00     0.129 C 
HETATM    6  N   UNK N   1      20.761  16.812   3.155  0.00  0.00    -0.217 NA
HETATM    7  C   UNK N   1      20.182  16.661   4.340  0.00  0.00     0.325 C 
HETATM    8  O   UNK N   1      19.057  16.209   4.506  0.00  0.00    -0.251 OA
HETATM    9  N   UNK N   1      20.844  17.332   5.271  0.00  0.00    -0.187 N 
ENDROOT
BRANCH   1  10
HETATM   10  C   UNK N   1      19.982  17.019   0.868  0.00  0.00     0.254 C 
HETATM   11  N   UNK N   1      19.565  15.760   0.601  0.00  0.00    -0.266 N 
HETATM   12  H   UNK N   1      19.576  15.451  -0.334  0.00  0.00     0.190 HD
HETATM   13  O   UNK N   1      20.378  17.709  -0.057  0.00  0.00    -0.270 OA
BRANCH  11  14
HETATM   14  N   UNK N   1      19.126  14.894   1.570  0.00  0.00    -0.267 N 
HETATM   15  C   UNK N   1      19.753  13.712   1.784  0.00  0.00     0.241 C 
HETATM   16  O   UNK N   1      19.345  12.978   2.671  0.00  0.00    -0.271 OA
HETATM   17  H   UNK N   1      18.344  15.135   2.118  0.00  0.00     0.190 HD
BRANCH  15  18
HETATM   18  C   UNK N   1      20.946  13.298   0.942  0.00  0.00     0.097 C 
HETATM   19  C   UNK N   1      22.213  14.049   1.356  0.00  0.00     0.017 C 
HETATM   20  C   UNK N   1      23.376  13.625   0.473  0.00  0.00     0.020 C 
HETATM   21  C   UNK N   1      23.554  12.115   0.596  0.00  0.00     0.113 C 
HETATM   22  N   UNK N   1      22.342  11.427   0.153  0.00  0.00    -0.420 N 
HETATM   23  C   UNK N   1      21.227  11.791   1.029  0.00  0.00     0.127 C 
HETATM   24  H   UNK N   1      22.282  10.791  -0.643  0.00  0.00     0.153 HD
ENDBRANCH  15  18
ENDBRANCH  11  14
ENDBRANCH   1  10
BRANCH   9  25
HETATM   25  O   UNK N   1      20.416  17.503   6.531  0.00  0.00    -0.132 OA
BRANCH  25  26
HETATM   26  S   UNK N   1      20.899  16.064   7.359  0.00  0.00     0.263 S 
HETATM   27  O   UNK N   1      20.922  16.332   8.871  0.00  0.00    -0.578 OA
HETATM   28  O   UNK N   1      22.351  15.722   6.997  0.00  0.00    -0.578 OA
BRANCH  26  29
HETATM   29  O   UNK N   1      19.918  14.685   7.056  0.00  0.00    -0.272 OA
HETATM   30  H   UNK N   1      19.521  13.807   7.163  0.00  0.00     0.234 HD
ENDBRANCH  26  29
ENDBRANCH  25  26
ENDBRANCH   9  25
TORSDOF 6
ENDMDL
