REMARK  14 active torsions:
REMARK  status: ('A' for Active; 'I' for Inactive)
REMARK    1  A    between atoms: C_2  and  C_3 
REMARK    2  A    between atoms: C_2  and  N_10 
REMARK       I    between atoms: C_3  and  N_5 
REMARK    3  A    between atoms: N_5  and  C_6 
REMARK    4  A    between atoms: C_6  and  C_7 
REMARK       I    between atoms: C_7  and  N_9 
REMARK       I    between atoms: N_10  and  C_11 
REMARK    5  A    between atoms: C_11  and  C_13 
REMARK    6  A    between atoms: C_13  and  N_14 
REMARK       I    between atoms: N_14  and  C_15 
REMARK    7  A    between atoms: C_17  and  C_15 
REMARK    8  A    between atoms: C_19  and  O_44 
REMARK       I    between atoms: N_21  and  C_22 
REMARK    9  A    between atoms: C_24  and  C_22 
REMARK       I    between atoms: N_28  and  C_29 
REMARK   10  A    between atoms: C_29  and  C_31 
REMARK   11  A    between atoms: C_31  and  C_32 
REMARK   12  A    between atoms: C_31  and  N_40 
REMARK   13  A    between atoms: C_32  and  C_33 
REMARK   14  A    between atoms: C_36  and  O_39 
REMARK       I    between atoms: N_40  and  C_41 
ROOT
HETATM    1  C   UNK N   1       5.648   4.079  -0.549  0.00  0.00     0.181 C 
HETATM    2  C   UNK N   1       6.075   2.694  -0.078  0.00  0.00     0.068 C 
HETATM    3  C   UNK N   1       7.573   2.819   0.124  0.00  0.00     0.138 C 
HETATM    4  C   UNK N   1       7.765   4.246   0.593  0.00  0.00     0.158 C 
HETATM    5  N   UNK N   1       6.711   4.945  -0.092  0.00  0.00    -0.334 N 
HETATM    6  C   UNK N   1       6.756   6.287  -0.343  0.00  0.00     0.243 C 
HETATM    7  O   UNK N   1       5.882   6.800  -1.036  0.00  0.00    -0.271 OA
ENDROOT
BRANCH   1   8
HETATM    8  C   UNK N   1       4.299   4.426   0.053  0.00  0.00     0.241 C 
HETATM    9  N   UNK N   1       4.104   5.608   0.705  0.00  0.00    -0.351 N 
HETATM   10  H   UNK N   1       4.871   6.213   0.825  0.00  0.00     0.163 HD
HETATM   11  O   UNK N   1       3.368   3.647  -0.092  0.00  0.00    -0.271 OA
BRANCH   9  12
HETATM   12  C   UNK N   1       2.811   6.011   1.230  0.00  0.00     0.225 C 
BRANCH  12  13
HETATM   13  C   UNK N   1       1.773   6.126   0.144  0.00  0.00     0.236 C 
HETATM   14  N   UNK N   1       0.465   6.279   0.472  0.00  0.00    -0.347 N 
HETATM   15  H   UNK N   1       0.204   6.405   1.413  0.00  0.00     0.163 HD
HETATM   16  O   UNK N   1       2.103   6.028  -1.032  0.00  0.00    -0.272 OA
BRANCH  14  17
HETATM   17  C   UNK N   1      -0.546   6.258  -0.560  0.00  0.00     0.172 C 
HETATM   18  C   UNK N   1      -0.821   4.848  -1.058  0.00  0.00     0.042 C 
BRANCH  17  19
HETATM   19  C   UNK N   1      -1.764   7.096  -0.264  0.00  0.00     0.240 C 
HETATM   20  O   UNK N   1      -1.825   8.208  -0.758  0.00  0.00    -0.271 OA
HETATM   21  N   UNK N   1      -2.819   6.650   0.467  0.00  0.00    -0.351 N 
HETATM   22  H   UNK N   1      -3.571   7.269   0.610  0.00  0.00     0.163 HD
BRANCH  21  23
HETATM   23  C   UNK N   1      -2.912   5.334   1.049  0.00  0.00     0.225 C 
BRANCH  23  24
HETATM   24  C   UNK N   1      -3.829   4.477   0.228  0.00  0.00     0.233 C 
HETATM   25  O   UNK N   1      -4.960   4.855  -0.033  0.00  0.00    -0.272 OA
HETATM   26  N   UNK N   1      -3.402   3.283  -0.225  0.00  0.00    -0.369 N 
HETATM   27  H   UNK N   1      -4.002   2.576  -0.557  0.00  0.00     0.159 HD
HETATM   28  H   UNK N   1      -2.433   3.107  -0.225  0.00  0.00     0.159 HD
ENDBRANCH  23  24
ENDBRANCH  21  23
ENDBRANCH  17  19
ENDBRANCH  14  17
ENDBRANCH  12  13
ENDBRANCH   9  12
ENDBRANCH   1   8
BRANCH   6  29
HETATM   29  C   UNK N   1       7.856   7.162   0.232  0.00  0.00     0.179 C 
HETATM   30  C   UNK N   1       9.205   6.765  -0.349  0.00  0.00     0.037 C 
HETATM   31  C   UNK N   1       9.888   8.061  -0.764  0.00  0.00     0.022 C 
HETATM   32  C   UNK N   1       8.783   9.096  -0.880  0.00  0.00     0.127 C 
HETATM   33  N   UNK N   1       7.694   8.554  -0.122  0.00  0.00    -0.337 N 
HETATM   34  C   UNK N   1       6.632   9.311   0.310  0.00  0.00     0.243 C 
HETATM   35  O   UNK N   1       5.794   8.805   1.041  0.00  0.00    -0.271 OA
BRANCH  34  36
HETATM   36  C   UNK N   1       6.499  10.782  -0.079  0.00  0.00     0.181 C 
BRANCH  36  37
HETATM   37  C   UNK N   1       5.326  11.487   0.636  0.00  0.00     0.073 C 
BRANCH  37  38
HETATM   38  C   UNK N   1       3.903  11.182   0.254  0.00  0.00    -0.056 A 
HETATM   39  C   UNK N   1       3.483   9.907  -0.153  0.00  0.00     0.010 A 
HETATM   40  C   UNK N   1       2.121   9.643  -0.349  0.00  0.00     0.037 A 
HETATM   41  C   UNK N   1       1.175  10.649  -0.125  0.00  0.00     0.065 A 
HETATM   42  C   UNK N   1       1.589  11.921   0.272  0.00  0.00     0.037 A 
HETATM   43  C   UNK N   1       2.947  12.182   0.467  0.00  0.00     0.010 A 
BRANCH  41  44
HETATM   44  O   UNK N   1      -0.133  10.393  -0.281  0.00  0.00    -0.361 OA
HETATM   45  H   UNK N   1      -0.744  11.094  -0.390  0.00  0.00     0.217 HD
ENDBRANCH  41  44
ENDBRANCH  37  38
ENDBRANCH  36  37
BRANCH  36  46
HETATM   46  N   UNK N   1       7.724  11.461   0.295  0.00  0.00    -0.348 N 
HETATM   47  C   UNK N   1       8.009  12.753  -0.006  0.00  0.00     0.214 C 
HETATM   48  O   UNK N   1       9.076  13.226   0.349  0.00  0.00    -0.274 OA
HETATM   49  C   UNK N   1       7.050  13.615  -0.764  0.00  0.00     0.117 C 
HETATM   50  H   UNK N   1       8.395  10.949   0.801  0.00  0.00     0.163 HD
ENDBRANCH  36  46
ENDBRANCH  34  36
ENDBRANCH   6  29
BRANCH   3  51
HETATM   51  O   UNK N   1       8.029   1.904   1.071  0.00  0.00    -0.394 OA
HETATM   52  H   UNK N   1       7.636   1.311   1.730  0.00  0.00     0.210 HD
ENDBRANCH   3  51
TORSDOF 14
