MODEL 1
REMARK VINA RESULT:      -7.2      0.000      0.000
REMARK  9 active torsions:
REMARK  status: ('A' for Active; 'I' for Inactive)
REMARK    1  A    between atoms: C_3  and  C_23 
REMARK    2  A    between atoms: N_4  and  S_8 
REMARK    3  A    between atoms: S_8  and  C_11 
REMARK    4  A    between atoms: C_14  and  O_17 
REMARK    5  A    between atoms: O_17  and  C_18 
REMARK    6  A    between atoms: C_18  and  C_19 
REMARK    7  A    between atoms: C_20  and  C_21 
REMARK    8  A    between atoms: C_21  and  O_22 
REMARK       I    between atoms: C_23  and  N_25 
REMARK    9  A    between atoms: N_25  and  O_26 
ROOT
HETATM    1  S   UNK N   1      33.402  16.818   7.838  0.00  0.00     0.244 S 
HETATM    2  O   UNK N   1      33.538  17.925   8.898  0.00  0.00    -0.206 OA
HETATM    3  O   UNK N   1      34.570  17.188   6.907  0.00  0.00    -0.206 OA
ENDROOT
BRANCH   1   4
HETATM    4  N   UNK N   1      33.864  15.291   8.637  0.00  0.00    -0.191 NA
HETATM    5  C   UNK N   1      35.316  15.278   8.946  0.00  0.00     0.186 C 
HETATM    6  C   UNK N   1      35.990  13.879   8.713  0.00  0.00     0.026 C 
HETATM    7  C   UNK N   1      37.494  13.937   8.883  0.00  0.00     0.029 C 
HETATM    8  S   UNK N   1      35.760  13.241   7.002  0.00  0.00    -0.156 SA
HETATM    9  C   UNK N   1      35.462  12.848   9.698  0.00  0.00     0.029 C 
HETATM   10  C   UNK N   1      34.105  13.896   6.637  0.00  0.00     0.090 C 
HETATM   11  C   UNK N   1      33.334  14.130   7.914  0.00  0.00     0.118 C 
BRANCH   5  12
HETATM   12  C   UNK N   1      35.492  15.844  10.363  0.00  0.00     0.261 C 
HETATM   13  O   UNK N   1      36.546  16.396  10.648  0.00  0.00    -0.270 OA
HETATM   14  N   UNK N   1      34.549  15.723  11.336  0.00  0.00    -0.236 N 
HETATM   15  H   UNK N   1      34.714  16.155  12.205  0.00  0.00     0.197 HD
BRANCH  14  16
HETATM   16  O   UNK N   1      33.406  15.043  11.168  0.00  0.00    -0.287 OA
HETATM   17  H   UNK N   1      32.543  15.030  10.725  0.00  0.00     0.244 HD
ENDBRANCH  14  16
ENDBRANCH   5  12
ENDBRANCH   1   4
BRANCH   1  18
HETATM   18  C   UNK N   1      31.867  16.956   6.939  0.00  0.00     0.074 A 
HETATM   19  C   UNK N   1      30.659  17.024   7.636  0.00  0.00     0.027 A 
HETATM   20  C   UNK N   1      29.477  17.336   6.958  0.00  0.00     0.038 A 
HETATM   21  C   UNK N   1      29.504  17.588   5.579  0.00  0.00     0.070 A 
HETATM   22  C   UNK N   1      30.707  17.472   4.875  0.00  0.00     0.038 A 
HETATM   23  C   UNK N   1      31.889  17.167   5.555  0.00  0.00     0.027 A 
BRANCH  21  24
HETATM   24  O   UNK N   1      28.397  18.016   4.943  0.00  0.00    -0.340 OA
BRANCH  24  25
HETATM   25  C   UNK N   1      28.335  19.312   4.483  0.00  0.00     0.269 C 
BRANCH  25  26
HETATM   26  C   UNK N   1      27.617  20.161   5.443  0.00  0.00    -0.078 C 
HETATM   27  C   UNK N   1      27.008  20.852   6.224  0.00  0.00    -0.079 C 
BRANCH  27  28
HETATM   28  C   UNK N   1      26.247  21.702   7.137  0.00  0.00     0.257 C 
BRANCH  28  29
HETATM   29  O   UNK N   1      25.807  20.935   8.210  0.00  0.00    -0.389 OA
HETATM   30  H   UNK N   1      25.910  20.227   8.866  0.00  0.00     0.210 HD
ENDBRANCH  28  29
ENDBRANCH  27  28
ENDBRANCH  25  26
ENDBRANCH  24  25
ENDBRANCH  21  24
ENDBRANCH   1  18
TORSDOF 9
ENDMDL
MODEL 2
REMARK VINA RESULT:      -7.0      1.420      1.614
REMARK  9 active torsions:
REMARK  status: ('A' for Active; 'I' for Inactive)
REMARK    1  A    between atoms: C_3  and  C_23 
REMARK    2  A    between atoms: N_4  and  S_8 
REMARK    3  A    between atoms: S_8  and  C_11 
REMARK    4  A    between atoms: C_14  and  O_17 
REMARK    5  A    between atoms: O_17  and  C_18 
REMARK    6  A    between atoms: C_18  and  C_19 
REMARK    7  A    between atoms: C_20  and  C_21 
REMARK    8  A    between atoms: C_21  and  O_22 
REMARK       I    between atoms: C_23  and  N_25 
REMARK    9  A    between atoms: N_25  and  O_26 
ROOT
HETATM    1  S   UNK N   1      33.393  16.848   7.838  0.00  0.00     0.244 S 
HETATM    2  O   UNK N   1      33.519  17.944   8.910  0.00  0.00    -0.206 OA
HETATM    3  O   UNK N   1      34.592  17.206   6.942  0.00  0.00    -0.206 OA
ENDROOT
BRANCH   1   4
HETATM    4  N   UNK N   1      33.808  15.307   8.636  0.00  0.00    -0.191 NA
HETATM    5  C   UNK N   1      35.258  15.252   8.949  0.00  0.00     0.186 C 
HETATM    6  C   UNK N   1      35.892  13.834   8.716  0.00  0.00     0.026 C 
HETATM    7  C   UNK N   1      37.397  13.848   8.890  0.00  0.00     0.029 C 
HETATM    8  S   UNK N   1      35.648  13.205   7.004  0.00  0.00    -0.156 SA
HETATM    9  C   UNK N   1      35.332  12.818   9.698  0.00  0.00     0.029 C 
HETATM   10  C   UNK N   1      34.015  13.908   6.635  0.00  0.00     0.090 C 
HETATM   11  C   UNK N   1      33.246  14.163   7.910  0.00  0.00     0.118 C 
BRANCH   5  12
HETATM   12  C   UNK N   1      35.447  15.811  10.367  0.00  0.00     0.261 C 
HETATM   13  O   UNK N   1      36.504  16.361  10.645  0.00  0.00    -0.270 OA
HETATM   14  N   UNK N   1      34.512  15.685  11.348  0.00  0.00    -0.236 N 
HETATM   15  H   UNK N   1      34.685  16.113  12.218  0.00  0.00     0.197 HD
BRANCH  14  16
HETATM   16  O   UNK N   1      33.368  15.005  11.187  0.00  0.00    -0.287 OA
HETATM   17  H   UNK N   1      32.824  14.495  10.567  0.00  0.00     0.244 HD
ENDBRANCH  14  16
ENDBRANCH   5  12
ENDBRANCH   1   4
BRANCH   1  18
HETATM   18  C   UNK N   1      31.885  17.018   6.899  0.00  0.00     0.074 A 
HETATM   19  C   UNK N   1      30.672  17.210   7.564  0.00  0.00     0.027 A 
HETATM   20  C   UNK N   1      29.524  17.547   6.841  0.00  0.00     0.038 A 
HETATM   21  C   UNK N   1      29.590  17.700   5.449  0.00  0.00     0.070 A 
HETATM   22  C   UNK N   1      30.795  17.460   4.780  0.00  0.00     0.038 A 
HETATM   23  C   UNK N   1      31.944  17.130   5.505  0.00  0.00     0.027 A 
BRANCH  21  24
HETATM   24  O   UNK N   1      28.523  18.151   4.762  0.00  0.00    -0.340 OA
BRANCH  24  25
HETATM   25  C   UNK N   1      28.270  19.502   4.710  0.00  0.00     0.269 C 
BRANCH  25  26
HETATM   26  C   UNK N   1      26.903  19.748   4.230  0.00  0.00    -0.078 C 
HETATM   27  C   UNK N   1      25.782  19.933   3.822  0.00  0.00    -0.079 C 
BRANCH  27  28
HETATM   28  C   UNK N   1      24.439  20.155   3.289  0.00  0.00     0.257 C 
BRANCH  28  29
HETATM   29  O   UNK N   1      24.539  20.845   2.085  0.00  0.00    -0.389 OA
HETATM   30  H   UNK N   1      24.162  21.257   1.292  0.00  0.00     0.210 HD
ENDBRANCH  28  29
ENDBRANCH  27  28
ENDBRANCH  25  26
ENDBRANCH  24  25
ENDBRANCH  21  24
ENDBRANCH   1  18
TORSDOF 9
ENDMDL
MODEL 3
REMARK VINA RESULT:      -6.5     15.758     17.564
REMARK  9 active torsions:
REMARK  status: ('A' for Active; 'I' for Inactive)
REMARK    1  A    between atoms: C_3  and  C_23 
REMARK    2  A    between atoms: N_4  and  S_8 
REMARK    3  A    between atoms: S_8  and  C_11 
REMARK    4  A    between atoms: C_14  and  O_17 
REMARK    5  A    between atoms: O_17  and  C_18 
REMARK    6  A    between atoms: C_18  and  C_19 
REMARK    7  A    between atoms: C_20  and  C_21 
REMARK    8  A    between atoms: C_21  and  O_22 
REMARK       I    between atoms: C_23  and  N_25 
REMARK    9  A    between atoms: N_25  and  O_26 
ROOT
HETATM    1  S   UNK N   1      26.303  24.089  -6.885  0.00  0.00     0.244 S 
HETATM    2  O   UNK N   1      25.210  24.266  -7.953  0.00  0.00    -0.206 OA
HETATM    3  O   UNK N   1      25.729  22.893  -6.105  0.00  0.00    -0.206 OA
ENDROOT
BRANCH   1   4
HETATM    4  N   UNK N   1      27.751  23.485  -7.735  0.00  0.00    -0.191 NA
HETATM    5  C   UNK N   1      27.626  22.031  -8.014  0.00  0.00     0.186 C 
HETATM    6  C   UNK N   1      28.972  21.244  -7.823  0.00  0.00     0.026 C 
HETATM    7  C   UNK N   1      28.779  19.748  -7.958  0.00  0.00     0.029 C 
HETATM    8  S   UNK N   1      29.699  21.448  -6.145  0.00  0.00    -0.156 SA
HETATM    9  C   UNK N   1      30.001  21.664  -8.859  0.00  0.00     0.029 C 
HETATM   10  C   UNK N   1      29.202  23.159  -5.789  0.00  0.00     0.090 C 
HETATM   11  C   UNK N   1      28.982  23.926  -7.071  0.00  0.00     0.118 C 
BRANCH   5  12
HETATM   12  C   UNK N   1      26.988  21.879  -9.403  0.00  0.00     0.261 C 
HETATM   13  O   UNK N   1      27.672  22.109 -10.390  0.00  0.00    -0.270 OA
HETATM   14  N   UNK N   1      25.683  21.545  -9.590  0.00  0.00    -0.236 N 
HETATM   15  H   UNK N   1      25.360  21.418 -10.511  0.00  0.00     0.197 HD
BRANCH  14  16
HETATM   16  O   UNK N   1      24.817  21.380  -8.581  0.00  0.00    -0.287 OA
HETATM   17  H   UNK N   1      24.533  21.704  -7.711  0.00  0.00     0.244 HD
ENDBRANCH  14  16
ENDBRANCH   5  12
ENDBRANCH   1   4
BRANCH   1  18
HETATM   18  C   UNK N   1      26.398  25.505  -5.803  0.00  0.00     0.074 A 
HETATM   19  C   UNK N   1      26.282  26.792  -6.334  0.00  0.00     0.027 A 
HETATM   20  C   UNK N   1      26.150  27.891  -5.480  0.00  0.00     0.038 A 
HETATM   21  C   UNK N   1      26.128  27.702  -4.091  0.00  0.00     0.070 A 
HETATM   22  C   UNK N   1      26.293  26.418  -3.561  0.00  0.00     0.038 A 
HETATM   23  C   UNK N   1      26.417  25.320  -4.416  0.00  0.00     0.027 A 
BRANCH  21  24
HETATM   24  O   UNK N   1      25.871  28.736  -3.267  0.00  0.00    -0.340 OA
BRANCH  24  25
HETATM   25  C   UNK N   1      26.624  29.884  -3.362  0.00  0.00     0.269 C 
BRANCH  25  26
HETATM   26  C   UNK N   1      27.584  29.959  -2.252  0.00  0.00    -0.078 C 
HETATM   27  C   UNK N   1      28.361  30.006  -1.330  0.00  0.00    -0.079 C 
BRANCH  27  28
HETATM   28  C   UNK N   1      29.269  30.070  -0.186  0.00  0.00     0.257 C 
BRANCH  28  29
HETATM   29  O   UNK N   1      28.554  29.798   0.975  0.00  0.00    -0.389 OA
HETATM   30  H   UNK N   1      28.118  30.059   1.802  0.00  0.00     0.210 HD
ENDBRANCH  28  29
ENDBRANCH  27  28
ENDBRANCH  25  26
ENDBRANCH  24  25
ENDBRANCH  21  24
ENDBRANCH   1  18
TORSDOF 9
ENDMDL
MODEL 4
REMARK VINA RESULT:      -6.5      4.329      5.832
REMARK  9 active torsions:
REMARK  status: ('A' for Active; 'I' for Inactive)
REMARK    1  A    between atoms: C_3  and  C_23 
REMARK    2  A    between atoms: N_4  and  S_8 
REMARK    3  A    between atoms: S_8  and  C_11 
REMARK    4  A    between atoms: C_14  and  O_17 
REMARK    5  A    between atoms: O_17  and  C_18 
REMARK    6  A    between atoms: C_18  and  C_19 
REMARK    7  A    between atoms: C_20  and  C_21 
REMARK    8  A    between atoms: C_21  and  O_22 
REMARK       I    between atoms: C_23  and  N_25 
REMARK    9  A    between atoms: N_25  and  O_26 
ROOT
HETATM    1  S   UNK N   1      28.338  17.306   6.631  0.00  0.00     0.244 S 
HETATM    2  O   UNK N   1      27.997  17.106   8.117  0.00  0.00    -0.206 OA
HETATM    3  O   UNK N   1      28.875  18.748   6.667  0.00  0.00    -0.206 OA
ENDROOT
BRANCH   1   4
HETATM    4  N   UNK N   1      29.740  16.259   6.285  0.00  0.00    -0.191 NA
HETATM    5  C   UNK N   1      31.005  16.928   6.681  0.00  0.00     0.186 C 
HETATM    6  C   UNK N   1      32.183  16.678   5.672  0.00  0.00     0.026 C 
HETATM    7  C   UNK N   1      33.409  17.499   6.015  0.00  0.00     0.029 C 
HETATM    8  S   UNK N   1      31.779  17.181   3.949  0.00  0.00    -0.156 SA
HETATM    9  C   UNK N   1      32.601  15.217   5.674  0.00  0.00     0.029 C 
HETATM   10  C   UNK N   1      30.007  16.784   3.908  0.00  0.00     0.090 C 
HETATM   11  C   UNK N   1      29.679  15.717   4.924  0.00  0.00     0.118 C 
BRANCH   5  12
HETATM   12  C   UNK N   1      31.309  16.524   8.131  0.00  0.00     0.261 C 
HETATM   13  O   UNK N   1      31.720  15.393   8.351  0.00  0.00    -0.270 OA
HETATM   14  N   UNK N   1      31.100  17.349   9.193  0.00  0.00    -0.236 N 
HETATM   15  H   UNK N   1      31.365  17.036  10.088  0.00  0.00     0.197 HD
BRANCH  14  16
HETATM   16  O   UNK N   1      30.550  18.566   9.079  0.00  0.00    -0.287 OA
HETATM   17  H   UNK N   1      29.720  19.067   9.054  0.00  0.00     0.244 HD
ENDBRANCH  14  16
ENDBRANCH   5  12
ENDBRANCH   1   4
BRANCH   1  18
HETATM   18  C   UNK N   1      26.876  17.249   5.609  0.00  0.00     0.074 A 
HETATM   19  C   UNK N   1      25.947  16.220   5.785  0.00  0.00     0.027 A 
HETATM   20  C   UNK N   1      24.709  16.279   5.138  0.00  0.00     0.038 A 
HETATM   21  C   UNK N   1      24.396  17.372   4.318  0.00  0.00     0.070 A 
HETATM   22  C   UNK N   1      25.346  18.376   4.105  0.00  0.00     0.038 A 
HETATM   23  C   UNK N   1      26.580  18.320   4.758  0.00  0.00     0.027 A 
BRANCH  21  24
HETATM   24  O   UNK N   1      23.160  17.500   3.797  0.00  0.00    -0.340 OA
BRANCH  24  25
HETATM   25  C   UNK N   1      22.298  18.438   4.315  0.00  0.00     0.269 C 
BRANCH  25  26
HETATM   26  C   UNK N   1      21.730  19.261   3.239  0.00  0.00    -0.078 C 
HETATM   27  C   UNK N   1      21.280  19.952   2.356  0.00  0.00    -0.079 C 
BRANCH  27  28
HETATM   28  C   UNK N   1      20.737  20.822   1.315  0.00  0.00     0.257 C 
BRANCH  28  29
HETATM   29  O   UNK N   1      20.759  20.143   0.101  0.00  0.00    -0.389 OA
HETATM   30  H   UNK N   1      21.150  19.925  -0.760  0.00  0.00     0.210 HD
ENDBRANCH  28  29
ENDBRANCH  27  28
ENDBRANCH  25  26
ENDBRANCH  24  25
ENDBRANCH  21  24
ENDBRANCH   1  18
TORSDOF 9
ENDMDL
MODEL 5
REMARK VINA RESULT:      -6.4     12.900     16.809
REMARK  9 active torsions:
REMARK  status: ('A' for Active; 'I' for Inactive)
REMARK    1  A    between atoms: C_3  and  C_23 
REMARK    2  A    between atoms: N_4  and  S_8 
REMARK    3  A    between atoms: S_8  and  C_11 
REMARK    4  A    between atoms: C_14  and  O_17 
REMARK    5  A    between atoms: O_17  and  C_18 
REMARK    6  A    between atoms: C_18  and  C_19 
REMARK    7  A    between atoms: C_20  and  C_21 
REMARK    8  A    between atoms: C_21  and  O_22 
REMARK       I    between atoms: C_23  and  N_25 
REMARK    9  A    between atoms: N_25  and  O_26 
ROOT
HETATM    1  S   UNK N   1      27.817  25.331  -4.121  0.00  0.00     0.244 S 
HETATM    2  O   UNK N   1      26.580  25.234  -3.212  0.00  0.00    -0.206 OA
HETATM    3  O   UNK N   1      27.139  25.619  -5.472  0.00  0.00    -0.206 OA
ENDROOT
BRANCH   1   4
HETATM    4  N   UNK N   1      28.670  26.829  -3.660  0.00  0.00    -0.191 NA
HETATM    5  C   UNK N   1      27.995  28.017  -4.242  0.00  0.00     0.186 C 
HETATM    6  C   UNK N   1      28.997  29.114  -4.753  0.00  0.00     0.026 C 
HETATM    7  C   UNK N   1      28.288  30.236  -5.482  0.00  0.00     0.029 C 
HETATM    8  S   UNK N   1      30.203  28.474  -5.986  0.00  0.00    -0.156 SA
HETATM    9  C   UNK N   1      29.760  29.736  -3.595  0.00  0.00     0.029 C 
HETATM   10  C   UNK N   1      30.429  26.782  -5.364  0.00  0.00     0.090 C 
HETATM   11  C   UNK N   1      30.114  26.713  -3.889  0.00  0.00     0.118 C 
BRANCH   5  12
HETATM   12  C   UNK N   1      26.970  28.517  -3.214  0.00  0.00     0.261 C 
HETATM   13  O   UNK N   1      27.377  29.051  -2.191  0.00  0.00    -0.270 OA
HETATM   14  N   UNK N   1      25.627  28.355  -3.362  0.00  0.00    -0.236 N 
HETATM   15  H   UNK N   1      25.031  28.747  -2.684  0.00  0.00     0.197 HD
BRANCH  14  16
HETATM   16  O   UNK N   1      25.078  27.688  -4.387  0.00  0.00    -0.287 OA
HETATM   17  H   UNK N   1      25.011  27.623  -5.352  0.00  0.00     0.244 HD
ENDBRANCH  14  16
ENDBRANCH   5  12
ENDBRANCH   1   4
BRANCH   1  18
HETATM   18  C   UNK N   1      28.684  23.774  -4.217  0.00  0.00     0.074 A 
HETATM   19  C   UNK N   1      28.864  23.158  -5.458  0.00  0.00     0.027 A 
HETATM   20  C   UNK N   1      29.712  22.051  -5.571  0.00  0.00     0.038 A 
HETATM   21  C   UNK N   1      30.386  21.564  -4.443  0.00  0.00     0.070 A 
HETATM   22  C   UNK N   1      30.166  22.153  -3.194  0.00  0.00     0.038 A 
HETATM   23  C   UNK N   1      29.324  23.264  -3.083  0.00  0.00     0.027 A 
BRANCH  21  24
HETATM   24  O   UNK N   1      31.302  20.584  -4.567  0.00  0.00    -0.340 OA
BRANCH  24  25
HETATM   25  C   UNK N   1      32.590  20.799  -4.134  0.00  0.00     0.269 C 
BRANCH  25  26
HETATM   26  C   UNK N   1      33.343  19.537  -4.122  0.00  0.00    -0.078 C 
HETATM   27  C   UNK N   1      33.978  18.510  -4.122  0.00  0.00    -0.079 C 
BRANCH  27  28
HETATM   28  C   UNK N   1      34.754  17.272  -4.165  0.00  0.00     0.257 C 
BRANCH  28  29
HETATM   29  O   UNK N   1      34.288  16.412  -3.176  0.00  0.00    -0.389 OA
HETATM   30  H   UNK N   1      34.416  15.798  -2.436  0.00  0.00     0.210 HD
ENDBRANCH  28  29
ENDBRANCH  27  28
ENDBRANCH  25  26
ENDBRANCH  24  25
ENDBRANCH  21  24
ENDBRANCH   1  18
TORSDOF 9
ENDMDL
MODEL 6
REMARK VINA RESULT:      -6.4      3.822      6.117
REMARK  9 active torsions:
REMARK  status: ('A' for Active; 'I' for Inactive)
REMARK    1  A    between atoms: C_3  and  C_23 
REMARK    2  A    between atoms: N_4  and  S_8 
REMARK    3  A    between atoms: S_8  and  C_11 
REMARK    4  A    between atoms: C_14  and  O_17 
REMARK    5  A    between atoms: O_17  and  C_18 
REMARK    6  A    between atoms: C_18  and  C_19 
REMARK    7  A    between atoms: C_20  and  C_21 
REMARK    8  A    between atoms: C_21  and  O_22 
REMARK       I    between atoms: C_23  and  N_25 
REMARK    9  A    between atoms: N_25  and  O_26 
ROOT
HETATM    1  S   UNK N   1      35.966  14.004  11.826  0.00  0.00     0.244 S 
HETATM    2  O   UNK N   1      36.174  15.149  12.832  0.00  0.00    -0.206 OA
HETATM    3  O   UNK N   1      37.412  13.493  11.693  0.00  0.00    -0.206 OA
ENDROOT
BRANCH   1   4
HETATM    4  N   UNK N   1      35.062  12.729  12.686  0.00  0.00    -0.191 NA
HETATM    5  C   UNK N   1      35.835  12.235  13.854  0.00  0.00     0.186 C 
HETATM    6  C   UNK N   1      35.722  10.683  14.064  0.00  0.00     0.026 C 
HETATM    7  C   UNK N   1      36.642  10.189  15.161  0.00  0.00     0.029 C 
HETATM    8  S   UNK N   1      36.232   9.714  12.586  0.00  0.00    -0.156 SA
HETATM    9  C   UNK N   1      34.305  10.286  14.448  0.00  0.00     0.029 C 
HETATM   10  C   UNK N   1      35.675  10.830  11.265  0.00  0.00     0.090 C 
HETATM   11  C   UNK N   1      34.554  11.715  11.756  0.00  0.00     0.118 C 
BRANCH   5  12
HETATM   12  C   UNK N   1      35.421  13.077  15.072  0.00  0.00     0.261 C 
HETATM   13  O   UNK N   1      34.253  13.048  15.434  0.00  0.00    -0.270 OA
HETATM   14  N   UNK N   1      36.282  13.890  15.741  0.00  0.00    -0.236 N 
HETATM   15  H   UNK N   1      35.954  14.360  16.542  0.00  0.00     0.197 HD
BRANCH  14  16
HETATM   16  O   UNK N   1      37.553  14.083  15.363  0.00  0.00    -0.287 OA
HETATM   17  H   UNK N   1      38.430  14.389  15.641  0.00  0.00     0.244 HD
ENDBRANCH  14  16
ENDBRANCH   5  12
ENDBRANCH   1   4
BRANCH   1  18
HETATM   18  C   UNK N   1      35.411  14.615  10.244  0.00  0.00     0.074 A 
HETATM   19  C   UNK N   1      34.611  15.758  10.184  0.00  0.00     0.027 A 
HETATM   20  C   UNK N   1      34.341  16.359   8.951  0.00  0.00     0.038 A 
HETATM   21  C   UNK N   1      34.880  15.820   7.774  0.00  0.00     0.070 A 
HETATM   22  C   UNK N   1      35.642  14.648   7.832  0.00  0.00     0.038 A 
HETATM   23  C   UNK N   1      35.916  14.052   9.066  0.00  0.00     0.027 A 
BRANCH  21  24
HETATM   24  O   UNK N   1      34.735  16.465   6.601  0.00  0.00    -0.340 OA
BRANCH  24  25
HETATM   25  C   UNK N   1      33.887  17.546   6.520  0.00  0.00     0.269 C 
BRANCH  25  26
HETATM   26  C   UNK N   1      32.823  17.289   5.539  0.00  0.00    -0.078 C 
HETATM   27  C   UNK N   1      31.964  17.070   4.719  0.00  0.00    -0.079 C 
BRANCH  27  28
HETATM   28  C   UNK N   1      30.947  16.828   3.698  0.00  0.00     0.257 C 
BRANCH  28  29
HETATM   29  O   UNK N   1      31.445  17.220   2.461  0.00  0.00    -0.389 OA
HETATM   30  H   UNK N   1      31.640  17.073   1.521  0.00  0.00     0.210 HD
ENDBRANCH  28  29
ENDBRANCH  27  28
ENDBRANCH  25  26
ENDBRANCH  24  25
ENDBRANCH  21  24
ENDBRANCH   1  18
TORSDOF 9
ENDMDL
MODEL 7
REMARK VINA RESULT:      -6.4      3.592      8.851
REMARK  9 active torsions:
REMARK  status: ('A' for Active; 'I' for Inactive)
REMARK    1  A    between atoms: C_3  and  C_23 
REMARK    2  A    between atoms: N_4  and  S_8 
REMARK    3  A    between atoms: S_8  and  C_11 
REMARK    4  A    between atoms: C_14  and  O_17 
REMARK    5  A    between atoms: O_17  and  C_18 
REMARK    6  A    between atoms: C_18  and  C_19 
REMARK    7  A    between atoms: C_20  and  C_21 
REMARK    8  A    between atoms: C_21  and  O_22 
REMARK       I    between atoms: C_23  and  N_25 
REMARK    9  A    between atoms: N_25  and  O_26 
ROOT
HETATM    1  S   UNK N   1      35.189  15.234   9.554  0.00  0.00     0.244 S 
HETATM    2  O   UNK N   1      35.753  16.535  10.149  0.00  0.00    -0.206 OA
HETATM    3  O   UNK N   1      33.755  15.281  10.108  0.00  0.00    -0.206 OA
ENDROOT
BRANCH   1   4
HETATM    4  N   UNK N   1      35.054  15.495   7.794  0.00  0.00    -0.191 NA
HETATM    5  C   UNK N   1      33.686  15.946   7.435  0.00  0.00     0.186 C 
HETATM    6  C   UNK N   1      33.155  15.318   6.096  0.00  0.00     0.026 C 
HETATM    7  C   UNK N   1      31.705  15.670   5.839  0.00  0.00     0.029 C 
HETATM    8  S   UNK N   1      33.172  13.478   6.104  0.00  0.00    -0.156 SA
HETATM    9  C   UNK N   1      33.960  15.813   4.905  0.00  0.00     0.029 C 
HETATM   10  C   UNK N   1      34.652  13.177   7.114  0.00  0.00     0.090 C 
HETATM   11  C   UNK N   1      35.592  14.357   7.043  0.00  0.00     0.118 C 
BRANCH   5  12
HETATM   12  C   UNK N   1      33.682  17.482   7.466  0.00  0.00     0.261 C 
HETATM   13  O   UNK N   1      34.528  18.084   6.819  0.00  0.00    -0.270 OA
HETATM   14  N   UNK N   1      32.809  18.209   8.215  0.00  0.00    -0.236 N 
HETATM   15  H   UNK N   1      32.836  19.191   8.144  0.00  0.00     0.197 HD
BRANCH  14  16
HETATM   16  O   UNK N   1      31.915  17.653   9.044  0.00  0.00    -0.287 OA
HETATM   17  H   UNK N   1      31.491  16.826   9.322  0.00  0.00     0.244 HD
ENDBRANCH  14  16
ENDBRANCH   5  12
ENDBRANCH   1   4
BRANCH   1  18
HETATM   18  C   UNK N   1      36.025  13.798  10.207  0.00  0.00     0.074 A 
HETATM   19  C   UNK N   1      37.411  13.821  10.376  0.00  0.00     0.027 A 
HETATM   20  C   UNK N   1      38.048  12.788  11.071  0.00  0.00     0.038 A 
HETATM   21  C   UNK N   1      37.294  11.733  11.605  0.00  0.00     0.070 A 
HETATM   22  C   UNK N   1      35.913  11.688  11.393  0.00  0.00     0.038 A 
HETATM   23  C   UNK N   1      35.277  12.725  10.704  0.00  0.00     0.027 A 
BRANCH  21  24
HETATM   24  O   UNK N   1      37.881  10.805  12.386  0.00  0.00    -0.340 OA
BRANCH  24  25
HETATM   25  C   UNK N   1      37.357  10.534  13.630  0.00  0.00     0.269 C 
BRANCH  25  26
HETATM   26  C   UNK N   1      37.118  11.782  14.368  0.00  0.00    -0.078 C 
HETATM   27  C   UNK N   1      36.901  12.802  14.976  0.00  0.00    -0.079 C 
BRANCH  27  28
HETATM   28  C   UNK N   1      36.605  14.045  15.686  0.00  0.00     0.257 C 
BRANCH  28  29
HETATM   29  O   UNK N   1      37.726  14.867  15.646  0.00  0.00    -0.389 OA
HETATM   30  H   UNK N   1      38.650  15.079  15.855  0.00  0.00     0.210 HD
ENDBRANCH  28  29
ENDBRANCH  27  28
ENDBRANCH  25  26
ENDBRANCH  24  25
ENDBRANCH  21  24
ENDBRANCH   1  18
TORSDOF 9
ENDMDL
MODEL 8
REMARK VINA RESULT:      -6.3     14.674     17.516
REMARK  9 active torsions:
REMARK  status: ('A' for Active; 'I' for Inactive)
REMARK    1  A    between atoms: C_3  and  C_23 
REMARK    2  A    between atoms: N_4  and  S_8 
REMARK    3  A    between atoms: S_8  and  C_11 
REMARK    4  A    between atoms: C_14  and  O_17 
REMARK    5  A    between atoms: O_17  and  C_18 
REMARK    6  A    between atoms: C_18  and  C_19 
REMARK    7  A    between atoms: C_20  and  C_21 
REMARK    8  A    between atoms: C_21  and  O_22 
REMARK       I    between atoms: C_23  and  N_25 
REMARK    9  A    between atoms: N_25  and  O_26 
ROOT
HETATM    1  S   UNK N   1      29.374  27.884  -4.541  0.00  0.00     0.244 S 
HETATM    2  O   UNK N   1      30.034  29.038  -5.316  0.00  0.00    -0.206 OA
HETATM    3  O   UNK N   1      29.486  28.423  -3.104  0.00  0.00    -0.206 OA
ENDROOT
BRANCH   1   4
HETATM    4  N   UNK N   1      27.640  27.919  -4.955  0.00  0.00    -0.191 NA
HETATM    5  C   UNK N   1      27.044  26.564  -4.834  0.00  0.00     0.186 C 
HETATM    6  C   UNK N   1      26.003  26.239  -5.964  0.00  0.00     0.026 C 
HETATM    7  C   UNK N   1      25.533  24.800  -5.908  0.00  0.00     0.029 C 
HETATM    8  S   UNK N   1      26.698  26.413  -7.659  0.00  0.00    -0.156 SA
HETATM    9  C   UNK N   1      24.772  27.122  -5.844  0.00  0.00     0.029 C 
HETATM   10  C   UNK N   1      27.847  27.795  -7.393  0.00  0.00     0.090 C 
HETATM   11  C   UNK N   1      27.406  28.632  -6.215  0.00  0.00     0.118 C 
BRANCH   5  12
HETATM   12  C   UNK N   1      26.499  26.424  -3.404  0.00  0.00     0.261 C 
HETATM   13  O   UNK N   1      26.507  25.320  -2.879  0.00  0.00    -0.270 OA
HETATM   14  N   UNK N   1      25.964  27.463  -2.707  0.00  0.00    -0.236 N 
HETATM   15  H   UNK N   1      25.681  27.305  -1.777  0.00  0.00     0.197 HD
BRANCH  14  16
HETATM   16  O   UNK N   1      25.804  28.689  -3.224  0.00  0.00    -0.287 OA
HETATM   17  H   UNK N   1      25.978  29.261  -3.987  0.00  0.00     0.244 HD
ENDBRANCH  14  16
ENDBRANCH   5  12
ENDBRANCH   1   4
BRANCH   1  18
HETATM   18  C   UNK N   1      30.320  26.377  -4.679  0.00  0.00     0.074 A 
HETATM   19  C   UNK N   1      30.493  25.562  -3.557  0.00  0.00     0.027 A 
HETATM   20  C   UNK N   1      31.053  24.289  -3.698  0.00  0.00     0.038 A 
HETATM   21  C   UNK N   1      31.435  23.825  -4.965  0.00  0.00     0.070 A 
HETATM   22  C   UNK N   1      31.305  24.661  -6.079  0.00  0.00     0.038 A 
HETATM   23  C   UNK N   1      30.739  25.931  -5.938  0.00  0.00     0.027 A 
BRANCH  21  24
HETATM   24  O   UNK N   1      31.852  22.555  -5.128  0.00  0.00    -0.340 OA
BRANCH  24  25
HETATM   25  C   UNK N   1      31.060  21.518  -4.690  0.00  0.00     0.269 C 
BRANCH  25  26
HETATM   26  C   UNK N   1      30.380  20.879  -5.824  0.00  0.00    -0.078 C 
HETATM   27  C   UNK N   1      29.801  20.359  -6.747  0.00  0.00    -0.079 C 
BRANCH  27  28
HETATM   28  C   UNK N   1      29.078  19.705  -7.836  0.00  0.00     0.257 C 
BRANCH  28  29
HETATM   29  O   UNK N   1      29.253  18.329  -7.734  0.00  0.00    -0.389 OA
HETATM   30  H   UNK N   1      29.053  17.458  -7.355  0.00  0.00     0.210 HD
ENDBRANCH  28  29
ENDBRANCH  27  28
ENDBRANCH  25  26
ENDBRANCH  24  25
ENDBRANCH  21  24
ENDBRANCH   1  18
TORSDOF 9
ENDMDL
MODEL 9
REMARK VINA RESULT:      -6.2      8.330     11.527
REMARK  9 active torsions:
REMARK  status: ('A' for Active; 'I' for Inactive)
REMARK    1  A    between atoms: C_3  and  C_23 
REMARK    2  A    between atoms: N_4  and  S_8 
REMARK    3  A    between atoms: S_8  and  C_11 
REMARK    4  A    between atoms: C_14  and  O_17 
REMARK    5  A    between atoms: O_17  and  C_18 
REMARK    6  A    between atoms: C_18  and  C_19 
REMARK    7  A    between atoms: C_20  and  C_21 
REMARK    8  A    between atoms: C_21  and  O_22 
REMARK       I    between atoms: C_23  and  N_25 
REMARK    9  A    between atoms: N_25  and  O_26 
ROOT
HETATM    1  S   UNK N   1      21.473  18.473   5.014  0.00  0.00     0.244 S 
HETATM    2  O   UNK N   1      20.736  19.752   4.583  0.00  0.00    -0.206 OA
HETATM    3  O   UNK N   1      21.481  18.665   6.541  0.00  0.00    -0.206 OA
ENDROOT
BRANCH   1   4
HETATM    4  N   UNK N   1      20.366  17.113   4.687  0.00  0.00    -0.191 NA
HETATM    5  C   UNK N   1      21.024  15.816   4.989  0.00  0.00     0.186 C 
HETATM    6  C   UNK N   1      20.675  14.685   3.956  0.00  0.00     0.026 C 
HETATM    7  C   UNK N   1      21.481  13.426   4.198  0.00  0.00     0.029 C 
HETATM    8  S   UNK N   1      21.075  15.143   2.220  0.00  0.00    -0.156 SA
HETATM    9  C   UNK N   1      19.205  14.306   4.039  0.00  0.00     0.029 C 
HETATM   10  C   UNK N   1      20.727  16.925   2.271  0.00  0.00     0.090 C 
HETATM   11  C   UNK N   1      19.738  17.241   3.368  0.00  0.00     0.118 C 
BRANCH   5  12
HETATM   12  C   UNK N   1      20.707  15.466   6.451  0.00  0.00     0.261 C 
HETATM   13  O   UNK N   1      19.555  15.581   6.845  0.00  0.00    -0.270 OA
HETATM   14  N   UNK N   1      21.655  15.077   7.346  0.00  0.00    -0.236 N 
HETATM   15  H   UNK N   1      21.367  14.822   8.252  0.00  0.00     0.197 HD
BRANCH  14  16
HETATM   16  O   UNK N   1      22.962  15.024   7.052  0.00  0.00    -0.287 OA
HETATM   17  H   UNK N   1      23.822  14.654   7.306  0.00  0.00     0.244 HD
ENDBRANCH  14  16
ENDBRANCH   5  12
ENDBRANCH   1   4
BRANCH   1  18
HETATM   18  C   UNK N   1      23.154  18.452   4.415  0.00  0.00     0.074 A 
HETATM   19  C   UNK N   1      23.601  19.469   3.569  0.00  0.00     0.027 A 
HETATM   20  C   UNK N   1      24.961  19.575   3.261  0.00  0.00     0.038 A 
HETATM   21  C   UNK N   1      25.877  18.665   3.806  0.00  0.00     0.070 A 
HETATM   22  C   UNK N   1      25.421  17.619   4.614  0.00  0.00     0.038 A 
HETATM   23  C   UNK N   1      24.063  17.518   4.928  0.00  0.00     0.027 A 
BRANCH  21  24
HETATM   24  O   UNK N   1      27.200  18.837   3.620  0.00  0.00    -0.340 OA
BRANCH  24  25
HETATM   25  C   UNK N   1      28.013  19.080   4.704  0.00  0.00     0.269 C 
BRANCH  25  26
HETATM   26  C   UNK N   1      27.370  20.028   5.624  0.00  0.00    -0.078 C 
HETATM   27  C   UNK N   1      26.853  20.824   6.371  0.00  0.00    -0.079 C 
BRANCH  27  28
HETATM   28  C   UNK N   1      26.267  21.799   7.289  0.00  0.00     0.257 C 
BRANCH  28  29
HETATM   29  O   UNK N   1      25.713  21.126   8.372  0.00  0.00    -0.389 OA
HETATM   30  H   UNK N   1      24.963  20.822   8.909  0.00  0.00     0.210 HD
ENDBRANCH  28  29
ENDBRANCH  27  28
ENDBRANCH  25  26
ENDBRANCH  24  25
ENDBRANCH  21  24
ENDBRANCH   1  18
TORSDOF 9
ENDMDL
