MODEL 1
REMARK VINA RESULT:      -8.7      0.000      0.000
REMARK  7 active torsions:
REMARK  status: ('A' for Active; 'I' for Inactive)
REMARK    1  A    between atoms: C_4  and  C_7 
REMARK    2  A    between atoms: C_8  and  C_7 
REMARK    3  A    between atoms: C_13  and  C_19 
REMARK    4  A    between atoms: C_17  and  O_18 
REMARK    5  A    between atoms: C_21  and  C_28 
REMARK    6  A    between atoms: C_24  and  C_25 
REMARK    7  A    between atoms: C_25  and  O_27 
ROOT
HETATM    1  C   UNK N   1      35.904  13.812  11.039  0.00  0.00     0.048 C 
HETATM    2  C   UNK N   1      35.436  12.744  10.033  0.00  0.00     0.183 C 
HETATM    3  O   UNK N   1      34.563  13.280   9.082  0.00  0.00    -0.350 OA
HETATM    4  C   UNK N   1      34.347  14.618   8.940  0.00  0.00     0.078 A 
HETATM    5  C   UNK N   1      33.205  15.081   8.292  0.00  0.00     0.049 A 
HETATM    6  C   UNK N   1      32.893  16.457   8.262  0.00  0.00    -0.022 A 
HETATM    7  C   UNK N   1      33.783  17.355   8.864  0.00  0.00     0.013 A 
HETATM    8  C   UNK N   1      34.946  16.903   9.488  0.00  0.00     0.013 A 
HETATM    9  C   UNK N   1      35.233  15.535   9.520  0.00  0.00     0.004 A 
HETATM   10  C   UNK N   1      36.435  14.989  10.216  0.00  0.00     0.160 C 
ENDROOT
BRANCH   6  11
HETATM   11  C   UNK N   1      31.657  16.895   7.542  0.00  0.00    -0.008 A 
HETATM   12  C   UNK N   1      30.638  17.380   8.378  0.00  0.00     0.029 A 
HETATM   13  C   UNK N   1      29.404  17.793   7.893  0.00  0.00     0.048 A 
HETATM   14  C   UNK N   1      29.160  17.743   6.525  0.00  0.00     0.017 A 
HETATM   15  C   UNK N   1      30.150  17.287   5.658  0.00  0.00     0.020 A 
HETATM   16  C   UNK N   1      31.406  16.855   6.121  0.00  0.00     0.048 A 
BRANCH  13  17
HETATM   17  C   UNK N   1      28.342  18.266   8.840  0.00  0.00     0.417 C 
HETATM   18  F   UNK N   1      27.452  17.239   9.090  0.00  0.00    -0.166 F 
HETATM   19  F   UNK N   1      28.928  18.663  10.028  0.00  0.00    -0.166 F 
HETATM   20  F   UNK N   1      27.646  19.341   8.311  0.00  0.00    -0.166 F 
ENDBRANCH  13  17
BRANCH  16  21
HETATM   21  C   UNK N   1      32.372  16.458   5.046  0.00  0.00     0.177 C 
HETATM   22  O   UNK N   1      32.558  15.300   4.734  0.00  0.00    -0.646 OA
BRANCH  21  23
HETATM   23  O   UNK N   1      33.121  17.411   4.451  0.00  0.00    -0.773 OA
HETATM   24  H   UNK N   1      33.155  18.280   4.801  0.00  0.00     0.167 HD
ENDBRANCH  21  23
ENDBRANCH  16  21
ENDBRANCH   6  11
BRANCH  10  25
HETATM   25  O   UNK N   1      37.056  15.984  10.976  0.00  0.00    -0.390 OA
HETATM   26  H   UNK N   1      37.576  16.692  10.565  0.00  0.00     0.210 HD
ENDBRANCH  10  25
BRANCH   1  27
HETATM   27  C   UNK N   1      36.814  13.268  12.138  0.00  0.00     0.048 C 
BRANCH  27  28
HETATM   28  C   UNK N   1      36.010  13.095  13.388  0.00  0.00    -0.058 A 
HETATM   29  C   UNK N   1      34.964  12.168  13.412  0.00  0.00     0.007 A 
HETATM   30  C   UNK N   1      34.295  11.899  14.610  0.00  0.00     0.001 A 
HETATM   31  C   UNK N   1      34.682  12.541  15.790  0.00  0.00     0.000 A 
HETATM   32  C   UNK N   1      35.725  13.472  15.770  0.00  0.00     0.001 A 
HETATM   33  C   UNK N   1      36.389  13.750  14.572  0.00  0.00     0.007 A 
ENDBRANCH  27  28
ENDBRANCH   1  27
TORSDOF 7
ENDMDL
MODEL 2
REMARK VINA RESULT:      -8.5      2.554      3.176
REMARK  7 active torsions:
REMARK  status: ('A' for Active; 'I' for Inactive)
REMARK    1  A    between atoms: C_4  and  C_7 
REMARK    2  A    between atoms: C_8  and  C_7 
REMARK    3  A    between atoms: C_13  and  C_19 
REMARK    4  A    between atoms: C_17  and  O_18 
REMARK    5  A    between atoms: C_21  and  C_28 
REMARK    6  A    between atoms: C_24  and  C_25 
REMARK    7  A    between atoms: C_25  and  O_27 
ROOT
HETATM    1  C   UNK N   1      35.689  13.989  11.068  0.00  0.00     0.048 C 
HETATM    2  C   UNK N   1      35.183  12.871  10.138  0.00  0.00     0.183 C 
HETATM    3  O   UNK N   1      34.255  13.354   9.211  0.00  0.00    -0.350 OA
HETATM    4  C   UNK N   1      34.015  14.681   9.021  0.00  0.00     0.078 A 
HETATM    5  C   UNK N   1      32.835  15.102   8.414  0.00  0.00     0.049 A 
HETATM    6  C   UNK N   1      32.504  16.473   8.338  0.00  0.00    -0.022 A 
HETATM    7  C   UNK N   1      33.413  17.406   8.850  0.00  0.00     0.013 A 
HETATM    8  C   UNK N   1      34.613  16.996   9.432  0.00  0.00     0.013 A 
HETATM    9  C   UNK N   1      34.918  15.634   9.510  0.00  0.00     0.004 A 
HETATM   10  C   UNK N   1      36.162  15.133  10.166  0.00  0.00     0.160 C 
ENDROOT
BRANCH   6  11
HETATM   11  C   UNK N   1      31.227  16.864   7.665  0.00  0.00    -0.008 A 
HETATM   12  C   UNK N   1      31.206  16.637   6.279  0.00  0.00     0.029 A 
HETATM   13  C   UNK N   1      30.122  16.975   5.480  0.00  0.00     0.048 A 
HETATM   14  C   UNK N   1      29.000  17.551   6.065  0.00  0.00     0.017 A 
HETATM   15  C   UNK N   1      28.970  17.777   7.439  0.00  0.00     0.020 A 
HETATM   16  C   UNK N   1      30.056  17.452   8.272  0.00  0.00     0.048 A 
BRANCH  13  17
HETATM   17  C   UNK N   1      30.175  16.741   3.999  0.00  0.00     0.417 C 
HETATM   18  F   UNK N   1      29.026  17.232   3.410  0.00  0.00    -0.166 F 
HETATM   19  F   UNK N   1      31.275  17.392   3.470  0.00  0.00    -0.166 F 
HETATM   20  F   UNK N   1      30.282  15.390   3.712  0.00  0.00    -0.166 F 
ENDBRANCH  13  17
BRANCH  16  21
HETATM   21  C   UNK N   1      29.829  17.703   9.732  0.00  0.00     0.177 C 
HETATM   22  O   UNK N   1      29.677  18.819  10.184  0.00  0.00    -0.646 OA
BRANCH  21  23
HETATM   23  O   UNK N   1      29.867  16.662  10.591  0.00  0.00    -0.773 OA
HETATM   24  H   UNK N   1      30.088  16.794  11.493  0.00  0.00     0.167 HD
ENDBRANCH  21  23
ENDBRANCH  16  21
ENDBRANCH   6  11
BRANCH  10  25
HETATM   25  O   UNK N   1      36.809  16.168  10.847  0.00  0.00    -0.390 OA
HETATM   26  H   UNK N   1      37.754  16.347  10.725  0.00  0.00     0.210 HD
ENDBRANCH  10  25
BRANCH   1  27
HETATM   27  C   UNK N   1      36.662  13.505  12.142  0.00  0.00     0.048 C 
BRANCH  27  28
HETATM   28  C   UNK N   1      35.897  13.229  13.398  0.00  0.00    -0.058 A 
HETATM   29  C   UNK N   1      34.901  12.248  13.396  0.00  0.00     0.007 A 
HETATM   30  C   UNK N   1      34.275  11.885  14.592  0.00  0.00     0.001 A 
HETATM   31  C   UNK N   1      34.655  12.489  15.794  0.00  0.00     0.000 A 
HETATM   32  C   UNK N   1      35.647  13.473  15.800  0.00  0.00     0.001 A 
HETATM   33  C   UNK N   1      36.268  13.844  14.605  0.00  0.00     0.007 A 
ENDBRANCH  27  28
ENDBRANCH   1  27
TORSDOF 7
ENDMDL
MODEL 3
REMARK VINA RESULT:      -8.1      6.909     10.617
REMARK  7 active torsions:
REMARK  status: ('A' for Active; 'I' for Inactive)
REMARK    1  A    between atoms: C_4  and  C_7 
REMARK    2  A    between atoms: C_8  and  C_7 
REMARK    3  A    between atoms: C_13  and  C_19 
REMARK    4  A    between atoms: C_17  and  O_18 
REMARK    5  A    between atoms: C_21  and  C_28 
REMARK    6  A    between atoms: C_24  and  C_25 
REMARK    7  A    between atoms: C_25  and  O_27 
ROOT
HETATM    1  C   UNK N   1      28.244  17.581   4.884  0.00  0.00     0.048 C 
HETATM    2  C   UNK N   1      27.852  16.252   4.214  0.00  0.00     0.183 C 
HETATM    3  O   UNK N   1      26.538  16.284   3.737  0.00  0.00    -0.350 OA
HETATM    4  C   UNK N   1      25.796  17.425   3.677  0.00  0.00     0.078 A 
HETATM    5  C   UNK N   1      24.408  17.357   3.592  0.00  0.00     0.049 A 
HETATM    6  C   UNK N   1      23.616  18.523   3.674  0.00  0.00    -0.022 A 
HETATM    7  C   UNK N   1      24.261  19.759   3.799  0.00  0.00     0.013 A 
HETATM    8  C   UNK N   1      25.653  19.840   3.853  0.00  0.00     0.013 A 
HETATM    9  C   UNK N   1      26.421  18.674   3.784  0.00  0.00     0.004 A 
HETATM   10  C   UNK N   1      27.911  18.695   3.887  0.00  0.00     0.160 C 
ENDROOT
BRANCH   6  11
HETATM   11  C   UNK N   1      22.130  18.388   3.566  0.00  0.00    -0.008 A 
HETATM   12  C   UNK N   1      21.593  17.296   4.268  0.00  0.00     0.029 A 
HETATM   13  C   UNK N   1      20.239  16.987   4.252  0.00  0.00     0.048 A 
HETATM   14  C   UNK N   1      19.367  17.791   3.526  0.00  0.00     0.017 A 
HETATM   15  C   UNK N   1      19.854  18.895   2.831  0.00  0.00     0.020 A 
HETATM   16  C   UNK N   1      21.221  19.228   2.823  0.00  0.00     0.048 A 
BRANCH  13  17
HETATM   17  C   UNK N   1      19.732  15.785   4.992  0.00  0.00     0.417 C 
HETATM   18  F   UNK N   1      20.360  15.695   6.219  0.00  0.00    -0.166 F 
HETATM   19  F   UNK N   1      18.367  15.905   5.183  0.00  0.00    -0.166 F 
HETATM   20  F   UNK N   1      19.977  14.622   4.278  0.00  0.00    -0.166 F 
ENDBRANCH  13  17
BRANCH  16  21
HETATM   21  C   UNK N   1      21.560  20.483   2.077  0.00  0.00     0.177 C 
HETATM   22  O   UNK N   1      21.797  20.489   0.887  0.00  0.00    -0.646 OA
BRANCH  21  23
HETATM   23  O   UNK N   1      21.683  21.641   2.761  0.00  0.00    -0.773 OA
HETATM   24  H   UNK N   1      22.011  21.645   3.639  0.00  0.00     0.167 HD
ENDBRANCH  21  23
ENDBRANCH  16  21
ENDBRANCH   6  11
BRANCH  10  25
HETATM   25  O   UNK N   1      28.359  19.961   4.272  0.00  0.00    -0.390 OA
HETATM   26  H   UNK N   1      29.279  20.238   4.143  0.00  0.00     0.210 HD
ENDBRANCH  10  25
BRANCH   1  27
HETATM   27  C   UNK N   1      29.651  17.581   5.478  0.00  0.00     0.048 C 
BRANCH  27  28
HETATM   28  C   UNK N   1      29.546  17.687   6.967  0.00  0.00    -0.058 A 
HETATM   29  C   UNK N   1      30.669  17.422   7.757  0.00  0.00     0.007 A 
HETATM   30  C   UNK N   1      30.623  17.649   9.136  0.00  0.00     0.001 A 
HETATM   31  C   UNK N   1      29.462  18.157   9.725  0.00  0.00     0.000 A 
HETATM   32  C   UNK N   1      28.336  18.420   8.940  0.00  0.00     0.001 A 
HETATM   33  C   UNK N   1      28.376  18.185   7.564  0.00  0.00     0.007 A 
ENDBRANCH  27  28
ENDBRANCH   1  27
TORSDOF 7
ENDMDL
MODEL 4
REMARK VINA RESULT:      -8.1      4.029      8.785
REMARK  7 active torsions:
REMARK  status: ('A' for Active; 'I' for Inactive)
REMARK    1  A    between atoms: C_4  and  C_7 
REMARK    2  A    between atoms: C_8  and  C_7 
REMARK    3  A    between atoms: C_13  and  C_19 
REMARK    4  A    between atoms: C_17  and  O_18 
REMARK    5  A    between atoms: C_21  and  C_28 
REMARK    6  A    between atoms: C_24  and  C_25 
REMARK    7  A    between atoms: C_25  and  O_27 
ROOT
HETATM    1  C   UNK N   1      33.585  16.616   7.649  0.00  0.00     0.048 C 
HETATM    2  C   UNK N   1      32.462  15.661   8.092  0.00  0.00     0.183 C 
HETATM    3  O   UNK N   1      32.799  14.979   9.265  0.00  0.00    -0.350 OA
HETATM    4  C   UNK N   1      33.883  15.298  10.026  0.00  0.00     0.078 A 
HETATM    5  C   UNK N   1      34.407  14.375  10.925  0.00  0.00     0.049 A 
HETATM    6  C   UNK N   1      35.611  14.633  11.615  0.00  0.00    -0.022 A 
HETATM    7  C   UNK N   1      36.246  15.864  11.408  0.00  0.00     0.013 A 
HETATM    8  C   UNK N   1      35.711  16.809  10.534  0.00  0.00     0.013 A 
HETATM    9  C   UNK N   1      34.525  16.531   9.848  0.00  0.00     0.004 A 
HETATM   10  C   UNK N   1      33.932  17.483   8.863  0.00  0.00     0.160 C 
ENDROOT
BRANCH   6  11
HETATM   11  C   UNK N   1      36.121  13.606  12.576  0.00  0.00    -0.008 A 
HETATM   12  C   UNK N   1      35.573  13.693  13.866  0.00  0.00     0.029 A 
HETATM   13  C   UNK N   1      35.955  12.850  14.901  0.00  0.00     0.048 A 
HETATM   14  C   UNK N   1      36.908  11.867  14.661  0.00  0.00     0.017 A 
HETATM   15  C   UNK N   1      37.464  11.732  13.391  0.00  0.00     0.020 A 
HETATM   16  C   UNK N   1      37.102  12.576  12.325  0.00  0.00     0.048 A 
BRANCH  13  17
HETATM   17  C   UNK N   1      35.360  13.018  16.268  0.00  0.00     0.417 C 
HETATM   18  F   UNK N   1      35.962  14.084  16.909  0.00  0.00    -0.166 F 
HETATM   19  F   UNK N   1      34.003  13.260  16.153  0.00  0.00    -0.166 F 
HETATM   20  F   UNK N   1      35.542  11.877  17.033  0.00  0.00    -0.166 F 
ENDBRANCH  13  17
BRANCH  16  21
HETATM   21  C   UNK N   1      37.749  12.249  11.014  0.00  0.00     0.177 C 
HETATM   22  O   UNK N   1      38.531  13.001  10.469  0.00  0.00    -0.646 OA
BRANCH  21  23
HETATM   23  O   UNK N   1      37.399  11.114  10.372  0.00  0.00    -0.773 OA
HETATM   24  H   UNK N   1      36.599  10.673  10.583  0.00  0.00     0.167 HD
ENDBRANCH  21  23
ENDBRANCH  16  21
ENDBRANCH   6  11
BRANCH  10  25
HETATM   25  O   UNK N   1      34.824  18.523   8.587  0.00  0.00    -0.390 OA
HETATM   26  H   UNK N   1      35.730  18.524   8.934  0.00  0.00     0.210 HD
ENDBRANCH  10  25
BRANCH   1  27
HETATM   27  C   UNK N   1      33.296  17.343   6.337  0.00  0.00     0.048 C 
BRANCH  27  28
HETATM   28  C   UNK N   1      33.469  16.382   5.204  0.00  0.00    -0.058 A 
HETATM   29  C   UNK N   1      32.832  16.633   3.985  0.00  0.00     0.007 A 
HETATM   30  C   UNK N   1      33.094  15.819   2.878  0.00  0.00     0.001 A 
HETATM   31  C   UNK N   1      34.006  14.765   2.983  0.00  0.00     0.000 A 
HETATM   32  C   UNK N   1      34.642  14.508   4.201  0.00  0.00     0.001 A 
HETATM   33  C   UNK N   1      34.375  15.314   5.310  0.00  0.00     0.007 A 
ENDBRANCH  27  28
ENDBRANCH   1  27
TORSDOF 7
ENDMDL
MODEL 5
REMARK VINA RESULT:      -8.1     15.729     19.491
REMARK  7 active torsions:
REMARK  status: ('A' for Active; 'I' for Inactive)
REMARK    1  A    between atoms: C_4  and  C_7 
REMARK    2  A    between atoms: C_8  and  C_7 
REMARK    3  A    between atoms: C_13  and  C_19 
REMARK    4  A    between atoms: C_17  and  O_18 
REMARK    5  A    between atoms: C_21  and  C_28 
REMARK    6  A    between atoms: C_24  and  C_25 
REMARK    7  A    between atoms: C_25  and  O_27 
ROOT
HETATM    1  C   UNK N   1      26.168  26.401  -5.222  0.00  0.00     0.048 C 
HETATM    2  C   UNK N   1      25.661  25.594  -6.432  0.00  0.00     0.183 C 
HETATM    3  O   UNK N   1      26.361  24.393  -6.579  0.00  0.00    -0.350 OA
HETATM    4  C   UNK N   1      27.217  23.910  -5.635  0.00  0.00     0.078 A 
HETATM    5  C   UNK N   1      28.176  22.961  -5.977  0.00  0.00     0.049 A 
HETATM    6  C   UNK N   1      29.162  22.556  -5.050  0.00  0.00    -0.022 A 
HETATM    7  C   UNK N   1      29.126  23.100  -3.761  0.00  0.00     0.013 A 
HETATM    8  C   UNK N   1      28.149  24.027  -3.399  0.00  0.00     0.013 A 
HETATM    9  C   UNK N   1      27.188  24.427  -4.334  0.00  0.00     0.004 A 
HETATM   10  C   UNK N   1      26.150  25.452  -4.020  0.00  0.00     0.160 C 
ENDROOT
BRANCH   6  11
HETATM   11  C   UNK N   1      30.160  21.526  -5.472  0.00  0.00    -0.008 A 
HETATM   12  C   UNK N   1      29.750  20.725  -6.551  0.00  0.00     0.029 A 
HETATM   13  C   UNK N   1      30.528  19.691  -7.054  0.00  0.00     0.048 A 
HETATM   14  C   UNK N   1      31.770  19.434  -6.485  0.00  0.00     0.017 A 
HETATM   15  C   UNK N   1      32.225  20.216  -5.426  0.00  0.00     0.020 A 
HETATM   16  C   UNK N   1      31.457  21.266  -4.891  0.00  0.00     0.048 A 
BRANCH  13  17
HETATM   17  C   UNK N   1      30.018  18.846  -8.184  0.00  0.00     0.417 C 
HETATM   18  F   UNK N   1      29.435  19.654  -9.142  0.00  0.00    -0.166 F 
HETATM   19  F   UNK N   1      31.071  18.151  -8.750  0.00  0.00    -0.166 F 
HETATM   20  F   UNK N   1      29.076  17.933  -7.737  0.00  0.00    -0.166 F 
ENDBRANCH  13  17
BRANCH  16  21
HETATM   21  C   UNK N   1      32.125  22.044  -3.798  0.00  0.00     0.177 C 
HETATM   22  O   UNK N   1      32.713  23.085  -4.006  0.00  0.00    -0.646 OA
BRANCH  21  23
HETATM   23  O   UNK N   1      32.143  21.537  -2.546  0.00  0.00    -0.773 OA
HETATM   24  H   UNK N   1      32.430  20.658  -2.391  0.00  0.00     0.167 HD
ENDBRANCH  21  23
ENDBRANCH  16  21
ENDBRANCH   6  11
BRANCH  10  25
HETATM   25  O   UNK N   1      26.425  26.072  -2.798  0.00  0.00    -0.390 OA
HETATM   26  H   UNK N   1      25.913  25.875  -1.998  0.00  0.00     0.210 HD
ENDBRANCH  10  25
BRANCH   1  27
HETATM   27  C   UNK N   1      25.479  27.753  -5.049  0.00  0.00     0.048 C 
BRANCH  27  28
HETATM   28  C   UNK N   1      26.521  28.826  -5.017  0.00  0.00    -0.058 A 
HETATM   29  C   UNK N   1      27.507  28.858  -6.007  0.00  0.00     0.007 A 
HETATM   30  C   UNK N   1      28.403  29.931  -6.068  0.00  0.00     0.001 A 
HETATM   31  C   UNK N   1      28.303  30.980  -5.150  0.00  0.00     0.000 A 
HETATM   32  C   UNK N   1      27.321  30.950  -4.155  0.00  0.00     0.001 A 
HETATM   33  C   UNK N   1      26.431  29.876  -4.087  0.00  0.00     0.007 A 
ENDBRANCH  27  28
ENDBRANCH   1  27
TORSDOF 7
ENDMDL
MODEL 6
REMARK VINA RESULT:      -8.0      3.604      8.546
REMARK  7 active torsions:
REMARK  status: ('A' for Active; 'I' for Inactive)
REMARK    1  A    between atoms: C_4  and  C_7 
REMARK    2  A    between atoms: C_8  and  C_7 
REMARK    3  A    between atoms: C_13  and  C_19 
REMARK    4  A    between atoms: C_17  and  O_18 
REMARK    5  A    between atoms: C_21  and  C_28 
REMARK    6  A    between atoms: C_24  and  C_25 
REMARK    7  A    between atoms: C_25  and  O_27 
ROOT
HETATM    1  C   UNK N   1      32.961  16.742   7.988  0.00  0.00     0.048 C 
HETATM    2  C   UNK N   1      34.174  17.546   8.494  0.00  0.00     0.183 C 
HETATM    3  O   UNK N   1      35.006  16.767   9.303  0.00  0.00    -0.350 OA
HETATM    4  C   UNK N   1      34.870  15.417   9.430  0.00  0.00     0.078 A 
HETATM    5  C   UNK N   1      35.424  14.754  10.520  0.00  0.00     0.049 A 
HETATM    6  C   UNK N   1      35.172  13.382  10.744  0.00  0.00    -0.022 A 
HETATM    7  C   UNK N   1      34.384  12.691   9.816  0.00  0.00     0.013 A 
HETATM    8  C   UNK N   1      33.850  13.340   8.703  0.00  0.00     0.013 A 
HETATM    9  C   UNK N   1      34.099  14.701   8.504  0.00  0.00     0.004 A 
HETATM   10  C   UNK N   1      33.513  15.459   7.359  0.00  0.00     0.160 C 
ENDROOT
BRANCH   6  11
HETATM   11  C   UNK N   1      35.804  12.722  11.927  0.00  0.00    -0.008 A 
HETATM   12  C   UNK N   1      34.938  12.525  13.015  0.00  0.00     0.029 A 
HETATM   13  C   UNK N   1      35.356  11.964  14.214  0.00  0.00     0.048 A 
HETATM   14  C   UNK N   1      36.681  11.565  14.354  0.00  0.00     0.017 A 
HETATM   15  C   UNK N   1      37.570  11.724  13.293  0.00  0.00     0.020 A 
HETATM   16  C   UNK N   1      37.177  12.296  12.070  0.00  0.00     0.048 A 
BRANCH  13  17
HETATM   17  C   UNK N   1      34.391  11.814  15.353  0.00  0.00     0.417 C 
HETATM   18  F   UNK N   1      34.027  13.062  15.822  0.00  0.00    -0.166 F 
HETATM   19  F   UNK N   1      33.264  11.143  14.915  0.00  0.00    -0.166 F 
HETATM   20  F   UNK N   1      34.957  11.094  16.393  0.00  0.00    -0.166 F 
ENDBRANCH  13  17
BRANCH  16  21
HETATM   21  C   UNK N   1      38.244  12.332  11.018  0.00  0.00     0.177 C 
HETATM   22  O   UNK N   1      38.494  11.378  10.311  0.00  0.00    -0.646 OA
BRANCH  21  23
HETATM   23  O   UNK N   1      39.010  13.438  10.897  0.00  0.00    -0.773 OA
HETATM   24  H   UNK N   1      38.862  14.184  11.445  0.00  0.00     0.167 HD
ENDBRANCH  21  23
ENDBRANCH  16  21
ENDBRANCH   6  11
BRANCH  10  25
HETATM   25  O   UNK N   1      32.554  14.688   6.699  0.00  0.00    -0.390 OA
HETATM   26  H   UNK N   1      32.044  14.002   7.159  0.00  0.00     0.210 HD
ENDBRANCH  10  25
BRANCH   1  27
HETATM   27  C   UNK N   1      31.986  17.562   7.147  0.00  0.00     0.048 C 
BRANCH  27  28
HETATM   28  C   UNK N   1      30.668  17.619   7.854  0.00  0.00    -0.058 A 
HETATM   29  C   UNK N   1      30.564  18.312   9.063  0.00  0.00     0.007 A 
HETATM   30  C   UNK N   1      29.313  18.488   9.663  0.00  0.00     0.001 A 
HETATM   31  C   UNK N   1      28.163  17.987   9.046  0.00  0.00     0.000 A 
HETATM   32  C   UNK N   1      28.263  17.289   7.839  0.00  0.00     0.001 A 
HETATM   33  C   UNK N   1      29.512  17.104   7.242  0.00  0.00     0.007 A 
ENDBRANCH  27  28
ENDBRANCH   1  27
TORSDOF 7
ENDMDL
MODEL 7
REMARK VINA RESULT:      -8.0      5.925     11.143
REMARK  7 active torsions:
REMARK  status: ('A' for Active; 'I' for Inactive)
REMARK    1  A    between atoms: C_4  and  C_7 
REMARK    2  A    between atoms: C_8  and  C_7 
REMARK    3  A    between atoms: C_13  and  C_19 
REMARK    4  A    between atoms: C_17  and  O_18 
REMARK    5  A    between atoms: C_21  and  C_28 
REMARK    6  A    between atoms: C_24  and  C_25 
REMARK    7  A    between atoms: C_25  and  O_27 
ROOT
HETATM    1  C   UNK N   1      23.662  17.514   4.139  0.00  0.00     0.048 C 
HETATM    2  C   UNK N   1      24.210  18.937   3.929  0.00  0.00     0.183 C 
HETATM    3  O   UNK N   1      25.539  19.043   4.349  0.00  0.00    -0.350 OA
HETATM    4  C   UNK N   1      26.303  17.965   4.682  0.00  0.00     0.078 A 
HETATM    5  C   UNK N   1      27.444  18.126   5.462  0.00  0.00     0.049 A 
HETATM    6  C   UNK N   1      28.165  17.009   5.937  0.00  0.00    -0.022 A 
HETATM    7  C   UNK N   1      27.731  15.730   5.566  0.00  0.00     0.013 A 
HETATM    8  C   UNK N   1      26.607  15.560   4.758  0.00  0.00     0.013 A 
HETATM    9  C   UNK N   1      25.898  16.677   4.308  0.00  0.00     0.004 A 
HETATM   10  C   UNK N   1      24.659  16.555   3.482  0.00  0.00     0.160 C 
ENDROOT
BRANCH   6  11
HETATM   11  C   UNK N   1      29.389  17.246   6.764  0.00  0.00    -0.008 A 
HETATM   12  C   UNK N   1      30.597  17.173   6.050  0.00  0.00     0.029 A 
HETATM   13  C   UNK N   1      31.836  17.325   6.657  0.00  0.00     0.048 A 
HETATM   14  C   UNK N   1      31.899  17.573   8.024  0.00  0.00     0.017 A 
HETATM   15  C   UNK N   1      30.724  17.671   8.767  0.00  0.00     0.020 A 
HETATM   16  C   UNK N   1      29.455  17.515   8.181  0.00  0.00     0.048 A 
BRANCH  13  17
HETATM   17  C   UNK N   1      33.092  17.199   5.847  0.00  0.00     0.417 C 
HETATM   18  F   UNK N   1      32.951  17.893   4.660  0.00  0.00    -0.166 F 
HETATM   19  F   UNK N   1      34.154  17.724   6.561  0.00  0.00    -0.166 F 
HETATM   20  F   UNK N   1      33.367  15.872   5.559  0.00  0.00    -0.166 F 
ENDBRANCH  13  17
BRANCH  16  21
HETATM   21  C   UNK N   1      28.300  17.716   9.114  0.00  0.00     0.177 C 
HETATM   22  O   UNK N   1      27.962  16.875   9.922  0.00  0.00    -0.646 OA
BRANCH  21  23
HETATM   23  O   UNK N   1      27.558  18.839   9.008  0.00  0.00    -0.773 OA
HETATM   24  H   UNK N   1      27.559  19.340   8.216  0.00  0.00     0.167 HD
ENDBRANCH  21  23
ENDBRANCH  16  21
ENDBRANCH   6  11
BRANCH  10  25
HETATM   25  O   UNK N   1      24.230  15.226   3.436  0.00  0.00    -0.390 OA
HETATM   26  H   UNK N   1      24.341  14.681   2.641  0.00  0.00     0.210 HD
ENDBRANCH  10  25
BRANCH   1  27
HETATM   27  C   UNK N   1      22.192  17.356   3.753  0.00  0.00     0.048 C 
BRANCH  27  28
HETATM   28  C   UNK N   1      21.424  16.900   4.953  0.00  0.00    -0.058 A 
HETATM   29  C   UNK N   1      20.082  16.535   4.815  0.00  0.00     0.007 A 
HETATM   30  C   UNK N   1      19.393  15.979   5.897  0.00  0.00     0.001 A 
HETATM   31  C   UNK N   1      20.049  15.771   7.114  0.00  0.00     0.000 A 
HETATM   32  C   UNK N   1      21.390  16.139   7.259  0.00  0.00     0.001 A 
HETATM   33  C   UNK N   1      22.078  16.702   6.182  0.00  0.00     0.007 A 
ENDBRANCH  27  28
ENDBRANCH   1  27
TORSDOF 7
ENDMDL
MODEL 8
REMARK VINA RESULT:      -7.8      6.227     11.638
REMARK  7 active torsions:
REMARK  status: ('A' for Active; 'I' for Inactive)
REMARK    1  A    between atoms: C_4  and  C_7 
REMARK    2  A    between atoms: C_8  and  C_7 
REMARK    3  A    between atoms: C_13  and  C_19 
REMARK    4  A    between atoms: C_17  and  O_18 
REMARK    5  A    between atoms: C_21  and  C_28 
REMARK    6  A    between atoms: C_24  and  C_25 
REMARK    7  A    between atoms: C_25  and  O_27 
ROOT
HETATM    1  C   UNK N   1      23.293  15.958   3.880  0.00  0.00     0.048 C 
HETATM    2  C   UNK N   1      23.386  14.932   5.025  0.00  0.00     0.183 C 
HETATM    3  O   UNK N   1      24.500  15.167   5.836  0.00  0.00    -0.350 OA
HETATM    4  C   UNK N   1      25.262  16.293   5.747  0.00  0.00     0.078 A 
HETATM    5  C   UNK N   1      26.555  16.309   6.260  0.00  0.00     0.049 A 
HETATM    6  C   UNK N   1      27.408  17.414   6.051  0.00  0.00    -0.022 A 
HETATM    7  C   UNK N   1      26.907  18.518   5.350  0.00  0.00     0.013 A 
HETATM    8  C   UNK N   1      25.601  18.525   4.860  0.00  0.00     0.013 A 
HETATM    9  C   UNK N   1      24.775  17.416   5.065  0.00  0.00     0.004 A 
HETATM   10  C   UNK N   1      23.386  17.346   4.521  0.00  0.00     0.160 C 
ENDROOT
BRANCH   6  11
HETATM   11  C   UNK N   1      28.785  17.377   6.634  0.00  0.00    -0.008 A 
HETATM   12  C   UNK N   1      29.818  17.322   5.685  0.00  0.00     0.029 A 
HETATM   13  C   UNK N   1      31.158  17.241   6.039  0.00  0.00     0.048 A 
HETATM   14  C   UNK N   1      31.506  17.226   7.385  0.00  0.00     0.017 A 
HETATM   15  C   UNK N   1      30.515  17.299   8.361  0.00  0.00     0.020 A 
HETATM   16  C   UNK N   1      29.149  17.374   8.032  0.00  0.00     0.048 A 
BRANCH  13  17
HETATM   17  C   UNK N   1      32.214  17.146   4.977  0.00  0.00     0.417 C 
HETATM   18  F   UNK N   1      32.323  15.838   4.546  0.00  0.00    -0.166 F 
HETATM   19  F   UNK N   1      31.866  17.953   3.910  0.00  0.00    -0.166 F 
HETATM   20  F   UNK N   1      33.445  17.561   5.461  0.00  0.00    -0.166 F 
ENDBRANCH  13  17
BRANCH  16  21
HETATM   21  C   UNK N   1      28.224  17.511   9.203  0.00  0.00     0.177 C 
HETATM   22  O   UNK N   1      28.135  16.660  10.065  0.00  0.00    -0.646 OA
BRANCH  21  23
HETATM   23  O   UNK N   1      27.403  18.580   9.271  0.00  0.00    -0.773 OA
HETATM   24  H   UNK N   1      26.794  18.760   8.581  0.00  0.00     0.167 HD
ENDBRANCH  21  23
ENDBRANCH  16  21
ENDBRANCH   6  11
BRANCH  10  25
HETATM   25  O   UNK N   1      23.152  18.401   3.637  0.00  0.00    -0.390 OA
HETATM   26  H   UNK N   1      22.264  18.596   3.297  0.00  0.00     0.210 HD
ENDBRANCH  10  25
BRANCH   1  27
HETATM   27  C   UNK N   1      22.126  15.713   2.925  0.00  0.00     0.048 C 
BRANCH  27  28
HETATM   28  C   UNK N   1      22.502  14.622   1.973  0.00  0.00    -0.058 A 
HETATM   29  C   UNK N   1      21.516  13.757   1.491  0.00  0.00     0.007 A 
HETATM   30  C   UNK N   1      21.828  12.823   0.498  0.00  0.00     0.001 A 
HETATM   31  C   UNK N   1      23.122  12.764  -0.027  0.00  0.00     0.000 A 
HETATM   32  C   UNK N   1      24.113  13.624   0.455  0.00  0.00     0.001 A 
HETATM   33  C   UNK N   1      23.806  14.552   1.453  0.00  0.00     0.007 A 
ENDBRANCH  27  28
ENDBRANCH   1  27
TORSDOF 7
ENDMDL
MODEL 9
REMARK VINA RESULT:      -7.6      6.218     12.043
REMARK  7 active torsions:
REMARK  status: ('A' for Active; 'I' for Inactive)
REMARK    1  A    between atoms: C_4  and  C_7 
REMARK    2  A    between atoms: C_8  and  C_7 
REMARK    3  A    between atoms: C_13  and  C_19 
REMARK    4  A    between atoms: C_17  and  O_18 
REMARK    5  A    between atoms: C_21  and  C_28 
REMARK    6  A    between atoms: C_24  and  C_25 
REMARK    7  A    between atoms: C_25  and  O_27 
ROOT
HETATM    1  C   UNK N   1      23.027  17.705   4.995  0.00  0.00     0.048 C 
HETATM    2  C   UNK N   1      23.794  18.656   4.058  0.00  0.00     0.183 C 
HETATM    3  O   UNK N   1      25.175  18.574   4.260  0.00  0.00    -0.350 OA
HETATM    4  C   UNK N   1      25.759  17.610   5.025  0.00  0.00     0.078 A 
HETATM    5  C   UNK N   1      27.045  17.793   5.526  0.00  0.00     0.049 A 
HETATM    6  C   UNK N   1      27.610  16.873   6.436  0.00  0.00    -0.022 A 
HETATM    7  C   UNK N   1      26.862  15.744   6.791  0.00  0.00     0.013 A 
HETATM    8  C   UNK N   1      25.585  15.535   6.270  0.00  0.00     0.013 A 
HETATM    9  C   UNK N   1      25.037  16.463   5.380  0.00  0.00     0.004 A 
HETATM   10  C   UNK N   1      23.656  16.318   4.829  0.00  0.00     0.160 C 
ENDROOT
BRANCH   6  11
HETATM   11  C   UNK N   1      28.999  17.119   6.932  0.00  0.00    -0.008 A 
HETATM   12  C   UNK N   1      29.986  17.099   5.933  0.00  0.00     0.029 A 
HETATM   13  C   UNK N   1      31.336  17.267   6.210  0.00  0.00     0.048 A 
HETATM   14  C   UNK N   1      31.741  17.477   7.523  0.00  0.00     0.017 A 
HETATM   15  C   UNK N   1      30.793  17.523   8.543  0.00  0.00     0.020 A 
HETATM   16  C   UNK N   1      29.420  17.350   8.295  0.00  0.00     0.048 A 
BRANCH  13  17
HETATM   17  C   UNK N   1      32.347  17.198   5.103  0.00  0.00     0.417 C 
HETATM   18  F   UNK N   1      31.828  17.783   3.963  0.00  0.00    -0.166 F 
HETATM   19  F   UNK N   1      33.492  17.872   5.483  0.00  0.00    -0.166 F 
HETATM   20  F   UNK N   1      32.682  15.884   4.817  0.00  0.00    -0.166 F 
ENDBRANCH  13  17
BRANCH  16  21
HETATM   21  C   UNK N   1      28.537  17.493   9.497  0.00  0.00     0.177 C 
HETATM   22  O   UNK N   1      28.709  16.848  10.511  0.00  0.00    -0.646 OA
BRANCH  21  23
HETATM   23  O   UNK N   1      27.466  18.313   9.432  0.00  0.00    -0.773 OA
HETATM   24  H   UNK N   1      27.085  18.536   8.605  0.00  0.00     0.167 HD
ENDBRANCH  21  23
ENDBRANCH  16  21
ENDBRANCH   6  11
BRANCH  10  25
HETATM   25  O   UNK N   1      22.970  15.296   5.488  0.00  0.00    -0.390 OA
HETATM   26  H   UNK N   1      22.975  15.217   6.455  0.00  0.00     0.210 HD
ENDBRANCH  10  25
BRANCH   1  27
HETATM   27  C   UNK N   1      21.509  17.797   4.860  0.00  0.00     0.048 C 
BRANCH  27  28
HETATM   28  C   UNK N   1      21.143  17.658   3.415  0.00  0.00    -0.058 A 
HETATM   29  C   UNK N   1      20.973  16.383   2.868  0.00  0.00     0.007 A 
HETATM   30  C   UNK N   1      20.500  16.241   1.559  0.00  0.00     0.001 A 
HETATM   31  C   UNK N   1      20.179  17.372   0.803  0.00  0.00     0.000 A 
HETATM   32  C   UNK N   1      20.353  18.649   1.345  0.00  0.00     0.001 A 
HETATM   33  C   UNK N   1      20.833  18.794   2.648  0.00  0.00     0.007 A 
ENDBRANCH  27  28
ENDBRANCH   1  27
TORSDOF 7
ENDMDL
