MODEL 1
REMARK VINA RESULT:      -8.5      0.000      0.000
REMARK  11 active torsions:
REMARK  status: ('A' for Active; 'I' for Inactive)
REMARK    1  A    between atoms: C_2  and  O_3 
REMARK    2  A    between atoms: O_3  and  C_4 
REMARK    3  A    between atoms: C_9  and  N_10 
REMARK       I    between atoms: N_10  and  C_11 
REMARK    4  A    between atoms: C_11  and  C_13 
REMARK    5  A    between atoms: C_14  and  C_15 
REMARK    6  A    between atoms: C_15  and  N_16 
REMARK    7  A    between atoms: C_19  and  N_26 
REMARK    8  A    between atoms: N_26  and  C_27 
REMARK    9  A    between atoms: C_30  and  O_34 
REMARK   10  A    between atoms: O_34  and  C_35 
REMARK   11  A    between atoms: C_35  and  C_36 
ROOT
HETATM    1  C   UNK N   1      21.689  15.221   6.283  0.00  0.00     0.097 C 
HETATM    2  C   UNK N   1      20.766  15.596   5.275  0.00  0.00     0.069 C 
HETATM    3  C   UNK N   1      21.068  16.552   4.385  0.00  0.00     0.047 C 
HETATM    4  C   UNK N   1      22.312  17.075   4.474  0.00  0.00     0.021 C 
HETATM    5  C   UNK N   1      23.311  16.449   5.180  0.00  0.00     0.048 C 
HETATM    6  C   UNK N   1      23.098  15.525   6.098  0.00  0.00     0.069 C 
HETATM    7  C   UNK N   1      22.524  18.345   4.075  0.00  0.00     0.064 C 
HETATM    8  C   UNK N   1      21.537  19.052   3.389  0.00  0.00     0.087 C 
HETATM    9  C   UNK N   1      20.311  18.423   3.172  0.00  0.00     0.113 C 
HETATM   10  N   UNK N   1      20.080  17.199   3.717  0.00  0.00    -0.364 N 
ATOM     11  HN  UNK N   1      19.161  16.766   3.625  1.00  0.00     0.165 HD
HETATM   12  C   UNK N   1      21.751  20.368   2.877  0.00  0.00     0.103 C 
HETATM   13  N   UNK N   1      21.883  21.432   2.446  0.00  0.00    -0.191 NA
ENDROOT
BRANCH   7  14
HETATM   14  N   UNK N   1      23.726  18.906   4.505  0.00  0.00    -0.377 N 
HETATM   15  H   UNK N   1      23.933  19.024   5.461  0.00  0.00     0.160 HD
BRANCH  14  16
HETATM   16  C   UNK N   1      24.620  19.292   3.506  0.00  0.00     0.130 C 
HETATM   17  C   UNK N   1      25.387  18.213   3.122  0.00  0.00     0.005 C 
HETATM   18  C   UNK N   1      26.504  17.977   3.856  0.00  0.00     0.037 C 
HETATM   19  C   UNK N   1      26.839  18.908   4.829  0.00  0.00     0.090 C 
HETATM   20  C   UNK N   1      26.166  20.160   4.935  0.00  0.00     0.066 C 
HETATM   21  C   UNK N   1      25.214  20.413   4.013  0.00  0.00     0.028 C 
HETATM   22 Cl   UNK N   1      26.423  21.416   6.136  0.00  0.00    -0.082 Cl
BRANCH  19  23
HETATM   23  O   UNK N   1      27.967  18.730   5.403  0.00  0.00    -0.345 OA
BRANCH  23  24
HETATM   24  C   UNK N   1      27.917  17.702   6.287  0.00  0.00     0.214 C 
BRANCH  24  25
HETATM   25  C   UNK N   1      29.064  17.908   7.056  0.00  0.00    -0.031 A 
HETATM   26  C   UNK N   1      30.130  17.104   6.761  0.00  0.00     0.009 A 
HETATM   27  C   UNK N   1      31.146  16.987   7.687  0.00  0.00     0.004 A 
HETATM   28  C   UNK N   1      31.051  17.652   8.918  0.00  0.00     0.042 A 
HETATM   29  C   UNK N   1      29.951  18.467   9.201  0.00  0.00     0.117 A 
HETATM   30  C   UNK N   1      28.955  18.586   8.268  0.00  0.00     0.051 A 
HETATM   31  F   UNK N   1      29.819  19.083  10.396  0.00  0.00    -0.206 F 
ENDBRANCH  24  25
ENDBRANCH  23  24
ENDBRANCH  19  23
ENDBRANCH  14  16
ENDBRANCH   7  14
BRANCH   6  32
HETATM   32  N   UNK N   1      24.317  15.293   6.818  0.00  0.00    -0.321 N 
HETATM   33  C   UNK N   1      24.861  14.361   7.616  0.00  0.00     0.245 C 
HETATM   34  O   UNK N   1      25.960  14.567   8.107  0.00  0.00    -0.268 OA
HETATM   35  H   UNK N   1      24.940  16.043   6.689  0.00  0.00     0.169 HD
BRANCH  33  36
HETATM   36  C   UNK N   1      24.160  13.169   7.968  0.00  0.00     0.072 C 
HETATM   37  C   UNK N   1      23.627  13.012   9.155  0.00  0.00     0.008 C 
BRANCH  37  38
HETATM   38  C   UNK N   1      23.298  11.619   9.490  0.00  0.00     0.299 C 
BRANCH  38  39
HETATM   39  N   UNK N   1      22.463  11.502  10.659  0.00  0.00     0.083 N 
HETATM   40  C   UNK N   1      21.493  12.569  10.615  0.00  0.00     0.309 C 
HETATM   41  C   UNK N   1      23.348  11.948  11.699  0.00  0.00     0.309 C 
ENDBRANCH  38  39
ENDBRANCH  37  38
ENDBRANCH  33  36
ENDBRANCH   6  32
BRANCH   1  42
HETATM   42  O   UNK N   1      21.125  14.813   7.431  0.00  0.00    -0.349 OA
BRANCH  42  43
HETATM   43  C   UNK N   1      21.044  15.692   8.524  0.00  0.00     0.171 C 
HETATM   44  C   UNK N   1      19.627  16.277   8.723  0.00  0.00     0.034 C 
ENDBRANCH  42  43
ENDBRANCH   1  42
TORSDOF 11
ENDMDL
MODEL 2
REMARK VINA RESULT:      -8.2      3.030      7.481
REMARK  11 active torsions:
REMARK  status: ('A' for Active; 'I' for Inactive)
REMARK    1  A    between atoms: C_2  and  O_3 
REMARK    2  A    between atoms: O_3  and  C_4 
REMARK    3  A    between atoms: C_9  and  N_10 
REMARK       I    between atoms: N_10  and  C_11 
REMARK    4  A    between atoms: C_11  and  C_13 
REMARK    5  A    between atoms: C_14  and  C_15 
REMARK    6  A    between atoms: C_15  and  N_16 
REMARK    7  A    between atoms: C_19  and  N_26 
REMARK    8  A    between atoms: N_26  and  C_27 
REMARK    9  A    between atoms: C_30  and  O_34 
REMARK   10  A    between atoms: O_34  and  C_35 
REMARK   11  A    between atoms: C_35  and  C_36 
ROOT
HETATM    1  C   UNK N   1      28.428  18.886   5.133  0.00  0.00     0.097 C 
HETATM    2  C   UNK N   1      27.963  19.819   4.173  0.00  0.00     0.069 C 
HETATM    3  C   UNK N   1      26.658  20.107   4.068  0.00  0.00     0.047 C 
HETATM    4  C   UNK N   1      25.843  19.509   4.966  0.00  0.00     0.021 C 
HETATM    5  C   UNK N   1      26.331  18.928   6.112  0.00  0.00     0.048 C 
HETATM    6  C   UNK N   1      27.593  18.580   6.283  0.00  0.00     0.069 C 
HETATM    7  C   UNK N   1      24.562  19.255   4.630  0.00  0.00     0.064 C 
HETATM    8  C   UNK N   1      24.016  19.781   3.460  0.00  0.00     0.087 C 
HETATM    9  C   UNK N   1      24.845  20.532   2.627  0.00  0.00     0.113 C 
HETATM   10  N   UNK N   1      26.167  20.643   2.923  0.00  0.00    -0.364 N 
ATOM     11  HN  UNK N   1      26.793  21.129   2.280  1.00  0.00     0.165 HD
HETATM   12  C   UNK N   1      22.642  19.606   3.108  0.00  0.00     0.103 C 
HETATM   13  N   UNK N   1      21.538  19.489   2.788  0.00  0.00    -0.191 NA
ENDROOT
BRANCH   7  14
HETATM   14  N   UNK N   1      23.901  18.353   5.461  0.00  0.00    -0.377 N 
HETATM   15  H   UNK N   1      23.897  18.454   6.441  0.00  0.00     0.160 HD
BRANCH  14  16
HETATM   16  C   UNK N   1      23.242  17.299   4.828  0.00  0.00     0.130 C 
HETATM   17  C   UNK N   1      22.139  16.925   5.566  0.00  0.00     0.005 C 
HETATM   18  C   UNK N   1      22.356  16.028   6.561  0.00  0.00     0.037 C 
HETATM   19  C   UNK N   1      23.624  15.475   6.659  0.00  0.00     0.090 C 
HETATM   20  C   UNK N   1      24.613  15.676   5.651  0.00  0.00     0.066 C 
HETATM   21  C   UNK N   1      24.236  16.397   4.574  0.00  0.00     0.028 C 
HETATM   22 Cl   UNK N   1      26.273  15.102   5.648  0.00  0.00    -0.082 Cl
BRANCH  19  23
HETATM   23  O   UNK N   1      23.756  14.533   7.513  0.00  0.00    -0.345 OA
BRANCH  23  24
HETATM   24  C   UNK N   1      22.556  13.991   7.841  0.00  0.00     0.214 C 
BRANCH  24  25
HETATM   25  C   UNK N   1      22.786  13.505   9.130  0.00  0.00    -0.031 A 
HETATM   26  C   UNK N   1      24.051  13.044   9.374  0.00  0.00     0.009 A 
HETATM   27  C   UNK N   1      24.257  12.229  10.468  0.00  0.00     0.004 A 
HETATM   28  C   UNK N   1      23.173  11.856  11.278  0.00  0.00     0.042 A 
HETATM   29  C   UNK N   1      21.889  12.336  11.008  0.00  0.00     0.117 A 
HETATM   30  C   UNK N   1      21.699  13.155   9.927  0.00  0.00     0.051 A 
HETATM   31  F   UNK N   1      20.825  11.957  11.750  0.00  0.00    -0.206 F 
ENDBRANCH  24  25
ENDBRANCH  23  24
ENDBRANCH  19  23
ENDBRANCH  14  16
ENDBRANCH   7  14
BRANCH   6  32
HETATM   32  N   UNK N   1      27.697  17.765   7.458  0.00  0.00    -0.321 N 
HETATM   33  C   UNK N   1      28.596  17.470   8.411  0.00  0.00     0.245 C 
HETATM   34  O   UNK N   1      28.312  16.636   9.258  0.00  0.00    -0.268 OA
HETATM   35  H   UNK N   1      26.859  17.274   7.611  0.00  0.00     0.169 HD
BRANCH  33  36
HETATM   36  C   UNK N   1      29.901  18.045   8.419  0.00  0.00     0.072 C 
HETATM   37  C   UNK N   1      30.941  17.394   7.957  0.00  0.00     0.008 C 
BRANCH  37  38
HETATM   38  C   UNK N   1      32.236  17.941   8.387  0.00  0.00     0.299 C 
BRANCH  38  39
HETATM   39  N   UNK N   1      33.215  17.972   7.329  0.00  0.00     0.083 N 
HETATM   40  C   UNK N   1      32.764  17.082   6.287  0.00  0.00     0.309 C 
HETATM   41  C   UNK N   1      34.298  17.227   7.908  0.00  0.00     0.309 C 
ENDBRANCH  38  39
ENDBRANCH  37  38
ENDBRANCH  33  36
ENDBRANCH   6  32
BRANCH   1  42
HETATM   42  O   UNK N   1      29.518  18.197   4.758  0.00  0.00    -0.349 OA
BRANCH  42  43
HETATM   43  C   UNK N   1      29.428  16.816   4.519  0.00  0.00     0.171 C 
HETATM   44  C   UNK N   1      28.634  16.478   3.236  0.00  0.00     0.034 C 
ENDBRANCH  42  43
ENDBRANCH   1  42
TORSDOF 11
ENDMDL
MODEL 3
REMARK VINA RESULT:      -8.1      1.736      3.201
REMARK  11 active torsions:
REMARK  status: ('A' for Active; 'I' for Inactive)
REMARK    1  A    between atoms: C_2  and  O_3 
REMARK    2  A    between atoms: O_3  and  C_4 
REMARK    3  A    between atoms: C_9  and  N_10 
REMARK       I    between atoms: N_10  and  C_11 
REMARK    4  A    between atoms: C_11  and  C_13 
REMARK    5  A    between atoms: C_14  and  C_15 
REMARK    6  A    between atoms: C_15  and  N_16 
REMARK    7  A    between atoms: C_19  and  N_26 
REMARK    8  A    between atoms: N_26  and  C_27 
REMARK    9  A    between atoms: C_30  and  O_34 
REMARK   10  A    between atoms: O_34  and  C_35 
REMARK   11  A    between atoms: C_35  and  C_36 
ROOT
HETATM    1  C   UNK N   1      21.101  15.184   6.410  0.00  0.00     0.097 C 
HETATM    2  C   UNK N   1      20.273  15.618   5.344  0.00  0.00     0.069 C 
HETATM    3  C   UNK N   1      20.709  16.524   4.458  0.00  0.00     0.047 C 
HETATM    4  C   UNK N   1      21.988  16.936   4.609  0.00  0.00     0.021 C 
HETATM    5  C   UNK N   1      22.886  16.239   5.382  0.00  0.00     0.048 C 
HETATM    6  C   UNK N   1      22.539  15.357   6.301  0.00  0.00     0.069 C 
HETATM    7  C   UNK N   1      22.336  18.173   4.203  0.00  0.00     0.064 C 
HETATM    8  C   UNK N   1      21.457  18.950   3.450  0.00  0.00     0.087 C 
HETATM    9  C   UNK N   1      20.193  18.429   3.173  0.00  0.00     0.113 C 
HETATM   10  N   UNK N   1      19.823  17.242   3.724  0.00  0.00    -0.364 N 
ATOM     11  HN  UNK N   1      18.875  16.890   3.586  1.00  0.00     0.165 HD
HETATM   12  C   UNK N   1      21.816  20.231   2.929  0.00  0.00     0.103 C 
HETATM   13  N   UNK N   1      22.067  21.269   2.488  0.00  0.00    -0.191 NA
ENDROOT
BRANCH   7  14
HETATM   14  N   UNK N   1      23.557  18.634   4.692  0.00  0.00    -0.377 N 
HETATM   15  H   UNK N   1      23.715  18.768   5.655  0.00  0.00     0.160 HD
BRANCH  14  16
HETATM   16  C   UNK N   1      24.544  18.896   3.742  0.00  0.00     0.130 C 
HETATM   17  C   UNK N   1      25.271  17.751   3.493  0.00  0.00     0.005 C 
HETATM   18  C   UNK N   1      26.314  17.508   4.327  0.00  0.00     0.037 C 
HETATM   19  C   UNK N   1      26.632  18.486   5.256  0.00  0.00     0.090 C 
HETATM   20  C   UNK N   1      26.031  19.779   5.224  0.00  0.00     0.066 C 
HETATM   21  C   UNK N   1      25.167  20.016   4.215  0.00  0.00     0.028 C 
HETATM   22 Cl   UNK N   1      26.275  21.103   6.352  0.00  0.00    -0.082 Cl
BRANCH  19  23
HETATM   23  O   UNK N   1      27.703  18.289   5.928  0.00  0.00    -0.345 OA
BRANCH  23  24
HETATM   24  C   UNK N   1      27.669  17.096   6.573  0.00  0.00     0.214 C 
BRANCH  24  25
HETATM   25  C   UNK N   1      28.628  17.267   7.573  0.00  0.00    -0.031 A 
HETATM   26  C   UNK N   1      28.217  17.960   8.679  0.00  0.00     0.009 A 
HETATM   27  C   UNK N   1      29.173  18.482   9.525  0.00  0.00     0.004 A 
HETATM   28  C   UNK N   1      30.535  18.332   9.220  0.00  0.00     0.042 A 
HETATM   29  C   UNK N   1      30.933  17.623   8.084  0.00  0.00     0.117 A 
HETATM   30  C   UNK N   1      29.975  17.099   7.258  0.00  0.00     0.051 A 
HETATM   31  F   UNK N   1      32.237  17.502   7.750  0.00  0.00    -0.206 F 
ENDBRANCH  24  25
ENDBRANCH  23  24
ENDBRANCH  19  23
ENDBRANCH  14  16
ENDBRANCH   7  14
BRANCH   6  32
HETATM   32  N   UNK N   1      23.690  15.033   7.094  0.00  0.00    -0.321 N 
HETATM   33  C   UNK N   1      24.830  14.333   6.988  0.00  0.00     0.245 C 
HETATM   34  O   UNK N   1      25.566  14.245   7.959  0.00  0.00    -0.268 OA
HETATM   35  H   UNK N   1      23.622  15.448   7.984  0.00  0.00     0.169 HD
BRANCH  33  36
HETATM   36  C   UNK N   1      25.171  13.628   5.796  0.00  0.00     0.072 C 
HETATM   37  C   UNK N   1      26.269  13.895   5.130  0.00  0.00     0.008 C 
BRANCH  37  38
HETATM   38  C   UNK N   1      26.281  13.381   3.753  0.00  0.00     0.299 C 
BRANCH  38  39
HETATM   39  N   UNK N   1      27.535  13.605   3.079  0.00  0.00     0.083 N 
HETATM   40  C   UNK N   1      28.403  14.313   3.988  0.00  0.00     0.309 C 
HETATM   41  C   UNK N   1      27.185  14.634   2.140  0.00  0.00     0.309 C 
ENDBRANCH  38  39
ENDBRANCH  37  38
ENDBRANCH  33  36
ENDBRANCH   6  32
BRANCH   1  42
HETATM   42  O   UNK N   1      20.439  14.853   7.530  0.00  0.00    -0.349 OA
BRANCH  42  43
HETATM   43  C   UNK N   1      20.631  15.599   8.705  0.00  0.00     0.171 C 
HETATM   44  C   UNK N   1      20.046  17.027   8.614  0.00  0.00     0.034 C 
ENDBRANCH  42  43
ENDBRANCH   1  42
TORSDOF 11
ENDMDL
MODEL 4
REMARK VINA RESULT:      -8.0      4.445      6.576
REMARK  11 active torsions:
REMARK  status: ('A' for Active; 'I' for Inactive)
REMARK    1  A    between atoms: C_2  and  O_3 
REMARK    2  A    between atoms: O_3  and  C_4 
REMARK    3  A    between atoms: C_9  and  N_10 
REMARK       I    between atoms: N_10  and  C_11 
REMARK    4  A    between atoms: C_11  and  C_13 
REMARK    5  A    between atoms: C_14  and  C_15 
REMARK    6  A    between atoms: C_15  and  N_16 
REMARK    7  A    between atoms: C_19  and  N_26 
REMARK    8  A    between atoms: N_26  and  C_27 
REMARK    9  A    between atoms: C_30  and  O_34 
REMARK   10  A    between atoms: O_34  and  C_35 
REMARK   11  A    between atoms: C_35  and  C_36 
ROOT
HETATM    1  C   UNK N   1      19.151  13.742   1.852  0.00  0.00     0.097 C 
HETATM    2  C   UNK N   1      19.514  14.785   0.965  0.00  0.00     0.069 C 
HETATM    3  C   UNK N   1      20.103  15.901   1.417  0.00  0.00     0.047 C 
HETATM    4  C   UNK N   1      20.380  15.932   2.741  0.00  0.00     0.021 C 
HETATM    5  C   UNK N   1      20.383  14.791   3.506  0.00  0.00     0.048 C 
HETATM    6  C   UNK N   1      19.797  13.662   3.151  0.00  0.00     0.069 C 
HETATM    7  C   UNK N   1      20.414  17.118   3.381  0.00  0.00     0.064 C 
HETATM    8  C   UNK N   1      20.373  18.315   2.667  0.00  0.00     0.087 C 
HETATM    9  C   UNK N   1      20.246  18.248   1.280  0.00  0.00     0.113 C 
HETATM   10  N   UNK N   1      20.065  17.040   0.682  0.00  0.00    -0.364 N 
ATOM     11  HN  UNK N   1      19.899  16.990  -0.323  1.00  0.00     0.165 HD
HETATM   12  C   UNK N   1      20.490  19.591   3.300  0.00  0.00     0.103 C 
HETATM   13  N   UNK N   1      20.583  20.642   3.771  0.00  0.00    -0.191 NA
ENDROOT
BRANCH   7  14
HETATM   14  N   UNK N   1      20.368  17.040   4.772  0.00  0.00    -0.377 N 
HETATM   15  H   UNK N   1      19.589  16.671   5.248  0.00  0.00     0.160 HD
BRANCH  14  16
HETATM   16  C   UNK N   1      21.489  17.514   5.454  0.00  0.00     0.130 C 
HETATM   17  C   UNK N   1      22.466  16.541   5.483  0.00  0.00     0.005 C 
HETATM   18  C   UNK N   1      22.387  15.639   6.494  0.00  0.00     0.037 C 
HETATM   19  C   UNK N   1      21.424  15.853   7.469  0.00  0.00     0.090 C 
HETATM   20  C   UNK N   1      20.673  17.064   7.532  0.00  0.00     0.066 C 
HETATM   21  C   UNK N   1      20.979  18.010   6.620  0.00  0.00     0.028 C 
HETATM   22 Cl   UNK N   1      19.386  17.469   8.656  0.00  0.00    -0.082 Cl
BRANCH  19  23
HETATM   23  O   UNK N   1      21.469  15.068   8.477  0.00  0.00    -0.345 OA
BRANCH  23  24
HETATM   24  C   UNK N   1      20.608  14.030   8.335  0.00  0.00     0.214 C 
BRANCH  24  25
HETATM   25  C   UNK N   1      21.243  13.011   9.048  0.00  0.00    -0.031 A 
HETATM   26  C   UNK N   1      20.982  12.972  10.390  0.00  0.00     0.009 A 
HETATM   27  C   UNK N   1      21.830  12.254  11.208  0.00  0.00     0.004 A 
HETATM   28  C   UNK N   1      22.956  11.619  10.664  0.00  0.00     0.042 A 
HETATM   29  C   UNK N   1      23.206  11.673   9.291  0.00  0.00     0.117 A 
HETATM   30  C   UNK N   1      22.350  12.378   8.486  0.00  0.00     0.051 A 
HETATM   31  F   UNK N   1      24.306  11.103   8.751  0.00  0.00    -0.206 F 
ENDBRANCH  24  25
ENDBRANCH  23  24
ENDBRANCH  19  23
ENDBRANCH  14  16
ENDBRANCH   7  14
BRANCH   6  32
HETATM   32  N   UNK N   1      19.757  12.781   4.282  0.00  0.00    -0.321 N 
HETATM   33  C   UNK N   1      20.605  12.081   5.052  0.00  0.00     0.245 C 
HETATM   34  O   UNK N   1      20.154  11.362   5.931  0.00  0.00    -0.268 OA
HETATM   35  H   UNK N   1      18.829  12.649   4.583  0.00  0.00     0.169 HD
BRANCH  33  36
HETATM   36  C   UNK N   1      22.013  12.094   4.825  0.00  0.00     0.072 C 
HETATM   37  C   UNK N   1      22.771  11.077   5.158  0.00  0.00     0.008 C 
BRANCH  37  38
HETATM   38  C   UNK N   1      24.205  11.390   5.228  0.00  0.00     0.299 C 
BRANCH  38  39
HETATM   39  N   UNK N   1      24.482  12.799   5.098  0.00  0.00     0.083 N 
HETATM   40  C   UNK N   1      25.414  12.965   4.009  0.00  0.00     0.309 C 
HETATM   41  C   UNK N   1      25.317  13.041   6.242  0.00  0.00     0.309 C 
ENDBRANCH  38  39
ENDBRANCH  37  38
ENDBRANCH  33  36
ENDBRANCH   6  32
BRANCH   1  42
HETATM   42  O   UNK N   1      18.062  13.049   1.481  0.00  0.00    -0.349 OA
BRANCH  42  43
HETATM   43  C   UNK N   1      18.068  12.321   0.280  0.00  0.00     0.171 C 
HETATM   44  C   UNK N   1      19.134  11.201   0.260  0.00  0.00     0.034 C 
ENDBRANCH  42  43
ENDBRANCH   1  42
TORSDOF 11
ENDMDL
MODEL 5
REMARK VINA RESULT:      -7.9      2.722      7.038
REMARK  11 active torsions:
REMARK  status: ('A' for Active; 'I' for Inactive)
REMARK    1  A    between atoms: C_2  and  O_3 
REMARK    2  A    between atoms: O_3  and  C_4 
REMARK    3  A    between atoms: C_9  and  N_10 
REMARK       I    between atoms: N_10  and  C_11 
REMARK    4  A    between atoms: C_11  and  C_13 
REMARK    5  A    between atoms: C_14  and  C_15 
REMARK    6  A    between atoms: C_15  and  N_16 
REMARK    7  A    between atoms: C_19  and  N_26 
REMARK    8  A    between atoms: N_26  and  C_27 
REMARK    9  A    between atoms: C_30  and  O_34 
REMARK   10  A    between atoms: O_34  and  C_35 
REMARK   11  A    between atoms: C_35  and  C_36 
ROOT
HETATM    1  C   UNK N   1      25.875  18.024   4.140  0.00  0.00     0.097 C 
HETATM    2  C   UNK N   1      25.296  19.205   3.613  0.00  0.00     0.069 C 
HETATM    3  C   UNK N   1      23.977  19.427   3.706  0.00  0.00     0.047 C 
HETATM    4  C   UNK N   1      23.264  18.497   4.381  0.00  0.00     0.021 C 
HETATM    5  C   UNK N   1      23.869  17.579   5.206  0.00  0.00     0.048 C 
HETATM    6  C   UNK N   1      25.153  17.277   5.156  0.00  0.00     0.069 C 
HETATM    7  C   UNK N   1      21.970  18.297   4.062  0.00  0.00     0.064 C 
HETATM    8  C   UNK N   1      21.306  19.167   3.198  0.00  0.00     0.087 C 
HETATM    9  C   UNK N   1      22.033  20.218   2.638  0.00  0.00     0.113 C 
HETATM   10  N   UNK N   1      23.371  20.302   2.865  0.00  0.00    -0.364 N 
ATOM     11  HN  UNK N   1      23.922  21.024   2.400  1.00  0.00     0.165 HD
HETATM   12  C   UNK N   1      19.914  19.041   2.900  0.00  0.00     0.103 C 
HETATM   13  N   UNK N   1      18.792  18.974   2.633  0.00  0.00    -0.191 NA
ENDROOT
BRANCH   7  14
HETATM   14  N   UNK N   1      21.415  17.118   4.556  0.00  0.00    -0.377 N 
HETATM   15  H   UNK N   1      21.779  16.233   4.323  0.00  0.00     0.160 HD
BRANCH  14  16
HETATM   16  C   UNK N   1      20.312  17.260   5.399  0.00  0.00     0.130 C 
HETATM   17  C   UNK N   1      20.737  17.486   6.691  0.00  0.00     0.005 C 
HETATM   18  C   UNK N   1      21.008  16.385   7.437  0.00  0.00     0.037 C 
HETATM   19  C   UNK N   1      20.710  15.149   6.884  0.00  0.00     0.090 C 
HETATM   20  C   UNK N   1      19.970  15.025   5.671  0.00  0.00     0.066 C 
HETATM   21  C   UNK N   1      19.537  16.173   5.111  0.00  0.00     0.028 C 
HETATM   22 Cl   UNK N   1      19.562  13.549   4.811  0.00  0.00    -0.082 Cl
BRANCH  19  23
HETATM   23  O   UNK N   1      20.844  14.144   7.663  0.00  0.00    -0.345 OA
BRANCH  23  24
HETATM   24  C   UNK N   1      20.886  14.529   8.964  0.00  0.00     0.214 C 
BRANCH  24  25
HETATM   25  C   UNK N   1      21.569  13.472   9.570  0.00  0.00    -0.031 A 
HETATM   26  C   UNK N   1      20.898  12.827  10.571  0.00  0.00     0.009 A 
HETATM   27  C   UNK N   1      21.616  12.039  11.447  0.00  0.00     0.004 A 
HETATM   28  C   UNK N   1      23.011  11.947  11.324  0.00  0.00     0.042 A 
HETATM   29  C   UNK N   1      23.677  12.617  10.295  0.00  0.00     0.117 A 
HETATM   30  C   UNK N   1      22.952  13.386   9.424  0.00  0.00     0.051 A 
HETATM   31  F   UNK N   1      25.023  12.576  10.183  0.00  0.00    -0.206 F 
ENDBRANCH  24  25
ENDBRANCH  23  24
ENDBRANCH  19  23
ENDBRANCH  14  16
ENDBRANCH   7  14
BRANCH   6  32
HETATM   32  N   UNK N   1      25.387  16.105   5.950  0.00  0.00    -0.321 N 
HETATM   33  C   UNK N   1      26.257  15.662   6.872  0.00  0.00     0.245 C 
HETATM   34  O   UNK N   1      26.149  14.520   7.290  0.00  0.00    -0.268 OA
HETATM   35  H   UNK N   1      24.706  15.420   5.761  0.00  0.00     0.169 HD
BRANCH  33  36
HETATM   36  C   UNK N   1      27.349  16.462   7.321  0.00  0.00     0.072 C 
HETATM   37  C   UNK N   1      28.397  16.680   6.565  0.00  0.00     0.008 C 
BRANCH  37  38
HETATM   38  C   UNK N   1      29.576  17.173   7.292  0.00  0.00     0.299 C 
BRANCH  38  39
HETATM   39  N   UNK N   1      30.806  16.984   6.566  0.00  0.00     0.083 N 
HETATM   40  C   UNK N   1      31.004  15.565   6.397  0.00  0.00     0.309 C 
HETATM   41  C   UNK N   1      31.789  17.304   7.564  0.00  0.00     0.309 C 
ENDBRANCH  38  39
ENDBRANCH  37  38
ENDBRANCH  33  36
ENDBRANCH   6  32
BRANCH   1  42
HETATM   42  O   UNK N   1      26.954  17.586   3.471  0.00  0.00    -0.349 OA
BRANCH  42  43
HETATM   43  C   UNK N   1      27.061  16.228   3.125  0.00  0.00     0.171 C 
HETATM   44  C   UNK N   1      26.043  15.799   2.044  0.00  0.00     0.034 C 
ENDBRANCH  42  43
ENDBRANCH   1  42
TORSDOF 11
ENDMDL
MODEL 6
REMARK VINA RESULT:      -7.7      1.702      2.131
REMARK  11 active torsions:
REMARK  status: ('A' for Active; 'I' for Inactive)
REMARK    1  A    between atoms: C_2  and  O_3 
REMARK    2  A    between atoms: O_3  and  C_4 
REMARK    3  A    between atoms: C_9  and  N_10 
REMARK       I    between atoms: N_10  and  C_11 
REMARK    4  A    between atoms: C_11  and  C_13 
REMARK    5  A    between atoms: C_14  and  C_15 
REMARK    6  A    between atoms: C_15  and  N_16 
REMARK    7  A    between atoms: C_19  and  N_26 
REMARK    8  A    between atoms: N_26  and  C_27 
REMARK    9  A    between atoms: C_30  and  O_34 
REMARK   10  A    between atoms: O_34  and  C_35 
REMARK   11  A    between atoms: C_35  and  C_36 
ROOT
HETATM    1  C   UNK N   1      21.412  15.138   6.318  0.00  0.00     0.097 C 
HETATM    2  C   UNK N   1      20.581  15.634   5.283  0.00  0.00     0.069 C 
HETATM    3  C   UNK N   1      21.028  16.563   4.426  0.00  0.00     0.047 C 
HETATM    4  C   UNK N   1      22.320  16.936   4.574  0.00  0.00     0.021 C 
HETATM    5  C   UNK N   1      23.210  16.187   5.306  0.00  0.00     0.048 C 
HETATM    6  C   UNK N   1      22.853  15.278   6.195  0.00  0.00     0.069 C 
HETATM    7  C   UNK N   1      22.694  18.179   4.211  0.00  0.00     0.064 C 
HETATM    8  C   UNK N   1      21.825  19.007   3.502  0.00  0.00     0.087 C 
HETATM    9  C   UNK N   1      20.544  18.529   3.224  0.00  0.00     0.113 C 
HETATM   10  N   UNK N   1      20.151  17.332   3.734  0.00  0.00    -0.364 N 
ATOM     11  HN  UNK N   1      19.192  17.010   3.597  1.00  0.00     0.165 HD
HETATM   12  C   UNK N   1      22.210  20.298   3.026  0.00  0.00     0.103 C 
HETATM   13  N   UNK N   1      22.482  21.346   2.623  0.00  0.00    -0.191 NA
ENDROOT
BRANCH   7  14
HETATM   14  N   UNK N   1      23.934  18.589   4.700  0.00  0.00    -0.377 N 
HETATM   15  H   UNK N   1      24.134  18.606   5.664  0.00  0.00     0.160 HD
BRANCH  14  16
HETATM   16  C   UNK N   1      24.876  18.974   3.746  0.00  0.00     0.130 C 
HETATM   17  C   UNK N   1      25.519  17.862   3.246  0.00  0.00     0.005 C 
HETATM   18  C   UNK N   1      26.594  17.421   3.949  0.00  0.00     0.037 C 
HETATM   19  C   UNK N   1      27.023  18.197   5.015  0.00  0.00     0.090 C 
HETATM   20  C   UNK N   1      26.497  19.500   5.257  0.00  0.00     0.066 C 
HETATM   21  C   UNK N   1      25.590  19.958   4.370  0.00  0.00     0.028 C 
HETATM   22 Cl   UNK N   1      26.884  20.582   6.586  0.00  0.00    -0.082 Cl
BRANCH  19  23
HETATM   23  O   UNK N   1      28.117  17.831   5.565  0.00  0.00    -0.345 OA
BRANCH  23  24
HETATM   24  C   UNK N   1      27.924  16.776   6.396  0.00  0.00     0.214 C 
BRANCH  24  25
HETATM   25  C   UNK N   1      28.701  17.120   7.505  0.00  0.00    -0.031 A 
HETATM   26  C   UNK N   1      28.031  17.717   8.538  0.00  0.00     0.009 A 
HETATM   27  C   UNK N   1      28.758  18.405   9.486  0.00  0.00     0.004 A 
HETATM   28  C   UNK N   1      30.150  18.517   9.356  0.00  0.00     0.042 A 
HETATM   29  C   UNK N   1      30.814  17.902   8.292  0.00  0.00     0.117 A 
HETATM   30  C   UNK N   1      30.083  17.210   7.363  0.00  0.00     0.051 A 
HETATM   31  F   UNK N   1      32.149  18.031   8.125  0.00  0.00    -0.206 F 
ENDBRANCH  24  25
ENDBRANCH  23  24
ENDBRANCH  19  23
ENDBRANCH  14  16
ENDBRANCH   7  14
BRANCH   6  32
HETATM   32  N   UNK N   1      24.006  14.895   6.957  0.00  0.00    -0.321 N 
HETATM   33  C   UNK N   1      24.511  13.801   7.550  0.00  0.00     0.245 C 
HETATM   34  O   UNK N   1      25.548  13.897   8.189  0.00  0.00    -0.268 OA
HETATM   35  H   UNK N   1      24.606  15.664   7.085  0.00  0.00     0.169 HD
BRANCH  33  36
HETATM   36  C   UNK N   1      23.833  12.547   7.519  0.00  0.00     0.072 C 
HETATM   37  C   UNK N   1      23.920  11.745   6.485  0.00  0.00     0.008 C 
BRANCH  37  38
HETATM   38  C   UNK N   1      22.879  10.709   6.435  0.00  0.00     0.299 C 
BRANCH  38  39
HETATM   39  N   UNK N   1      22.093  10.757   5.228  0.00  0.00     0.083 N 
HETATM   40  C   UNK N   1      20.748  10.357   5.563  0.00  0.00     0.309 C 
HETATM   41  C   UNK N   1      22.576   9.606   4.516  0.00  0.00     0.309 C 
ENDBRANCH  38  39
ENDBRANCH  37  38
ENDBRANCH  33  36
ENDBRANCH   6  32
BRANCH   1  42
HETATM   42  O   UNK N   1      20.758  14.780   7.435  0.00  0.00    -0.349 OA
BRANCH  42  43
HETATM   43  C   UNK N   1      20.806  15.604   8.571  0.00  0.00     0.171 C 
HETATM   44  C   UNK N   1      19.512  16.426   8.775  0.00  0.00     0.034 C 
ENDBRANCH  42  43
ENDBRANCH   1  42
TORSDOF 11
ENDMDL
MODEL 7
REMARK VINA RESULT:      -7.7      3.392      6.656
REMARK  11 active torsions:
REMARK  status: ('A' for Active; 'I' for Inactive)
REMARK    1  A    between atoms: C_2  and  O_3 
REMARK    2  A    between atoms: O_3  and  C_4 
REMARK    3  A    between atoms: C_9  and  N_10 
REMARK       I    between atoms: N_10  and  C_11 
REMARK    4  A    between atoms: C_11  and  C_13 
REMARK    5  A    between atoms: C_14  and  C_15 
REMARK    6  A    between atoms: C_15  and  N_16 
REMARK    7  A    between atoms: C_19  and  N_26 
REMARK    8  A    between atoms: N_26  and  C_27 
REMARK    9  A    between atoms: C_30  and  O_34 
REMARK   10  A    between atoms: O_34  and  C_35 
REMARK   11  A    between atoms: C_35  and  C_36 
ROOT
HETATM    1  C   UNK N   1      26.273  17.029   4.447  0.00  0.00     0.097 C 
HETATM    2  C   UNK N   1      25.941  18.337   4.016  0.00  0.00     0.069 C 
HETATM    3  C   UNK N   1      24.682  18.791   4.096  0.00  0.00     0.047 C 
HETATM    4  C   UNK N   1      23.784  17.954   4.664  0.00  0.00     0.021 C 
HETATM    5  C   UNK N   1      24.177  16.873   5.417  0.00  0.00     0.048 C 
HETATM    6  C   UNK N   1      25.385  16.344   5.372  0.00  0.00     0.069 C 
HETATM    7  C   UNK N   1      22.489  18.025   4.295  0.00  0.00     0.064 C 
HETATM    8  C   UNK N   1      22.032  19.074   3.499  0.00  0.00     0.087 C 
HETATM    9  C   UNK N   1      22.960  20.016   3.056  0.00  0.00     0.113 C 
HETATM   10  N   UNK N   1      24.281  19.831   3.323  0.00  0.00    -0.364 N 
ATOM     11  HN  UNK N   1      24.973  20.476   2.941  1.00  0.00     0.165 HD
HETATM   12  C   UNK N   1      20.654  19.233   3.154  0.00  0.00     0.103 C 
HETATM   13  N   UNK N   1      19.550  19.398   2.854  0.00  0.00    -0.191 NA
ENDROOT
BRANCH   7  14
HETATM   14  N   UNK N   1      21.709  16.931   4.665  0.00  0.00    -0.377 N 
HETATM   15  H   UNK N   1      21.937  16.013   4.392  0.00  0.00     0.160 HD
BRANCH  14  16
HETATM   16  C   UNK N   1      20.584  17.209   5.442  0.00  0.00     0.130 C 
HETATM   17  C   UNK N   1      20.960  17.409   6.753  0.00  0.00     0.005 C 
HETATM   18  C   UNK N   1      21.065  16.298   7.526  0.00  0.00     0.037 C 
HETATM   19  C   UNK N   1      20.662  15.093   6.971  0.00  0.00     0.090 C 
HETATM   20  C   UNK N   1      19.981  15.030   5.720  0.00  0.00     0.066 C 
HETATM   21  C   UNK N   1      19.710  16.210   5.123  0.00  0.00     0.028 C 
HETATM   22 Cl   UNK N   1      19.459  13.594   4.855  0.00  0.00    -0.082 Cl
BRANCH  19  23
HETATM   23  O   UNK N   1      20.640  14.093   7.768  0.00  0.00    -0.345 OA
BRANCH  23  24
HETATM   24  C   UNK N   1      20.746  14.490   9.062  0.00  0.00     0.214 C 
BRANCH  24  25
HETATM   25  C   UNK N   1      21.473  13.446   9.639  0.00  0.00    -0.031 A 
HETATM   26  C   UNK N   1      20.855  12.786  10.665  0.00  0.00     0.009 A 
HETATM   27  C   UNK N   1      21.622  12.013  11.511  0.00  0.00     0.004 A 
HETATM   28  C   UNK N   1      23.012  11.949  11.333  0.00  0.00     0.042 A 
HETATM   29  C   UNK N   1      23.624  12.633  10.280  0.00  0.00     0.117 A 
HETATM   30  C   UNK N   1      22.851  13.388   9.439  0.00  0.00     0.051 A 
HETATM   31  F   UNK N   1      24.966  12.619  10.115  0.00  0.00    -0.206 F 
ENDBRANCH  24  25
ENDBRANCH  23  24
ENDBRANCH  19  23
ENDBRANCH  14  16
ENDBRANCH   7  14
BRANCH   6  32
HETATM   32  N   UNK N   1      25.369  15.086   6.060  0.00  0.00    -0.321 N 
HETATM   33  C   UNK N   1      24.990  13.816   5.844  0.00  0.00     0.245 C 
HETATM   34  O   UNK N   1      25.092  13.003   6.750  0.00  0.00    -0.268 OA
HETATM   35  H   UNK N   1      25.748  15.183   6.964  0.00  0.00     0.169 HD
BRANCH  33  36
HETATM   36  C   UNK N   1      24.402  13.406   4.610  0.00  0.00     0.072 C 
HETATM   37  C   UNK N   1      23.102  13.325   4.463  0.00  0.00     0.008 C 
BRANCH  37  38
HETATM   38  C   UNK N   1      22.674  12.530   3.303  0.00  0.00     0.299 C 
BRANCH  38  39
HETATM   39  N   UNK N   1      21.939  11.346   3.672  0.00  0.00     0.083 N 
HETATM   40  C   UNK N   1      22.808  10.211   3.479  0.00  0.00     0.309 C 
HETATM   41  C   UNK N   1      21.027  11.211   2.570  0.00  0.00     0.309 C 
ENDBRANCH  38  39
ENDBRANCH  37  38
ENDBRANCH  33  36
ENDBRANCH   6  32
BRANCH   1  42
HETATM   42  O   UNK N   1      27.281  16.457   3.769  0.00  0.00    -0.349 OA
BRANCH  42  43
HETATM   43  C   UNK N   1      27.041  15.318   2.982  0.00  0.00     0.171 C 
HETATM   44  C   UNK N   1      25.995  15.563   1.870  0.00  0.00     0.034 C 
ENDBRANCH  42  43
ENDBRANCH   1  42
TORSDOF 11
ENDMDL
MODEL 8
REMARK VINA RESULT:      -7.7      3.307      6.991
REMARK  11 active torsions:
REMARK  status: ('A' for Active; 'I' for Inactive)
REMARK    1  A    between atoms: C_2  and  O_3 
REMARK    2  A    between atoms: O_3  and  C_4 
REMARK    3  A    between atoms: C_9  and  N_10 
REMARK       I    between atoms: N_10  and  C_11 
REMARK    4  A    between atoms: C_11  and  C_13 
REMARK    5  A    between atoms: C_14  and  C_15 
REMARK    6  A    between atoms: C_15  and  N_16 
REMARK    7  A    between atoms: C_19  and  N_26 
REMARK    8  A    between atoms: N_26  and  C_27 
REMARK    9  A    between atoms: C_30  and  O_34 
REMARK   10  A    between atoms: O_34  and  C_35 
REMARK   11  A    between atoms: C_35  and  C_36 
ROOT
HETATM    1  C   UNK N   1      25.964  17.988   4.193  0.00  0.00     0.097 C 
HETATM    2  C   UNK N   1      25.367  19.155   3.655  0.00  0.00     0.069 C 
HETATM    3  C   UNK N   1      24.047  19.366   3.759  0.00  0.00     0.047 C 
HETATM    4  C   UNK N   1      23.351  18.440   4.457  0.00  0.00     0.021 C 
HETATM    5  C   UNK N   1      23.975  17.541   5.289  0.00  0.00     0.048 C 
HETATM    6  C   UNK N   1      25.261  17.250   5.229  0.00  0.00     0.069 C 
HETATM    7  C   UNK N   1      22.055  18.223   4.156  0.00  0.00     0.064 C 
HETATM    8  C   UNK N   1      21.374  19.074   3.286  0.00  0.00     0.087 C 
HETATM    9  C   UNK N   1      22.084  20.122   2.702  0.00  0.00     0.113 C 
HETATM   10  N   UNK N   1      23.424  20.222   2.912  0.00  0.00    -0.364 N 
ATOM     11  HN  UNK N   1      23.962  20.942   2.430  1.00  0.00     0.165 HD
HETATM   12  C   UNK N   1      19.980  18.929   3.006  0.00  0.00     0.103 C 
HETATM   13  N   UNK N   1      18.855  18.848   2.753  0.00  0.00    -0.191 NA
ENDROOT
BRANCH   7  14
HETATM   14  N   UNK N   1      21.517  17.046   4.674  0.00  0.00    -0.377 N 
HETATM   15  H   UNK N   1      21.917  16.166   4.490  0.00  0.00     0.160 HD
BRANCH  14  16
HETATM   16  C   UNK N   1      20.379  17.185   5.469  0.00  0.00     0.130 C 
HETATM   17  C   UNK N   1      20.745  17.498   6.760  0.00  0.00     0.005 C 
HETATM   18  C   UNK N   1      21.034  16.451   7.574  0.00  0.00     0.037 C 
HETATM   19  C   UNK N   1      20.808  15.175   7.080  0.00  0.00     0.090 C 
HETATM   20  C   UNK N   1      20.120  14.955   5.851  0.00  0.00     0.066 C 
HETATM   21  C   UNK N   1      19.660  16.052   5.213  0.00  0.00     0.028 C 
HETATM   22 Cl   UNK N   1      19.805  13.419   5.058  0.00  0.00    -0.082 Cl
BRANCH  19  23
HETATM   23  O   UNK N   1      20.954  14.220   7.917  0.00  0.00    -0.345 OA
BRANCH  23  24
HETATM   24  C   UNK N   1      22.246  13.811   7.980  0.00  0.00     0.214 C 
BRANCH  24  25
HETATM   25  C   UNK N   1      22.368  13.399   9.310  0.00  0.00    -0.031 A 
HETATM   26  C   UNK N   1      23.606  12.954   9.683  0.00  0.00     0.009 A 
HETATM   27  C   UNK N   1      23.718  12.204  10.835  0.00  0.00     0.004 A 
HETATM   28  C   UNK N   1      22.571  11.876  11.572  0.00  0.00     0.042 A 
HETATM   29  C   UNK N   1      21.315  12.338  11.171  0.00  0.00     0.117 A 
HETATM   30  C   UNK N   1      21.217  13.094  10.033  0.00  0.00     0.051 A 
HETATM   31  F   UNK N   1      20.192  12.001  11.843  0.00  0.00    -0.206 F 
ENDBRANCH  24  25
ENDBRANCH  23  24
ENDBRANCH  19  23
ENDBRANCH  14  16
ENDBRANCH   7  14
BRANCH   6  32
HETATM   32  N   UNK N   1      25.515  16.093   6.038  0.00  0.00    -0.321 N 
HETATM   33  C   UNK N   1      25.258  14.776   6.032  0.00  0.00     0.245 C 
HETATM   34  O   UNK N   1      25.613  14.097   6.984  0.00  0.00    -0.268 OA
HETATM   35  H   UNK N   1      26.033  16.340   6.838  0.00  0.00     0.169 HD
BRANCH  33  36
HETATM   36  C   UNK N   1      24.516  14.158   4.983  0.00  0.00     0.072 C 
HETATM   37  C   UNK N   1      25.061  13.895   3.819  0.00  0.00     0.008 C 
BRANCH  37  38
HETATM   38  C   UNK N   1      24.094  13.636   2.743  0.00  0.00     0.299 C 
BRANCH  38  39
HETATM   39  N   UNK N   1      24.721  13.396   1.468  0.00  0.00     0.083 N 
HETATM   40  C   UNK N   1      23.809  13.836   0.440  0.00  0.00     0.309 C 
HETATM   41  C   UNK N   1      24.625  11.966   1.357  0.00  0.00     0.309 C 
ENDBRANCH  38  39
ENDBRANCH  37  38
ENDBRANCH  33  36
ENDBRANCH   6  32
BRANCH   1  42
HETATM   42  O   UNK N   1      27.039  17.550   3.519  0.00  0.00    -0.349 OA
BRANCH  42  43
HETATM   43  C   UNK N   1      28.283  17.457   4.165  0.00  0.00     0.171 C 
HETATM   44  C   UNK N   1      28.596  18.686   5.050  0.00  0.00     0.034 C 
ENDBRANCH  42  43
ENDBRANCH   1  42
TORSDOF 11
ENDMDL
MODEL 9
REMARK VINA RESULT:      -7.5      2.989      6.367
REMARK  11 active torsions:
REMARK  status: ('A' for Active; 'I' for Inactive)
REMARK    1  A    between atoms: C_2  and  O_3 
REMARK    2  A    between atoms: O_3  and  C_4 
REMARK    3  A    between atoms: C_9  and  N_10 
REMARK       I    between atoms: N_10  and  C_11 
REMARK    4  A    between atoms: C_11  and  C_13 
REMARK    5  A    between atoms: C_14  and  C_15 
REMARK    6  A    between atoms: C_15  and  N_16 
REMARK    7  A    between atoms: C_19  and  N_26 
REMARK    8  A    between atoms: N_26  and  C_27 
REMARK    9  A    between atoms: C_30  and  O_34 
REMARK   10  A    between atoms: O_34  and  C_35 
REMARK   11  A    between atoms: C_35  and  C_36 
ROOT
HETATM    1  C   UNK N   1      19.858  16.170   8.236  0.00  0.00     0.097 C 
HETATM    2  C   UNK N   1      20.089  15.227   9.267  0.00  0.00     0.069 C 
HETATM    3  C   UNK N   1      21.111  14.361   9.194  0.00  0.00     0.047 C 
HETATM    4  C   UNK N   1      21.925  14.492   8.122  0.00  0.00     0.021 C 
HETATM    5  C   UNK N   1      21.926  15.629   7.349  0.00  0.00     0.048 C 
HETATM    6  C   UNK N   1      20.946  16.513   7.336  0.00  0.00     0.069 C 
HETATM    7  C   UNK N   1      22.571  13.409   7.647  0.00  0.00     0.064 C 
HETATM    8  C   UNK N   1      22.576  12.212   8.361  0.00  0.00     0.087 C 
HETATM    9  C   UNK N   1      21.852  12.155   9.552  0.00  0.00     0.113 C 
HETATM   10  N   UNK N   1      21.091  13.218   9.924  0.00  0.00    -0.364 N 
ATOM     11  HN  UNK N   1      20.502  13.157  10.755  1.00  0.00     0.165 HD
HETATM   12  C   UNK N   1      23.317  11.066   7.936  0.00  0.00     0.103 C 
HETATM   13  N   UNK N   1      23.902  10.119   7.628  0.00  0.00    -0.191 NA
ENDROOT
BRANCH   7  14
HETATM   14  N   UNK N   1      23.108  13.555   6.368  0.00  0.00    -0.377 N 
HETATM   15  H   UNK N   1      22.555  13.826   5.600  0.00  0.00     0.160 HD
BRANCH  14  16
HETATM   16  C   UNK N   1      24.472  13.293   6.238  0.00  0.00     0.130 C 
HETATM   17  C   UNK N   1      25.180  14.024   7.169  0.00  0.00     0.005 C 
HETATM   18  C   UNK N   1      25.515  15.290   6.812  0.00  0.00     0.037 C 
HETATM   19  C   UNK N   1      25.236  15.683   5.512  0.00  0.00     0.090 C 
HETATM   20  C   UNK N   1      24.799  14.754   4.522  0.00  0.00     0.066 C 
HETATM   21  C   UNK N   1      24.712  13.463   4.904  0.00  0.00     0.028 C 
HETATM   22 Cl   UNK N   1      24.349  15.094   2.858  0.00  0.00    -0.082 Cl
BRANCH  19  23
HETATM   23  O   UNK N   1      25.691  16.827   5.167  0.00  0.00    -0.345 OA
BRANCH  23  24
HETATM   24  C   UNK N   1      27.047  16.847   5.187  0.00  0.00     0.214 C 
BRANCH  24  25
HETATM   25  C   UNK N   1      27.331  18.211   5.092  0.00  0.00    -0.031 A 
HETATM   26  C   UNK N   1      27.620  18.842   6.270  0.00  0.00     0.009 A 
HETATM   27  C   UNK N   1      27.548  20.219   6.318  0.00  0.00     0.004 A 
HETATM   28  C   UNK N   1      27.144  20.938   5.183  0.00  0.00     0.042 A 
HETATM   29  C   UNK N   1      26.851  20.274   3.990  0.00  0.00     0.117 A 
HETATM   30  C   UNK N   1      26.938  18.907   3.951  0.00  0.00     0.051 A 
HETATM   31  F   UNK N   1      26.420  20.943   2.897  0.00  0.00    -0.206 F 
ENDBRANCH  24  25
ENDBRANCH  23  24
ENDBRANCH  19  23
ENDBRANCH  14  16
ENDBRANCH   7  14
BRANCH   6  32
HETATM   32  N   UNK N   1      21.143  17.411   6.235  0.00  0.00    -0.321 N 
HETATM   33  C   UNK N   1      20.829  17.502   4.933  0.00  0.00     0.245 C 
HETATM   34  O   UNK N   1      21.254  18.446   4.284  0.00  0.00    -0.268 OA
HETATM   35  H   UNK N   1      21.666  18.195   6.519  0.00  0.00     0.169 HD
BRANCH  33  36
HETATM   36  C   UNK N   1      20.076  16.491   4.268  0.00  0.00     0.072 C 
HETATM   37  C   UNK N   1      20.660  15.544   3.573  0.00  0.00     0.008 C 
BRANCH  37  38
HETATM   38  C   UNK N   1      19.767  14.834   2.647  0.00  0.00     0.299 C 
BRANCH  38  39
HETATM   39  N   UNK N   1      20.381  13.676   2.047  0.00  0.00     0.083 N 
HETATM   40  C   UNK N   1      21.319  13.134   2.999  0.00  0.00     0.309 C 
HETATM   41  C   UNK N   1      21.254  14.276   1.077  0.00  0.00     0.309 C 
ENDBRANCH  38  39
ENDBRANCH  37  38
ENDBRANCH  33  36
ENDBRANCH   6  32
BRANCH   1  42
HETATM   42  O   UNK N   1      18.567  16.490   8.053  0.00  0.00    -0.349 OA
BRANCH  42  43
HETATM   43  C   UNK N   1      17.740  16.735   9.162  0.00  0.00     0.171 C 
HETATM   44  C   UNK N   1      18.028  18.095   9.840  0.00  0.00     0.034 C 
ENDBRANCH  42  43
ENDBRANCH   1  42
TORSDOF 11
ENDMDL
