REMARK  12 active torsions:
REMARK  status: ('A' for Active; 'I' for Inactive)
REMARK    1  A    between atoms: C_2  and  C_3 
REMARK    2  A    between atoms: C_3  and  C_4 
REMARK    3  A    between atoms: C_5  and  O_14 
REMARK    4  A    between atoms: C_8  and  C_11 
REMARK    5  A    between atoms: C_9  and  O_10 
REMARK    6  A    between atoms: O_14  and  C_15 
REMARK    7  A    between atoms: C_15  and  C_16 
REMARK    8  A    between atoms: C_19  and  C_22 
REMARK    9  A    between atoms: C_22  and  C_23 
REMARK   10  A    between atoms: C_22  and  O_32 
REMARK   11  A    between atoms: C_27  and  C_29 
REMARK   12  A    between atoms: C_29  and  O_31 
ROOT
HETATM    1  C   UNK N   1      -0.733  -3.416  -0.408  0.00  0.00    -0.034 A 
HETATM    2  C   UNK N   1      -0.760  -2.411   0.565  0.00  0.00     0.010 A 
HETATM    3  C   UNK N   1       0.381  -1.634   0.790  0.00  0.00     0.011 A 
HETATM    4  C   UNK N   1       1.541  -1.852   0.023  0.00  0.00    -0.025 A 
HETATM    5  C   UNK N   1       1.568  -2.885  -0.913  0.00  0.00     0.011 A 
HETATM    6  C   UNK N   1       0.436  -3.666  -1.126  0.00  0.00     0.010 A 
ENDROOT
BRANCH   1   7
HETATM    7  C   UNK N   1      -1.984  -4.081  -0.837  0.00  0.00     0.214 C 
BRANCH   7   8
HETATM    8  O   UNK N   1      -2.383  -5.061   0.034  0.00  0.00    -0.346 OA
BRANCH   8   9
HETATM    9  C   UNK N   1      -3.670  -5.482   0.085  0.00  0.00     0.078 A 
HETATM   10  C   UNK N   1      -4.777  -4.585   0.052  0.00  0.00     0.009 A 
HETATM   11  C   UNK N   1      -6.093  -5.123   0.081  0.00  0.00     0.088 A 
HETATM   12  C   UNK N   1      -6.289  -6.524   0.139  0.00  0.00     0.043 A 
HETATM   13  C   UNK N   1      -5.177  -7.368   0.187  0.00  0.00     0.021 A 
HETATM   14  C   UNK N   1      -3.889  -6.854   0.168  0.00  0.00     0.038 A 
BRANCH  10  15
HETATM   15  C   UNK N   1      -4.498  -3.088   0.014  0.00  0.00     0.044 C 
BRANCH  15  16
HETATM   16  C   UNK N   1      -5.670  -2.121   0.034  0.00  0.00     0.000 C 
HETATM   17  C   UNK N   1      -5.151  -0.698   0.010  0.00  0.00     0.005 C 
ENDBRANCH  15  16
ENDBRANCH  10  15
BRANCH  11  18
HETATM   18  O   UNK N   1      -7.164  -4.309   0.052  0.00  0.00    -0.359 OA
HETATM   19  H   UNK N   1      -7.046  -3.380   0.032  0.00  0.00     0.217 HD
ENDBRANCH  11  18
BRANCH  12  20
HETATM   20  C   UNK N   1      -7.647  -7.136   0.154  0.00  0.00     0.158 C 
HETATM   21  O   UNK N   1      -8.649  -6.439   0.123  0.00  0.00    -0.293 OA
HETATM   22  C   UNK N   1      -7.811  -8.622   0.198  0.00  0.00     0.097 C 
ENDBRANCH  12  20
ENDBRANCH   8   9
ENDBRANCH   7   8
ENDBRANCH   1   7
BRANCH   4  23
HETATM   23  C   UNK N   1       2.674  -0.866   0.025  0.00  0.00     0.184 C 
BRANCH  23  24
HETATM   24  C   UNK N   1       2.280   0.592  -0.103  0.00  0.00    -0.024 A 
HETATM   25  C   UNK N   1       0.981   0.959  -0.504  0.00  0.00     0.010 A 
HETATM   26  C   UNK N   1       0.626   2.300  -0.637  0.00  0.00     0.002 A 
HETATM   27  C   UNK N   1       1.567   3.296  -0.380  0.00  0.00     0.018 A 
HETATM   28  C   UNK N   1       2.872   2.949   0.006  0.00  0.00     0.038 A 
HETATM   29  C   UNK N   1       3.221   1.599   0.138  0.00  0.00     0.028 A 
BRANCH  28  30
HETATM   30  C   UNK N   1       3.867   4.005   0.266  0.00  0.00     0.176 C 
HETATM   31  O   UNK N   1       3.566   5.178   0.169  0.00  0.00    -0.646 OA
BRANCH  30  32
HETATM   32  O   UNK N   1       5.130   3.667   0.611  0.00  0.00    -0.773 OA
HETATM   33  H   UNK N   1       5.364   2.791   0.850  0.00  0.00     0.167 HD
ENDBRANCH  30  32
ENDBRANCH  28  30
ENDBRANCH  23  24
BRANCH  23  34
HETATM   34  O   UNK N   1       3.656  -1.127   0.982  0.00  0.00    -0.386 OA
HETATM   35  H   UNK N   1       3.840  -1.808   1.648  0.00  0.00     0.210 HD
ENDBRANCH  23  34
ENDBRANCH   4  23
TORSDOF 12
