REMARK  7 active torsions:
REMARK  status: ('A' for Active; 'I' for Inactive)
REMARK    1  A    between atoms: C_3  and  O_20 
REMARK    2  A    between atoms: C_4  and  C_18 
REMARK    3  A    between atoms: C_5  and  O_7 
REMARK    4  A    between atoms: O_7  and  C_8 
REMARK    5  A    between atoms: C_8  and  C_9 
REMARK    6  A    between atoms: C_12  and  C_15 
REMARK    7  A    between atoms: C_15  and  O_17 
ROOT
HETATM    1  O   UNK N   1       1.591  -2.114  -0.000  0.00  0.00    -0.346 OA
ENDROOT
BRANCH   1   2
HETATM    2  C   UNK N   1       1.607  -3.481  -0.000  0.00  0.00     0.085 A 
HETATM    3  C   UNK N   1       0.454  -4.370  -0.000  0.00  0.00     0.068 A 
HETATM    4  C   UNK N   1       0.687  -5.766   0.000  0.00  0.00     0.081 A 
HETATM    5  C   UNK N   1       1.979  -6.282   0.000  0.00  0.00     0.037 A 
HETATM    6  C   UNK N   1       3.074  -5.434  -0.000  0.00  0.00     0.005 A 
HETATM    7  C   UNK N   1       2.886  -4.056  -0.000  0.00  0.00     0.038 A 
BRANCH   3   8
HETATM    8  C   UNK N   1      -1.000  -4.010  -0.000  0.00  0.00     0.275 C 
HETATM    9  O   UNK N   1      -1.472  -2.891  -0.000  0.00  0.00    -0.301 OA
ENDBRANCH   3   8
BRANCH   4  10
HETATM   10  O   UNK N   1      -0.348  -6.629   0.000  0.00  0.00    -0.360 OA
HETATM   11  H   UNK N   1      -1.227  -6.305   0.000  0.00  0.00     0.217 HD
ENDBRANCH   4  10
ENDBRANCH   1   2
BRANCH   1  12
HETATM   12  C   UNK N   1       0.479  -1.319   0.000  0.00  0.00     0.214 C 
BRANCH  12  13
HETATM   13  C   UNK N   1       0.727   0.152   0.000  0.00  0.00    -0.034 A 
HETATM   14  C   UNK N   1      -0.397   0.979   0.000  0.00  0.00     0.010 A 
HETATM   15  C   UNK N   1      -0.259   2.363   0.000  0.00  0.00     0.019 A 
HETATM   16  C   UNK N   1       1.011   2.945  -0.000  0.00  0.00     0.037 A 
HETATM   17  C   UNK N   1       2.150   2.119  -0.000  0.00  0.00     0.019 A 
HETATM   18  C   UNK N   1       2.009   0.721   0.000  0.00  0.00     0.010 A 
BRANCH  16  19
HETATM   19  C   UNK N   1       1.141   4.416  -0.000  0.00  0.00     0.176 C 
HETATM   20  O   UNK N   1       0.140   5.121  -0.000  0.00  0.00    -0.646 OA
BRANCH  19  21
HETATM   21  O   UNK N   1       2.356   4.994  -0.000  0.00  0.00    -0.773 OA
HETATM   22  H   UNK N   1       3.128   4.462  -0.000  0.00  0.00     0.167 HD
ENDBRANCH  19  21
ENDBRANCH  16  19
ENDBRANCH  12  13
ENDBRANCH   1  12
TORSDOF 7
