MODEL 1
REMARK VINA RESULT:      -8.2      0.000      0.000
REMARK  3 active torsions:
REMARK  status: ('A' for Active; 'I' for Inactive)
REMARK    1  A    between atoms: C_4  and  C_8 
REMARK    2  A    between atoms: C_16  and  C_20 
REMARK    3  A    between atoms: C_20  and  C_21 
ROOT
HETATM    1  C   UNK N   1      28.927  16.938   6.079  0.00  0.00     0.061 A 
HETATM    2  C   UNK N   1      28.171  15.755   5.903  0.00  0.00     0.036 A 
HETATM    3  C   UNK N   1      28.761  14.627   5.318  0.00  0.00     0.054 A 
HETATM    4  C   UNK N   1      30.086  14.745   4.934  0.00  0.00     0.143 A 
HETATM    5  N   UNK N   1      30.866  13.803   4.377  0.00  0.00    -0.282 N 
ATOM      6  HN  UNK N   1      30.586  12.858   4.114  1.00  0.00     0.188 HD
HETATM    7  N   UNK N   1      32.075  14.343   4.235  0.00  0.00    -0.281 N 
ATOM      8  HN  UNK N   1      32.898  13.885   3.844  1.00  0.00     0.188 HD
HETATM    9  C   UNK N   1      32.013  15.615   4.706  0.00  0.00     0.198 A 
HETATM   10  N   UNK N   1      30.768  15.874   5.135  0.00  0.00    -0.218 N 
HETATM   11  N   UNK N   1      30.240  16.964   5.693  0.00  0.00    -0.290 N 
ATOM     12  HN  UNK N   1      30.805  17.801   5.830  1.00  0.00     0.187 HD
ENDROOT
BRANCH   9  13
HETATM   13  C   UNK N   1      33.227  16.501   4.851  0.00  0.00     0.331 C 
HETATM   14  F   UNK N   1      34.243  15.930   4.106  0.00  0.00    -0.192 F 
HETATM   15  F   UNK N   1      32.918  17.719   4.262  0.00  0.00    -0.192 F 
BRANCH  13  16
HETATM   16  C   UNK N   1      33.778  16.761   6.240  0.00  0.00     0.022 A 
HETATM   17  C   UNK N   1      33.417  17.910   6.965  0.00  0.00     0.016 A 
HETATM   18  C   UNK N   1      33.766  18.035   8.318  0.00  0.00     0.031 A 
HETATM   19  C   UNK N   1      34.459  17.004   8.963  0.00  0.00     0.042 A 
HETATM   20  C   UNK N   1      34.842  15.860   8.235  0.00  0.00    -0.009 A 
HETATM   21  N   UNK N   1      34.748  17.090  10.291  0.00  0.00    -0.365 N 
HETATM   22  C   UNK N   1      34.504  15.745   6.888  0.00  0.00     0.027 A 
HETATM   23  C   UNK N   1      35.522  14.830   8.886  0.00  0.00     0.015 A 
HETATM   24  C   UNK N   1      35.805  14.942  10.248  0.00  0.00     0.018 A 
HETATM   25  C   UNK N   1      35.403  16.087  10.942  0.00  0.00     0.088 A 
ATOM     26  HN  UNK N   1      34.468  17.922  10.810  1.00  0.00     0.165 HD
ENDBRANCH  13  16
ENDBRANCH   9  13
BRANCH   1  27
HETATM   27  C   UNK N   1      28.300  18.143   6.636  0.00  0.00     0.026 A 
HETATM   28  C   UNK N   1      27.823  19.233   5.935  0.00  0.00     0.124 A 
HETATM   29  N   UNK N   1      27.366  20.111   6.842  0.00  0.00    -0.307 N 
HETATM   30  C   UNK N   1      26.772  21.400   6.545  0.00  0.00     0.177 C 
HETATM   31  N   UNK N   1      27.533  19.638   8.066  0.00  0.00    -0.310 N 
HETATM   32  C   UNK N   1      28.108  18.423   7.977  0.00  0.00     0.122 A 
ATOM     33  HN  UNK N   1      27.272  20.113   8.929  1.00  0.00     0.186 HD
ENDBRANCH   1  27
TORSDOF 3
ENDMDL
MODEL 2
REMARK VINA RESULT:      -8.2      4.014      9.541
REMARK  3 active torsions:
REMARK  status: ('A' for Active; 'I' for Inactive)
REMARK    1  A    between atoms: C_4  and  C_8 
REMARK    2  A    between atoms: C_16  and  C_20 
REMARK    3  A    between atoms: C_20  and  C_21 
ROOT
HETATM    1  C   UNK N   1      29.940  17.306   6.718  0.00  0.00     0.061 A 
HETATM    2  C   UNK N   1      29.925  17.696   8.078  0.00  0.00     0.036 A 
HETATM    3  C   UNK N   1      28.971  18.615   8.533  0.00  0.00     0.054 A 
HETATM    4  C   UNK N   1      28.076  19.100   7.594  0.00  0.00     0.143 A 
HETATM    5  N   UNK N   1      27.066  19.964   7.792  0.00  0.00    -0.282 N 
ATOM      6  HN  UNK N   1      26.827  20.430   8.668  1.00  0.00     0.188 HD
HETATM    7  N   UNK N   1      26.441  20.096   6.625  0.00  0.00    -0.281 N 
ATOM      8  HN  UNK N   1      25.626  20.681   6.439  1.00  0.00     0.188 HD
HETATM    9  C   UNK N   1      27.083  19.308   5.725  0.00  0.00     0.198 A 
HETATM   10  N   UNK N   1      28.114  18.691   6.324  0.00  0.00    -0.218 N 
HETATM   11  N   UNK N   1      29.004  17.815   5.859  0.00  0.00    -0.290 N 
ATOM     12  HN  UNK N   1      28.988  17.530   4.880  1.00  0.00     0.187 HD
ENDROOT
BRANCH   9  13
HETATM   13  C   UNK N   1      26.576  19.075   4.321  0.00  0.00     0.331 C 
HETATM   14  F   UNK N   1      27.440  19.726   3.460  0.00  0.00    -0.192 F 
HETATM   15  F   UNK N   1      26.687  17.716   4.067  0.00  0.00    -0.192 F 
BRANCH  13  16
HETATM   16  C   UNK N   1      25.169  19.521   3.972  0.00  0.00     0.022 A 
HETATM   17  C   UNK N   1      24.940  20.653   3.172  0.00  0.00     0.016 A 
HETATM   18  C   UNK N   1      23.653  20.933   2.688  0.00  0.00     0.031 A 
HETATM   19  C   UNK N   1      22.590  20.073   2.982  0.00  0.00     0.042 A 
HETATM   20  C   UNK N   1      22.809  18.948   3.802  0.00  0.00    -0.009 A 
HETATM   21  N   UNK N   1      21.351  20.302   2.466  0.00  0.00    -0.365 N 
HETATM   22  C   UNK N   1      24.088  18.680   4.290  0.00  0.00     0.027 A 
HETATM   23  C   UNK N   1      21.749  18.086   4.082  0.00  0.00     0.015 A 
HETATM   24  C   UNK N   1      20.488  18.344   3.540  0.00  0.00     0.018 A 
HETATM   25  C   UNK N   1      20.307  19.464   2.724  0.00  0.00     0.088 A 
ATOM     26  HN  UNK N   1      21.200  21.120   1.875  1.00  0.00     0.165 HD
ENDBRANCH  13  16
ENDBRANCH   9  13
BRANCH   1  27
HETATM   27  C   UNK N   1      30.975  16.390   6.221  0.00  0.00     0.026 A 
HETATM   28  C   UNK N   1      32.251  16.720   5.810  0.00  0.00     0.124 A 
HETATM   29  N   UNK N   1      32.838  15.582   5.406  0.00  0.00    -0.307 N 
HETATM   30  C   UNK N   1      34.190  15.465   4.895  0.00  0.00     0.177 C 
HETATM   31  N   UNK N   1      32.005  14.564   5.535  0.00  0.00    -0.310 N 
HETATM   32  C   UNK N   1      30.843  15.026   6.036  0.00  0.00     0.122 A 
ATOM     33  HN  UNK N   1      32.208  13.593   5.294  1.00  0.00     0.186 HD
ENDBRANCH   1  27
TORSDOF 3
ENDMDL
MODEL 3
REMARK VINA RESULT:      -8.0      4.952      7.723
REMARK  3 active torsions:
REMARK  status: ('A' for Active; 'I' for Inactive)
REMARK    1  A    between atoms: C_4  and  C_8 
REMARK    2  A    between atoms: C_16  and  C_20 
REMARK    3  A    between atoms: C_20  and  C_21 
ROOT
HETATM    1  C   UNK N   1      22.788  17.125   5.300  0.00  0.00     0.061 A 
HETATM    2  C   UNK N   1      21.469  17.466   4.919  0.00  0.00     0.036 A 
HETATM    3  C   UNK N   1      21.241  18.582   4.103  0.00  0.00     0.054 A 
HETATM    4  C   UNK N   1      22.356  19.305   3.712  0.00  0.00     0.143 A 
HETATM    5  N   UNK N   1      22.394  20.390   2.919  0.00  0.00    -0.282 N 
ATOM      6  HN  UNK N   1      21.593  20.875   2.513  1.00  0.00     0.188 HD
HETATM    7  N   UNK N   1      23.678  20.710   2.770  0.00  0.00    -0.281 N 
ATOM      8  HN  UNK N   1      24.046  21.486   2.221  1.00  0.00     0.188 HD
HETATM    9  C   UNK N   1      24.408  19.812   3.480  0.00  0.00     0.198 A 
HETATM   10  N   UNK N   1      23.585  18.938   4.079  0.00  0.00    -0.218 N 
HETATM   11  N   UNK N   1      23.838  17.879   4.849  0.00  0.00    -0.290 N 
ATOM     12  HN  UNK N   1      24.796  17.637   5.098  1.00  0.00     0.187 HD
ENDROOT
BRANCH   9  13
HETATM   13  C   UNK N   1      25.917  19.756   3.435  0.00  0.00     0.331 C 
HETATM   14  F   UNK N   1      26.264  18.598   2.762  0.00  0.00    -0.192 F 
HETATM   15  F   UNK N   1      26.343  20.826   2.661  0.00  0.00    -0.192 F 
BRANCH  13  16
HETATM   16  C   UNK N   1      26.686  19.766   4.742  0.00  0.00     0.022 A 
HETATM   17  C   UNK N   1      26.395  20.700   5.752  0.00  0.00     0.016 A 
HETATM   18  C   UNK N   1      26.967  20.568   7.027  0.00  0.00     0.031 A 
HETATM   19  C   UNK N   1      27.816  19.492   7.309  0.00  0.00     0.042 A 
HETATM   20  C   UNK N   1      28.128  18.566   6.293  0.00  0.00    -0.009 A 
HETATM   21  N   UNK N   1      28.326  19.322   8.560  0.00  0.00    -0.365 N 
HETATM   22  C   UNK N   1      27.566  18.707   5.025  0.00  0.00     0.027 A 
HETATM   23  C   UNK N   1      28.964  17.488   6.582  0.00  0.00     0.015 A 
HETATM   24  C   UNK N   1      29.473  17.336   7.873  0.00  0.00     0.018 A 
HETATM   25  C   UNK N   1      29.137  18.269   8.859  0.00  0.00     0.088 A 
ATOM     26  HN  UNK N   1      28.096  19.998   9.288  1.00  0.00     0.165 HD
ENDBRANCH  13  16
ENDBRANCH   9  13
BRANCH   1  27
HETATM   27  C   UNK N   1      23.030  15.993   6.204  0.00  0.00     0.026 A 
HETATM   28  C   UNK N   1      24.225  15.333   6.410  0.00  0.00     0.124 A 
HETATM   29  N   UNK N   1      23.980  14.348   7.289  0.00  0.00    -0.307 N 
HETATM   30  C   UNK N   1      24.958  13.404   7.793  0.00  0.00     0.177 C 
HETATM   31  N   UNK N   1      22.705  14.349   7.638  0.00  0.00    -0.310 N 
HETATM   32  C   UNK N   1      22.087  15.354   6.987  0.00  0.00     0.122 A 
ATOM     33  HN  UNK N   1      22.265  13.700   8.290  1.00  0.00     0.186 HD
ENDBRANCH   1  27
TORSDOF 3
ENDMDL
MODEL 4
REMARK VINA RESULT:      -8.0      3.922      5.386
REMARK  3 active torsions:
REMARK  status: ('A' for Active; 'I' for Inactive)
REMARK    1  A    between atoms: C_4  and  C_8 
REMARK    2  A    between atoms: C_16  and  C_20 
REMARK    3  A    between atoms: C_20  and  C_21 
ROOT
HETATM    1  C   UNK N   1      24.159  18.253   4.851  0.00  0.00     0.061 A 
HETATM    2  C   UNK N   1      24.105  19.216   3.815  0.00  0.00     0.036 A 
HETATM    3  C   UNK N   1      25.284  19.819   3.357  0.00  0.00     0.054 A 
HETATM    4  C   UNK N   1      26.463  19.425   3.967  0.00  0.00     0.143 A 
HETATM    5  N   UNK N   1      27.711  19.841   3.688  0.00  0.00    -0.282 N 
ATOM      6  HN  UNK N   1      27.978  20.547   3.002  1.00  0.00     0.188 HD
HETATM    7  N   UNK N   1      28.529  19.152   4.481  0.00  0.00    -0.281 N 
ATOM      8  HN  UNK N   1      29.546  19.231   4.512  1.00  0.00     0.188 HD
HETATM    9  C   UNK N   1      27.765  18.324   5.239  0.00  0.00     0.198 A 
HETATM   10  N   UNK N   1      26.471  18.499   4.928  0.00  0.00    -0.218 N 
HETATM   11  N   UNK N   1      25.370  17.902   5.383  0.00  0.00    -0.290 N 
ATOM     12  HN  UNK N   1      25.429  17.195   6.117  1.00  0.00     0.187 HD
ENDROOT
BRANCH   9  13
HETATM   13  C   UNK N   1      28.346  17.275   6.157  0.00  0.00     0.331 C 
HETATM   14  F   UNK N   1      27.395  17.005   7.123  0.00  0.00    -0.192 F 
HETATM   15  F   UNK N   1      28.511  16.120   5.406  0.00  0.00    -0.192 F 
BRANCH  13  16
HETATM   16  C   UNK N   1      29.647  17.576   6.875  0.00  0.00     0.022 A 
HETATM   17  C   UNK N   1      29.656  18.108   8.176  0.00  0.00     0.016 A 
HETATM   18  C   UNK N   1      30.853  18.186   8.904  0.00  0.00     0.031 A 
HETATM   19  C   UNK N   1      32.047  17.715   8.345  0.00  0.00     0.042 A 
HETATM   20  C   UNK N   1      32.047  17.202   7.033  0.00  0.00    -0.009 A 
HETATM   21  N   UNK N   1      33.202  17.731   9.066  0.00  0.00    -0.365 N 
HETATM   22  C   UNK N   1      30.857  17.136   6.309  0.00  0.00     0.027 A 
HETATM   23  C   UNK N   1      33.237  16.723   6.485  0.00  0.00     0.015 A 
HETATM   24  C   UNK N   1      34.408  16.749   7.245  0.00  0.00     0.018 A 
HETATM   25  C   UNK N   1      34.370  17.258   8.547  0.00  0.00     0.088 A 
ATOM     26  HN  UNK N   1      33.193  18.106  10.014  1.00  0.00     0.165 HD
ENDBRANCH  13  16
ENDBRANCH   9  13
BRANCH   1  27
HETATM   27  C   UNK N   1      22.923  17.661   5.377  0.00  0.00     0.026 A 
HETATM   28  C   UNK N   1      22.758  16.384   5.875  0.00  0.00     0.124 A 
HETATM   29  N   UNK N   1      21.465  16.260   6.212  0.00  0.00    -0.307 N 
HETATM   30  C   UNK N   1      20.849  15.076   6.780  0.00  0.00     0.177 C 
HETATM   31  N   UNK N   1      20.811  17.380   5.950  0.00  0.00    -0.310 N 
HETATM   32  C   UNK N   1      21.682  18.269   5.433  0.00  0.00     0.122 A 
ATOM     33  HN  UNK N   1      19.818  17.542   6.112  1.00  0.00     0.186 HD
ENDBRANCH   1  27
TORSDOF 3
ENDMDL
MODEL 5
REMARK VINA RESULT:      -8.0      2.828      7.325
REMARK  3 active torsions:
REMARK  status: ('A' for Active; 'I' for Inactive)
REMARK    1  A    between atoms: C_4  and  C_8 
REMARK    2  A    between atoms: C_16  and  C_20 
REMARK    3  A    between atoms: C_20  and  C_21 
ROOT
HETATM    1  C   UNK N   1      34.068  13.238   9.440  0.00  0.00     0.061 A 
HETATM    2  C   UNK N   1      34.430  13.128  10.804  0.00  0.00     0.036 A 
HETATM    3  C   UNK N   1      34.863  14.260  11.508  0.00  0.00     0.054 A 
HETATM    4  C   UNK N   1      34.912  15.450  10.802  0.00  0.00     0.143 A 
HETATM    5  N   UNK N   1      35.269  16.662  11.261  0.00  0.00    -0.282 N 
ATOM      6  HN  UNK N   1      35.599  16.884  12.201  1.00  0.00     0.188 HD
HETATM    7  N   UNK N   1      35.110  17.515  10.252  0.00  0.00    -0.281 N 
ATOM      8  HN  UNK N   1      35.292  18.519  10.275  1.00  0.00     0.188 HD
HETATM    9  C   UNK N   1      34.659  16.807   9.184  0.00  0.00     0.198 A 
HETATM   10  N   UNK N   1      34.544  15.513   9.521  0.00  0.00    -0.218 N 
HETATM   11  N   UNK N   1      34.123  14.458   8.824  0.00  0.00    -0.290 N 
ATOM     12  HN  UNK N   1      33.847  14.559   7.847  1.00  0.00     0.187 HD
ENDROOT
BRANCH   9  13
HETATM   13  C   UNK N   1      34.217  17.453   7.892  0.00  0.00     0.331 C 
HETATM   14  F   UNK N   1      34.683  18.755   7.905  0.00  0.00    -0.192 F 
HETATM   15  F   UNK N   1      34.868  16.792   6.861  0.00  0.00    -0.192 F 
BRANCH  13  16
HETATM   16  C   UNK N   1      32.735  17.508   7.575  0.00  0.00     0.022 A 
HETATM   17  C   UNK N   1      32.230  17.006   6.363  0.00  0.00     0.016 A 
HETATM   18  C   UNK N   1      30.846  16.874   6.171  0.00  0.00     0.031 A 
HETATM   19  C   UNK N   1      29.958  17.222   7.195  0.00  0.00     0.042 A 
HETATM   20  C   UNK N   1      30.458  17.747   8.403  0.00  0.00    -0.009 A 
HETATM   21  N   UNK N   1      28.617  17.040   7.041  0.00  0.00    -0.365 N 
HETATM   22  C   UNK N   1      31.834  17.887   8.586  0.00  0.00     0.027 A 
HETATM   23  C   UNK N   1      29.570  18.081   9.426  0.00  0.00     0.015 A 
HETATM   24  C   UNK N   1      28.200  17.883   9.243  0.00  0.00     0.018 A 
HETATM   25  C   UNK N   1      27.739  17.353   8.034  0.00  0.00     0.088 A 
ATOM     26  HN  UNK N   1      28.263  16.661   6.162  1.00  0.00     0.165 HD
ENDBRANCH  13  16
ENDBRANCH   9  13
BRANCH   1  27
HETATM   27  C   UNK N   1      33.672  12.046   8.681  0.00  0.00     0.026 A 
HETATM   28  C   UNK N   1      33.952  11.771   7.357  0.00  0.00     0.124 A 
HETATM   29  N   UNK N   1      33.371  10.595   7.071  0.00  0.00    -0.307 N 
HETATM   30  C   UNK N   1      33.413   9.923   5.786  0.00  0.00     0.177 C 
HETATM   31  N   UNK N   1      32.742  10.122   8.133  0.00  0.00    -0.310 N 
HETATM   32  C   UNK N   1      32.907  10.992   9.147  0.00  0.00     0.122 A 
ATOM     33  HN  UNK N   1      32.220   9.246   8.176  1.00  0.00     0.186 HD
ENDBRANCH   1  27
TORSDOF 3
ENDMDL
MODEL 6
REMARK VINA RESULT:      -7.9      7.437     11.227
REMARK  3 active torsions:
REMARK  status: ('A' for Active; 'I' for Inactive)
REMARK    1  A    between atoms: C_4  and  C_8 
REMARK    2  A    between atoms: C_16  and  C_20 
REMARK    3  A    between atoms: C_20  and  C_21 
ROOT
HETATM    1  C   UNK N   1      23.107  19.551   3.381  0.00  0.00     0.061 A 
HETATM    2  C   UNK N   1      22.415  20.710   2.956  0.00  0.00     0.036 A 
HETATM    3  C   UNK N   1      21.057  20.631   2.619  0.00  0.00     0.054 A 
HETATM    4  C   UNK N   1      20.461  19.386   2.723  0.00  0.00     0.143 A 
HETATM    5  N   UNK N   1      19.178  19.067   2.479  0.00  0.00    -0.282 N 
ATOM      6  HN  UNK N   1      18.449  19.694   2.138  1.00  0.00     0.188 HD
HETATM    7  N   UNK N   1      19.045  17.774   2.767  0.00  0.00    -0.281 N 
ATOM      8  HN  UNK N   1      18.188  17.225   2.691  1.00  0.00     0.188 HD
HETATM    9  C   UNK N   1      20.255  17.319   3.181  0.00  0.00     0.198 A 
HETATM   10  N   UNK N   1      21.147  18.322   3.146  0.00  0.00    -0.218 N 
HETATM   11  N   UNK N   1      22.436  18.362   3.479  0.00  0.00    -0.290 N 
ATOM     12  HN  UNK N   1      22.915  17.521   3.802  1.00  0.00     0.187 HD
ENDROOT
BRANCH   9  13
HETATM   13  C   UNK N   1      20.468  15.932   3.738  0.00  0.00     0.331 C 
HETATM   14  F   UNK N   1      19.330  15.198   3.459  0.00  0.00    -0.192 F 
HETATM   15  F   UNK N   1      21.513  15.361   3.026  0.00  0.00    -0.192 F 
BRANCH  13  16
HETATM   16  C   UNK N   1      20.751  15.778   5.220  0.00  0.00     0.022 A 
HETATM   17  C   UNK N   1      20.481  16.818   6.127  0.00  0.00     0.016 A 
HETATM   18  C   UNK N   1      20.552  16.591   7.510  0.00  0.00     0.031 A 
HETATM   19  C   UNK N   1      20.873  15.320   7.998  0.00  0.00     0.042 A 
HETATM   20  C   UNK N   1      21.167  14.280   7.094  0.00  0.00    -0.009 A 
HETATM   21  N   UNK N   1      20.884  15.075   9.337  0.00  0.00    -0.365 N 
HETATM   22  C   UNK N   1      21.106  14.512   5.720  0.00  0.00     0.027 A 
HETATM   23  C   UNK N   1      21.474  13.011   7.585  0.00  0.00     0.015 A 
HETATM   24  C   UNK N   1      21.478  12.786   8.963  0.00  0.00     0.018 A 
HETATM   25  C   UNK N   1      21.173  13.838   9.831  0.00  0.00     0.088 A 
ATOM     26  HN  UNK N   1      20.672  15.834   9.985  1.00  0.00     0.165 HD
ENDBRANCH  13  16
ENDBRANCH   9  13
BRANCH   1  27
HETATM   27  C   UNK N   1      24.544  19.613   3.677  0.00  0.00     0.026 A 
HETATM   28  C   UNK N   1      25.189  19.088   4.780  0.00  0.00     0.124 A 
HETATM   29  N   UNK N   1      26.488  19.405   4.659  0.00  0.00    -0.307 N 
HETATM   30  C   UNK N   1      27.535  19.050   5.598  0.00  0.00     0.177 C 
HETATM   31  N   UNK N   1      26.692  20.100   3.553  0.00  0.00    -0.310 N 
HETATM   32  C   UNK N   1      25.512  20.247   2.920  0.00  0.00     0.122 A 
ATOM     33  HN  UNK N   1      27.590  20.463   3.233  1.00  0.00     0.186 HD
ENDBRANCH   1  27
TORSDOF 3
ENDMDL
MODEL 7
REMARK VINA RESULT:      -7.9      3.625      8.759
REMARK  3 active torsions:
REMARK  status: ('A' for Active; 'I' for Inactive)
REMARK    1  A    between atoms: C_4  and  C_8 
REMARK    2  A    between atoms: C_16  and  C_20 
REMARK    3  A    between atoms: C_20  and  C_21 
ROOT
HETATM    1  C   UNK N   1      35.010  13.453  12.153  0.00  0.00     0.061 A 
HETATM    2  C   UNK N   1      35.958  14.359  12.685  0.00  0.00     0.036 A 
HETATM    3  C   UNK N   1      36.051  15.659  12.169  0.00  0.00     0.054 A 
HETATM    4  C   UNK N   1      35.184  15.983  11.139  0.00  0.00     0.143 A 
HETATM    5  N   UNK N   1      35.070  17.162  10.503  0.00  0.00    -0.282 N 
ATOM      6  HN  UNK N   1      35.638  17.995  10.659  1.00  0.00     0.188 HD
HETATM    7  N   UNK N   1      34.073  17.030   9.631  0.00  0.00    -0.281 N 
ATOM      8  HN  UNK N   1      33.731  17.749   8.993  1.00  0.00     0.188 HD
HETATM    9  C   UNK N   1      33.594  15.765   9.744  0.00  0.00     0.198 A 
HETATM   10  N   UNK N   1      34.293  15.103  10.680  0.00  0.00    -0.218 N 
HETATM   11  N   UNK N   1      34.174  13.862  11.150  0.00  0.00    -0.290 N 
ATOM     12  HN  UNK N   1      33.472  13.228  10.769  1.00  0.00     0.187 HD
ENDROOT
BRANCH   9  13
HETATM   13  C   UNK N   1      32.358  15.283   9.022  0.00  0.00     0.331 C 
HETATM   14  F   UNK N   1      32.645  14.030   8.512  0.00  0.00    -0.192 F 
HETATM   15  F   UNK N   1      31.363  15.123   9.975  0.00  0.00    -0.192 F 
BRANCH  13  16
HETATM   16  C   UNK N   1      31.808  16.119   7.882  0.00  0.00     0.022 A 
HETATM   17  C   UNK N   1      32.353  16.038   6.589  0.00  0.00     0.016 A 
HETATM   18  C   UNK N   1      31.708  16.655   5.506  0.00  0.00     0.031 A 
HETATM   19  C   UNK N   1      30.504  17.339   5.703  0.00  0.00     0.042 A 
HETATM   20  C   UNK N   1      29.965  17.443   7.001  0.00  0.00    -0.009 A 
HETATM   21  N   UNK N   1      29.840  17.889   4.649  0.00  0.00    -0.365 N 
HETATM   22  C   UNK N   1      30.615  16.838   8.076  0.00  0.00     0.027 A 
HETATM   23  C   UNK N   1      28.758  18.116   7.191  0.00  0.00     0.015 A 
HETATM   24  C   UNK N   1      28.096  18.669   6.093  0.00  0.00     0.018 A 
HETATM   25  C   UNK N   1      28.655  18.541   4.818  0.00  0.00     0.088 A 
ATOM     26  HN  UNK N   1      30.238  17.811   3.713  1.00  0.00     0.165 HD
ENDBRANCH  13  16
ENDBRANCH   9  13
BRANCH   1  27
HETATM   27  C   UNK N   1      34.948  12.072  12.647  0.00  0.00     0.026 A 
HETATM   28  C   UNK N   1      35.381  11.606  13.873  0.00  0.00     0.124 A 
HETATM   29  N   UNK N   1      35.161  10.282  13.886  0.00  0.00    -0.307 N 
HETATM   30  C   UNK N   1      35.466   9.386  14.986  0.00  0.00     0.177 C 
HETATM   31  N   UNK N   1      34.625   9.892  12.743  0.00  0.00    -0.310 N 
HETATM   32  C   UNK N   1      34.478  10.973  11.952  0.00  0.00     0.122 A 
ATOM     33  HN  UNK N   1      34.366   8.935  12.501  1.00  0.00     0.186 HD
ENDBRANCH   1  27
TORSDOF 3
ENDMDL
MODEL 8
REMARK VINA RESULT:      -7.8     13.030     16.640
REMARK  3 active torsions:
REMARK  status: ('A' for Active; 'I' for Inactive)
REMARK    1  A    between atoms: C_4  and  C_8 
REMARK    2  A    between atoms: C_16  and  C_20 
REMARK    3  A    between atoms: C_20  and  C_21 
ROOT
HETATM    1  C   UNK N   1      30.462  25.916  -3.754  0.00  0.00     0.061 A 
HETATM    2  C   UNK N   1      31.385  26.941  -3.438  0.00  0.00     0.036 A 
HETATM    3  C   UNK N   1      30.940  28.260  -3.275  0.00  0.00     0.054 A 
HETATM    4  C   UNK N   1      29.583  28.483  -3.441  0.00  0.00     0.143 A 
HETATM    5  N   UNK N   1      28.922  29.647  -3.315  0.00  0.00    -0.282 N 
ATOM      6  HN  UNK N   1      29.330  30.560  -3.114  1.00  0.00     0.188 HD
HETATM    7  N   UNK N   1      27.633  29.376  -3.506  0.00  0.00    -0.281 N 
ATOM      8  HN  UNK N   1      26.864  30.046  -3.473  1.00  0.00     0.188 HD
HETATM    9  C   UNK N   1      27.525  28.045  -3.750  0.00  0.00     0.198 A 
HETATM   10  N   UNK N   1      28.745  27.484  -3.721  0.00  0.00    -0.218 N 
HETATM   11  N   UNK N   1      29.133  26.219  -3.877  0.00  0.00    -0.290 N 
ATOM     12  HN  UNK N   1      28.452  25.489  -4.085  1.00  0.00     0.187 HD
ENDROOT
BRANCH   9  13
HETATM   13  C   UNK N   1      26.199  27.331  -3.868  0.00  0.00     0.331 C 
HETATM   14  F   UNK N   1      26.112  26.452  -2.805  0.00  0.00    -0.192 F 
HETATM   15  F   UNK N   1      25.206  28.284  -3.698  0.00  0.00    -0.192 F 
BRANCH  13  16
HETATM   16  C   UNK N   1      25.905  26.544  -5.130  0.00  0.00     0.022 A 
HETATM   17  C   UNK N   1      25.899  27.164  -6.392  0.00  0.00     0.016 A 
HETATM   18  C   UNK N   1      25.832  26.393  -7.562  0.00  0.00     0.031 A 
HETATM   19  C   UNK N   1      25.791  24.996  -7.482  0.00  0.00     0.042 A 
HETATM   20  C   UNK N   1      25.774  24.371  -6.220  0.00  0.00    -0.009 A 
HETATM   21  N   UNK N   1      25.788  24.238  -8.613  0.00  0.00    -0.365 N 
HETATM   22  C   UNK N   1      25.830  25.142  -5.059  0.00  0.00     0.027 A 
HETATM   23  C   UNK N   1      25.746  22.978  -6.145  0.00  0.00     0.015 A 
HETATM   24  C   UNK N   1      25.744  22.224  -7.319  0.00  0.00     0.018 A 
HETATM   25  C   UNK N   1      25.770  22.877  -8.555  0.00  0.00     0.088 A 
ATOM     26  HN  UNK N   1      25.798  24.699  -9.523  1.00  0.00     0.165 HD
ENDBRANCH  13  16
ENDBRANCH   9  13
BRANCH   1  27
HETATM   27  C   UNK N   1      30.930  24.544  -3.986  0.00  0.00     0.026 A 
HETATM   28  C   UNK N   1      30.312  23.375  -3.586  0.00  0.00     0.124 A 
HETATM   29  N   UNK N   1      31.101  22.363  -3.979  0.00  0.00    -0.307 N 
HETATM   30  C   UNK N   1      30.834  20.953  -3.766  0.00  0.00     0.177 C 
HETATM   31  N   UNK N   1      32.175  22.827  -4.594  0.00  0.00    -0.310 N 
HETATM   32  C   UNK N   1      32.103  24.172  -4.617  0.00  0.00     0.122 A 
ATOM     33  HN  UNK N   1      32.930  22.263  -4.983  1.00  0.00     0.186 HD
ENDBRANCH   1  27
TORSDOF 3
ENDMDL
MODEL 9
REMARK VINA RESULT:      -7.4     14.553     17.536
REMARK  3 active torsions:
REMARK  status: ('A' for Active; 'I' for Inactive)
REMARK    1  A    between atoms: C_4  and  C_8 
REMARK    2  A    between atoms: C_16  and  C_20 
REMARK    3  A    between atoms: C_20  and  C_21 
ROOT
HETATM    1  C   UNK N   1      28.513  29.661  -6.642  0.00  0.00     0.061 A 
HETATM    2  C   UNK N   1      28.584  30.658  -5.641  0.00  0.00     0.036 A 
HETATM    3  C   UNK N   1      27.722  30.606  -4.538  0.00  0.00     0.054 A 
HETATM    4  C   UNK N   1      26.826  29.552  -4.497  0.00  0.00     0.143 A 
HETATM    5  N   UNK N   1      25.923  29.278  -3.539  0.00  0.00    -0.282 N 
ATOM      6  HN  UNK N   1      25.732  29.835  -2.706  1.00  0.00     0.188 HD
HETATM    7  N   UNK N   1      25.326  28.141  -3.891  0.00  0.00    -0.281 N 
ATOM      8  HN  UNK N   1      24.592  27.660  -3.372  1.00  0.00     0.188 HD
HETATM    9  C   UNK N   1      25.873  27.737  -5.066  0.00  0.00     0.198 A 
HETATM   10  N   UNK N   1      26.805  28.622  -5.454  0.00  0.00    -0.218 N 
HETATM   11  N   UNK N   1      27.614  28.638  -6.513  0.00  0.00    -0.290 N 
ATOM     12  HN  UNK N   1      27.563  27.900  -7.216  1.00  0.00     0.187 HD
ENDROOT
BRANCH   9  13
HETATM   13  C   UNK N   1      25.560  26.407  -5.708  0.00  0.00     0.331 C 
HETATM   14  F   UNK N   1      24.337  25.991  -5.214  0.00  0.00    -0.192 F 
HETATM   15  F   UNK N   1      25.399  26.636  -7.067  0.00  0.00    -0.192 F 
BRANCH  13  16
HETATM   16  C   UNK N   1      26.535  25.260  -5.522  0.00  0.00     0.022 A 
HETATM   17  C   UNK N   1      27.211  24.692  -6.616  0.00  0.00     0.016 A 
HETATM   18  C   UNK N   1      28.257  23.780  -6.409  0.00  0.00     0.031 A 
HETATM   19  C   UNK N   1      28.648  23.443  -5.108  0.00  0.00     0.042 A 
HETATM   20  C   UNK N   1      27.959  23.992  -4.009  0.00  0.00    -0.009 A 
HETATM   21  N   UNK N   1      29.702  22.606  -4.897  0.00  0.00    -0.365 N 
HETATM   22  C   UNK N   1      26.913  24.890  -4.219  0.00  0.00     0.027 A 
HETATM   23  C   UNK N   1      28.362  23.664  -2.714  0.00  0.00     0.015 A 
HETATM   24  C   UNK N   1      29.445  22.804  -2.525  0.00  0.00     0.018 A 
HETATM   25  C   UNK N   1      30.112  22.284  -3.638  0.00  0.00     0.088 A 
ATOM     26  HN  UNK N   1      30.194  22.212  -5.699  1.00  0.00     0.165 HD
ENDBRANCH  13  16
ENDBRANCH   9  13
BRANCH   1  27
HETATM   27  C   UNK N   1      29.372  29.742  -7.831  0.00  0.00     0.026 A 
HETATM   28  C   UNK N   1      29.651  28.729  -8.727  0.00  0.00     0.124 A 
HETATM   29  N   UNK N   1      30.501  29.234  -9.634  0.00  0.00    -0.307 N 
HETATM   30  C   UNK N   1      31.056  28.513 -10.764  0.00  0.00     0.177 C 
HETATM   31  N   UNK N   1      30.775  30.497  -9.357  0.00  0.00    -0.310 N 
HETATM   32  C   UNK N   1      30.093  30.846  -8.248  0.00  0.00     0.122 A 
ATOM     33  HN  UNK N   1      31.396  31.104  -9.891  1.00  0.00     0.186 HD
ENDBRANCH   1  27
TORSDOF 3
ENDMDL
