MODEL 1
REMARK VINA RESULT:      -6.7      0.000      0.000
REMARK  1 active torsions:
REMARK  status: ('A' for Active; 'I' for Inactive)
REMARK    1  A    between atoms: C_13  and  C_9 
ROOT
HETATM    1  C   UNK N   1      26.754  28.941  -4.833  0.00  0.00     0.001 A 
HETATM    2  C   UNK N   1      25.791  28.432  -3.938  0.00  0.00     0.001 A 
HETATM    3  C   UNK N   1      27.824  28.136  -5.259  0.00  0.00     0.016 A 
HETATM    4  C   UNK N   1      25.888  27.112  -3.460  0.00  0.00     0.016 A 
HETATM    5  C   UNK N   1      27.900  26.834  -4.768  0.00  0.00     0.025 A 
HETATM    6  C   UNK N   1      26.962  26.335  -3.896  0.00  0.00     0.025 A 
HETATM    7  C   UNK N   1      28.565  24.574  -4.268  0.00  0.00     0.168 A 
HETATM    8  C   UNK N   1      28.901  25.810  -5.051  0.00  0.00     0.176 A 
HETATM    9  C   UNK N   1      27.296  24.951  -3.557  0.00  0.00     0.176 A 
HETATM   10  O   UNK N   1      29.838  25.934  -5.816  0.00  0.00    -0.291 OA
HETATM   11  O   UNK N   1      26.643  24.225  -2.829  0.00  0.00    -0.291 OA
ENDROOT
BRANCH   7  12
HETATM   12  C   UNK N   1      29.293  23.265  -4.286  0.00  0.00    -0.039 A 
HETATM   13  C   UNK N   1      29.347  22.496  -5.454  0.00  0.00     0.011 A 
HETATM   14  C   UNK N   1      30.073  21.301  -5.473  0.00  0.00     0.043 A 
HETATM   15  C   UNK N   1      30.746  20.873  -4.324  0.00  0.00     0.116 A 
HETATM   16  C   UNK N   1      30.679  21.630  -3.151  0.00  0.00     0.043 A 
HETATM   17  F   UNK N   1      31.474  19.731  -4.348  0.00  0.00    -0.206 F 
HETATM   18  C   UNK N   1      29.956  22.823  -3.134  0.00  0.00     0.011 A 
ENDBRANCH   7  12
TORSDOF 1
ENDMDL
MODEL 2
REMARK VINA RESULT:      -6.7      0.082      2.096
REMARK  1 active torsions:
REMARK  status: ('A' for Active; 'I' for Inactive)
REMARK    1  A    between atoms: C_13  and  C_9 
ROOT
HETATM    1  C   UNK N   1      25.782  28.440  -3.921  0.00  0.00     0.001 A 
HETATM    2  C   UNK N   1      26.714  28.969  -4.836  0.00  0.00     0.001 A 
HETATM    3  C   UNK N   1      25.909  27.118  -3.461  0.00  0.00     0.016 A 
HETATM    4  C   UNK N   1      27.782  28.181  -5.303  0.00  0.00     0.016 A 
HETATM    5  C   UNK N   1      26.973  26.357  -3.942  0.00  0.00     0.025 A 
HETATM    6  C   UNK N   1      27.883  26.871  -4.835  0.00  0.00     0.025 A 
HETATM    7  C   UNK N   1      28.543  24.592  -4.410  0.00  0.00     0.168 A 
HETATM    8  C   UNK N   1      27.321  24.975  -3.627  0.00  0.00     0.176 A 
HETATM    9  C   UNK N   1      28.883  25.851  -5.156  0.00  0.00     0.176 A 
HETATM   10  O   UNK N   1      26.729  24.263  -2.839  0.00  0.00    -0.291 OA
HETATM   11  O   UNK N   1      29.838  26.007  -5.896  0.00  0.00    -0.291 OA
ENDROOT
BRANCH   7  12
HETATM   12  C   UNK N   1      29.274  23.285  -4.365  0.00  0.00    -0.039 A 
HETATM   13  C   UNK N   1      29.322  22.456  -5.491  0.00  0.00     0.011 A 
HETATM   14  C   UNK N   1      30.051  21.263  -5.452  0.00  0.00     0.043 A 
HETATM   15  C   UNK N   1      30.731  20.896  -4.286  0.00  0.00     0.116 A 
HETATM   16  C   UNK N   1      30.669  21.713  -3.154  0.00  0.00     0.043 A 
HETATM   17  F   UNK N   1      31.460  19.756  -4.255  0.00  0.00    -0.206 F 
HETATM   18  C   UNK N   1      29.944  22.904  -3.195  0.00  0.00     0.011 A 
ENDBRANCH   7  12
TORSDOF 1
ENDMDL
MODEL 3
REMARK VINA RESULT:      -6.5      2.938      6.477
REMARK  1 active torsions:
REMARK  status: ('A' for Active; 'I' for Inactive)
REMARK    1  A    between atoms: C_13  and  C_9 
ROOT
HETATM    1  C   UNK N   1      33.672  20.560  -4.811  0.00  0.00     0.001 A 
HETATM    2  C   UNK N   1      33.740  20.519  -3.404  0.00  0.00     0.001 A 
HETATM    3  C   UNK N   1      32.695  21.338  -5.454  0.00  0.00     0.016 A 
HETATM    4  C   UNK N   1      32.829  21.255  -2.625  0.00  0.00     0.016 A 
HETATM    5  C   UNK N   1      31.803  22.055  -4.660  0.00  0.00     0.025 A 
HETATM    6  C   UNK N   1      31.866  22.017  -3.287  0.00  0.00     0.025 A 
HETATM    7  C   UNK N   1      30.019  23.458  -3.853  0.00  0.00     0.168 A 
HETATM    8  C   UNK N   1      30.708  22.927  -5.076  0.00  0.00     0.176 A 
HETATM    9  C   UNK N   1      30.813  22.865  -2.725  0.00  0.00     0.176 A 
HETATM   10  O   UNK N   1      30.421  23.194  -6.227  0.00  0.00    -0.291 OA
HETATM   11  O   UNK N   1      30.625  23.062  -1.538  0.00  0.00    -0.291 OA
ENDROOT
BRANCH   7  12
HETATM   12  C   UNK N   1      28.872  24.421  -3.808  0.00  0.00    -0.039 A 
HETATM   13  C   UNK N   1      29.077  25.784  -4.050  0.00  0.00     0.011 A 
HETATM   14  C   UNK N   1      27.990  26.665  -4.056  0.00  0.00     0.043 A 
HETATM   15  C   UNK N   1      26.699  26.185  -3.816  0.00  0.00     0.116 A 
HETATM   16  C   UNK N   1      26.495  24.827  -3.555  0.00  0.00     0.043 A 
HETATM   17  F   UNK N   1      25.642  27.031  -3.850  0.00  0.00    -0.206 F 
HETATM   18  C   UNK N   1      27.579  23.949  -3.552  0.00  0.00     0.011 A 
ENDBRANCH   7  12
TORSDOF 1
ENDMDL
MODEL 4
REMARK VINA RESULT:      -6.5     16.528     18.524
REMARK  1 active torsions:
REMARK  status: ('A' for Active; 'I' for Inactive)
REMARK    1  A    between atoms: C_13  and  C_9 
ROOT
HETATM    1  C   UNK N   1      24.301  11.959  11.324  0.00  0.00     0.001 A 
HETATM    2  C   UNK N   1      23.059  11.877  11.985  0.00  0.00     0.001 A 
HETATM    3  C   UNK N   1      24.400  12.586  10.071  0.00  0.00     0.016 A 
HETATM    4  C   UNK N   1      21.902  12.421  11.398  0.00  0.00     0.016 A 
HETATM    5  C   UNK N   1      23.239  13.113   9.509  0.00  0.00     0.025 A 
HETATM    6  C   UNK N   1      22.026  13.035  10.152  0.00  0.00     0.025 A 
HETATM    7  C   UNK N   1      21.628  14.165   8.060  0.00  0.00     0.168 A 
HETATM    8  C   UNK N   1      23.074  13.803   8.233  0.00  0.00     0.176 A 
HETATM    9  C   UNK N   1      20.995  13.672   9.330  0.00  0.00     0.176 A 
HETATM   10  O   UNK N   1      23.971  14.061   7.453  0.00  0.00    -0.291 OA
HETATM   11  O   UNK N   1      19.822  13.791   9.637  0.00  0.00    -0.291 OA
ENDROOT
BRANCH   7  12
HETATM   12  C   UNK N   1      21.014  14.920   6.921  0.00  0.00    -0.039 A 
HETATM   13  C   UNK N   1      20.169  14.273   6.011  0.00  0.00     0.011 A 
HETATM   14  C   UNK N   1      19.561  14.999   4.982  0.00  0.00     0.043 A 
HETATM   15  C   UNK N   1      19.800  16.372   4.859  0.00  0.00     0.116 A 
HETATM   16  C   UNK N   1      20.658  17.016   5.754  0.00  0.00     0.043 A 
HETATM   17  F   UNK N   1      19.190  17.083   3.881  0.00  0.00    -0.206 F 
HETATM   18  C   UNK N   1      21.262  16.291   6.782  0.00  0.00     0.011 A 
ENDBRANCH   7  12
TORSDOF 1
ENDMDL
MODEL 5
REMARK VINA RESULT:      -6.4     16.479     18.586
REMARK  1 active torsions:
REMARK  status: ('A' for Active; 'I' for Inactive)
REMARK    1  A    between atoms: C_13  and  C_9 
ROOT
HETATM    1  C   UNK N   1      23.001  11.865  11.947  0.00  0.00     0.001 A 
HETATM    2  C   UNK N   1      24.263  11.935  11.324  0.00  0.00     0.001 A 
HETATM    3  C   UNK N   1      21.873  12.438  11.336  0.00  0.00     0.016 A 
HETATM    4  C   UNK N   1      24.411  12.581  10.083  0.00  0.00     0.016 A 
HETATM    5  C   UNK N   1      22.047  13.076  10.109  0.00  0.00     0.025 A 
HETATM    6  C   UNK N   1      23.278  13.146   9.499  0.00  0.00     0.025 A 
HETATM    7  C   UNK N   1      21.725  14.296   8.058  0.00  0.00     0.168 A 
HETATM    8  C   UNK N   1      21.049  13.744   9.279  0.00  0.00     0.176 A 
HETATM    9  C   UNK N   1      23.155  13.866   8.231  0.00  0.00     0.176 A 
HETATM   10  O   UNK N   1      19.862  13.818   9.530  0.00  0.00    -0.291 OA
HETATM   11  O   UNK N   1      24.062  14.069   7.444  0.00  0.00    -0.291 OA
ENDROOT
BRANCH   7  12
HETATM   12  C   UNK N   1      21.080  15.018   6.915  0.00  0.00    -0.039 A 
HETATM   13  C   UNK N   1      20.183  14.356   6.069  0.00  0.00     0.011 A 
HETATM   14  C   UNK N   1      19.548  15.054   5.037  0.00  0.00     0.043 A 
HETATM   15  C   UNK N   1      19.809  16.415   4.849  0.00  0.00     0.116 A 
HETATM   16  C   UNK N   1      20.718  17.075   5.681  0.00  0.00     0.043 A 
HETATM   17  F   UNK N   1      19.174  17.100   3.869  0.00  0.00    -0.206 F 
HETATM   18  C   UNK N   1      21.350  16.377   6.711  0.00  0.00     0.011 A 
ENDBRANCH   7  12
TORSDOF 1
ENDMDL
MODEL 6
REMARK VINA RESULT:      -6.4      2.975      6.738
REMARK  1 active torsions:
REMARK  status: ('A' for Active; 'I' for Inactive)
REMARK    1  A    between atoms: C_13  and  C_9 
ROOT
HETATM    1  C   UNK N   1      33.768  20.422  -3.428  0.00  0.00     0.001 A 
HETATM    2  C   UNK N   1      33.770  20.508  -4.835  0.00  0.00     0.001 A 
HETATM    3  C   UNK N   1      32.862  21.182  -2.670  0.00  0.00     0.016 A 
HETATM    4  C   UNK N   1      32.866  21.357  -5.499  0.00  0.00     0.016 A 
HETATM    5  C   UNK N   1      31.980  22.019  -3.351  0.00  0.00     0.025 A 
HETATM    6  C   UNK N   1      31.980  22.105  -4.723  0.00  0.00     0.025 A 
HETATM    7  C   UNK N   1      30.274  23.616  -3.936  0.00  0.00     0.168 A 
HETATM    8  C   UNK N   1      30.955  22.903  -2.804  0.00  0.00     0.176 A 
HETATM    9  C   UNK N   1      30.951  23.053  -5.154  0.00  0.00     0.176 A 
HETATM   10  O   UNK N   1      30.685  23.021  -1.624  0.00  0.00    -0.291 OA
HETATM   11  O   UNK N   1      30.683  23.327  -6.310  0.00  0.00    -0.291 OA
ENDROOT
BRANCH   7  12
HETATM   12  C   UNK N   1      29.135  24.583  -3.841  0.00  0.00    -0.039 A 
HETATM   13  C   UNK N   1      29.344  25.953  -4.040  0.00  0.00     0.011 A 
HETATM   14  C   UNK N   1      28.263  26.839  -4.000  0.00  0.00     0.043 A 
HETATM   15  C   UNK N   1      26.972  26.358  -3.758  0.00  0.00     0.116 A 
HETATM   16  C   UNK N   1      26.763  24.994  -3.540  0.00  0.00     0.043 A 
HETATM   17  F   UNK N   1      25.921  27.211  -3.747  0.00  0.00    -0.206 F 
HETATM   18  C   UNK N   1      27.842  24.110  -3.583  0.00  0.00     0.011 A 
ENDBRANCH   7  12
TORSDOF 1
ENDMDL
MODEL 7
REMARK VINA RESULT:      -6.3     10.324     13.072
REMARK  1 active torsions:
REMARK  status: ('A' for Active; 'I' for Inactive)
REMARK    1  A    between atoms: C_13  and  C_9 
ROOT
HETATM    1  C   UNK N   1      31.652  16.050   7.384  0.00  0.00     0.001 A 
HETATM    2  C   UNK N   1      31.285  16.819   8.507  0.00  0.00     0.001 A 
HETATM    3  C   UNK N   1      30.931  16.155   6.183  0.00  0.00     0.016 A 
HETATM    4  C   UNK N   1      30.192  17.702   8.440  0.00  0.00     0.016 A 
HETATM    5  C   UNK N   1      29.849  17.033   6.144  0.00  0.00     0.025 A 
HETATM    6  C   UNK N   1      29.489  17.785   7.238  0.00  0.00     0.025 A 
HETATM    7  C   UNK N   1      27.926  18.324   5.484  0.00  0.00     0.168 A 
HETATM    8  C   UNK N   1      28.948  17.322   5.032  0.00  0.00     0.176 A 
HETATM    9  C   UNK N   1      28.328  18.611   6.903  0.00  0.00     0.176 A 
HETATM   10  O   UNK N   1      29.031  16.842   3.918  0.00  0.00    -0.291 OA
HETATM   11  O   UNK N   1      27.789  19.407   7.651  0.00  0.00    -0.291 OA
ENDROOT
BRANCH   7  12
HETATM   12  C   UNK N   1      26.835  18.937   4.661  0.00  0.00    -0.039 A 
HETATM   13  C   UNK N   1      25.516  18.485   4.775  0.00  0.00     0.011 A 
HETATM   14  C   UNK N   1      24.498  19.100   4.039  0.00  0.00     0.043 A 
HETATM   15  C   UNK N   1      24.798  20.167   3.186  0.00  0.00     0.116 A 
HETATM   16  C   UNK N   1      26.118  20.608   3.056  0.00  0.00     0.043 A 
HETATM   17  F   UNK N   1      23.811  20.782   2.494  0.00  0.00    -0.206 F 
HETATM   18  C   UNK N   1      27.132  19.995   3.792  0.00  0.00     0.011 A 
ENDBRANCH   7  12
TORSDOF 1
ENDMDL
MODEL 8
REMARK VINA RESULT:      -6.3     10.344     13.145
REMARK  1 active torsions:
REMARK  status: ('A' for Active; 'I' for Inactive)
REMARK    1  A    between atoms: C_13  and  C_9 
ROOT
HETATM    1  C   UNK N   1      31.266  17.064   8.683  0.00  0.00     0.001 A 
HETATM    2  C   UNK N   1      31.708  16.289   7.592  0.00  0.00     0.001 A 
HETATM    3  C   UNK N   1      30.149  17.906   8.551  0.00  0.00     0.016 A 
HETATM    4  C   UNK N   1      31.038  16.350   6.356  0.00  0.00     0.016 A 
HETATM    5  C   UNK N   1      29.506  17.952   7.316  0.00  0.00     0.025 A 
HETATM    6  C   UNK N   1      29.935  17.196   6.250  0.00  0.00     0.025 A 
HETATM    7  C   UNK N   1      28.032  18.460   5.480  0.00  0.00     0.168 A 
HETATM    8  C   UNK N   1      28.339  18.736   6.923  0.00  0.00     0.176 A 
HETATM    9  C   UNK N   1      29.071  17.445   5.095  0.00  0.00     0.176 A 
HETATM   10  O   UNK N   1      27.709  19.474   7.656  0.00  0.00    -0.291 OA
HETATM   11  O   UNK N   1      29.174  16.906   4.007  0.00  0.00    -0.291 OA
ENDROOT
BRANCH   7  12
HETATM   12  C   UNK N   1      26.897  19.013   4.675  0.00  0.00    -0.039 A 
HETATM   13  C   UNK N   1      25.593  18.536   4.859  0.00  0.00     0.011 A 
HETATM   14  C   UNK N   1      24.534  19.097   4.139  0.00  0.00     0.043 A 
HETATM   15  C   UNK N   1      24.776  20.133   3.231  0.00  0.00     0.116 A 
HETATM   16  C   UNK N   1      26.079  20.598   3.031  0.00  0.00     0.043 A 
HETATM   17  F   UNK N   1      23.749  20.697   2.553  0.00  0.00    -0.206 F 
HETATM   18  C   UNK N   1      27.134  20.040   3.752  0.00  0.00     0.011 A 
ENDBRANCH   7  12
TORSDOF 1
ENDMDL
MODEL 9
REMARK VINA RESULT:      -6.2      2.908      6.323
REMARK  1 active torsions:
REMARK  status: ('A' for Active; 'I' for Inactive)
REMARK    1  A    between atoms: C_13  and  C_9 
ROOT
HETATM    1  C   UNK N   1      30.880  20.122  -5.843  0.00  0.00     0.001 A 
HETATM    2  C   UNK N   1      31.458  20.140  -4.558  0.00  0.00     0.001 A 
HETATM    3  C   UNK N   1      30.011  21.150  -6.246  0.00  0.00     0.016 A 
HETATM    4  C   UNK N   1      31.174  21.187  -3.662  0.00  0.00     0.016 A 
HETATM    5  C   UNK N   1      29.742  22.174  -5.340  0.00  0.00     0.025 A 
HETATM    6  C   UNK N   1      30.306  22.194  -4.085  0.00  0.00     0.025 A 
HETATM    7  C   UNK N   1      28.900  24.146  -4.243  0.00  0.00     0.168 A 
HETATM    8  C   UNK N   1      28.884  23.342  -5.511  0.00  0.00     0.176 A 
HETATM    9  C   UNK N   1      29.847  23.381  -3.362  0.00  0.00     0.176 A 
HETATM   10  O   UNK N   1      28.277  23.626  -6.525  0.00  0.00    -0.291 OA
HETATM   11  O   UNK N   1      30.190  23.698  -2.237  0.00  0.00    -0.291 OA
ENDROOT
BRANCH   7  12
HETATM   12  C   UNK N   1      28.199  25.444  -3.986  0.00  0.00    -0.039 A 
HETATM   13  C   UNK N   1      26.860  25.462  -3.577  0.00  0.00     0.011 A 
HETATM   14  C   UNK N   1      26.231  26.677  -3.290  0.00  0.00     0.043 A 
HETATM   15  C   UNK N   1      26.939  27.878  -3.415  0.00  0.00     0.116 A 
HETATM   16  C   UNK N   1      28.270  27.864  -3.841  0.00  0.00     0.043 A 
HETATM   17  F   UNK N   1      26.341  29.054  -3.110  0.00  0.00    -0.206 F 
HETATM   18  C   UNK N   1      28.897  26.650  -4.124  0.00  0.00     0.011 A 
ENDBRANCH   7  12
TORSDOF 1
ENDMDL
