MODEL 1
REMARK VINA RESULT:      -7.5      0.000      0.000
REMARK  11 active torsions:
REMARK  status: ('A' for Active; 'I' for Inactive)
REMARK    1  A    between atoms: C_11  and  N_22 
REMARK    2  A    between atoms: C_14  and  C_15 
REMARK       I    between atoms: N_22  and  C_23 
REMARK    3  A    between atoms: C_25  and  C_23 
REMARK    4  A    between atoms: C_25  and  C_26 
REMARK    5  A    between atoms: C_25  and  C_32 
REMARK    6  A    between atoms: C_26  and  C_27 
REMARK    7  A    between atoms: C_27  and  C_28 
REMARK    8  A    between atoms: C_32  and  C_33 
REMARK    9  A    between atoms: C_32  and  C_39 
REMARK   10  A    between atoms: C_33  and  C_34 
REMARK   11  A    between atoms: C_34  and  C_35 
REMARK       I    between atoms: C_39  and  N_41 
ROOT
HETATM    1  N   UNK N   1      21.749  16.623   7.170  0.00  0.00    -0.332 N 
HETATM    2  C   UNK N   1      21.737  17.453   6.095  0.00  0.00     0.224 C 
HETATM    3  O   UNK N   1      21.792  18.659   6.273  0.00  0.00    -0.273 OA
HETATM    4  H   UNK N   1      21.690  16.997   8.080  0.00  0.00     0.165 HD
ENDROOT
BRANCH   1   5
HETATM    5  C   UNK N   1      21.847  15.201   6.986  0.00  0.00     0.279 C 
HETATM    6  C   UNK N   1      20.891  14.267   7.597  0.00  0.00     0.264 C 
HETATM    7  N   UNK N   1      21.245  13.425   8.582  0.00  0.00    -0.323 N 
HETATM    8  O   UNK N   1      19.726  14.290   7.227  0.00  0.00    -0.269 OA
HETATM    9  C   UNK N   1      22.527  13.184   9.167  0.00  0.00     0.053 A 
HETATM   10  H   UNK N   1      20.508  12.890   8.958  0.00  0.00     0.169 HD
HETATM   11  C   UNK N   1      23.802  13.522   8.573  0.00  0.00     0.018 A 
HETATM   12  C   UNK N   1      22.506  12.514  10.415  0.00  0.00    -0.034 A 
HETATM   13  C   UNK N   1      24.954  13.158   9.296  0.00  0.00     0.016 A 
HETATM   14  C   UNK N   1      24.053  14.208   7.234  0.00  0.00     0.053 C 
HETATM   15  C   UNK N   1      24.905  12.509  10.520  0.00  0.00     0.002 A 
HETATM   16  C   UNK N   1      23.684  12.188  11.078  0.00  0.00     0.009 A 
HETATM   17  N   UNK N   1      23.146  14.828   6.572  0.00  0.00    -0.360 N 
ATOM     18  HN  UNK N   1      23.396  15.086   5.617  1.00  0.00     0.162 HD
HETATM   19  C   UNK N   1      21.216  12.137  11.064  0.00  0.00     0.050 C 
BRANCH  14  20
HETATM   20  C   UNK N   1      25.437  14.403   6.673  0.00  0.00    -0.006 A 
HETATM   21  C   UNK N   1      25.942  13.402   5.819  0.00  0.00     0.014 A 
HETATM   22  C   UNK N   1      27.164  13.544   5.170  0.00  0.00     0.004 A 
HETATM   23  C   UNK N   1      27.919  14.696   5.368  0.00  0.00     0.042 A 
HETATM   24  C   UNK N   1      27.447  15.699   6.217  0.00  0.00     0.117 A 
HETATM   25  C   UNK N   1      26.210  15.560   6.859  0.00  0.00     0.056 A 
HETATM   26  F   UNK N   1      28.186  16.815   6.407  0.00  0.00    -0.206 F 
ENDBRANCH  14  20
ENDBRANCH   1   5
BRANCH   2  27
HETATM   27  C   UNK N   1      21.522  16.898   4.692  0.00  0.00     0.091 C 
BRANCH  27  28
HETATM   28  C   UNK N   1      20.434  17.681   3.957  0.00  0.00     0.023 C 
BRANCH  28  29
HETATM   29  C   UNK N   1      20.989  18.392   2.728  0.00  0.00     0.118 C 
BRANCH  29  30
HETATM   30  C   UNK N   1      21.332  19.848   3.011  0.00  0.00     0.387 C 
HETATM   31  F   UNK N   1      21.219  20.562   1.835  0.00  0.00    -0.171 F 
HETATM   32  F   UNK N   1      22.622  19.978   3.486  0.00  0.00    -0.171 F 
HETATM   33  F   UNK N   1      20.452  20.362   3.944  0.00  0.00    -0.171 F 
ENDBRANCH  29  30
ENDBRANCH  28  29
ENDBRANCH  27  28
BRANCH  27  34
HETATM   34  C   UNK N   1      22.757  16.639   3.806  0.00  0.00     0.091 C 
BRANCH  34  35
HETATM   35  C   UNK N   1      24.071  17.062   4.445  0.00  0.00     0.023 C 
BRANCH  35  36
HETATM   36  C   UNK N   1      25.070  17.375   3.348  0.00  0.00     0.118 C 
BRANCH  36  37
HETATM   37  C   UNK N   1      26.103  18.379   3.828  0.00  0.00     0.387 C 
HETATM   38  F   UNK N   1      27.365  17.848   3.646  0.00  0.00    -0.171 F 
HETATM   39  F   UNK N   1      25.912  18.650   5.170  0.00  0.00    -0.171 F 
HETATM   40  F   UNK N   1      25.999  19.552   3.100  0.00  0.00    -0.171 F 
ENDBRANCH  36  37
ENDBRANCH  35  36
ENDBRANCH  34  35
BRANCH  34  41
HETATM   41  C   UNK N   1      22.792  15.288   3.150  0.00  0.00     0.220 C 
HETATM   42  O   UNK N   1      23.361  14.347   3.682  0.00  0.00    -0.273 OA
HETATM   43  N   UNK N   1      22.254  15.136   1.925  0.00  0.00    -0.370 N 
HETATM   44  H   UNK N   1      21.680  15.585   1.264  0.00  0.00     0.159 HD
HETATM   45  H   UNK N   1      22.537  14.265   1.560  0.00  0.00     0.159 HD
ENDBRANCH  34  41
ENDBRANCH  27  34
ENDBRANCH   2  27
TORSDOF 11
ENDMDL
MODEL 2
REMARK VINA RESULT:      -7.4      5.994      9.924
REMARK  11 active torsions:
REMARK  status: ('A' for Active; 'I' for Inactive)
REMARK    1  A    between atoms: C_11  and  N_22 
REMARK    2  A    between atoms: C_14  and  C_15 
REMARK       I    between atoms: N_22  and  C_23 
REMARK    3  A    between atoms: C_25  and  C_23 
REMARK    4  A    between atoms: C_25  and  C_26 
REMARK    5  A    between atoms: C_25  and  C_32 
REMARK    6  A    between atoms: C_26  and  C_27 
REMARK    7  A    between atoms: C_27  and  C_28 
REMARK    8  A    between atoms: C_32  and  C_33 
REMARK    9  A    between atoms: C_32  and  C_39 
REMARK   10  A    between atoms: C_33  and  C_34 
REMARK   11  A    between atoms: C_34  and  C_35 
REMARK       I    between atoms: C_39  and  N_41 
ROOT
HETATM    1  N   UNK N   1      31.352  16.159   4.334  0.00  0.00    -0.332 N 
HETATM    2  C   UNK N   1      32.412  16.577   5.072  0.00  0.00     0.224 C 
HETATM    3  O   UNK N   1      33.331  17.159   4.520  0.00  0.00    -0.273 OA
HETATM    4  H   UNK N   1      31.381  16.227   3.352  0.00  0.00     0.165 HD
ENDROOT
BRANCH   1   5
HETATM    5  C   UNK N   1      30.189  15.616   4.979  0.00  0.00     0.279 C 
HETATM    6  C   UNK N   1      29.880  14.180   4.952  0.00  0.00     0.264 C 
HETATM    7  N   UNK N   1      28.830  13.687   4.275  0.00  0.00    -0.323 N 
HETATM    8  O   UNK N   1      30.629  13.405   5.530  0.00  0.00    -0.269 OA
HETATM    9  C   UNK N   1      27.802  14.370   3.553  0.00  0.00     0.053 A 
HETATM   10  H   UNK N   1      28.757  12.705   4.276  0.00  0.00     0.169 HD
HETATM   11  C   UNK N   1      27.447  15.764   3.705  0.00  0.00     0.018 A 
HETATM   12  C   UNK N   1      27.058  13.566   2.654  0.00  0.00    -0.034 A 
HETATM   13  C   UNK N   1      26.371  16.232   2.928  0.00  0.00     0.016 A 
HETATM   14  C   UNK N   1      28.088  16.791   4.633  0.00  0.00     0.053 C 
HETATM   15  C   UNK N   1      25.664  15.425   2.050  0.00  0.00     0.002 A 
HETATM   16  C   UNK N   1      26.008  14.096   1.913  0.00  0.00     0.009 A 
HETATM   17  N   UNK N   1      29.220  16.618   5.212  0.00  0.00    -0.360 N 
ATOM     18  HN  UNK N   1      29.450  17.295   5.939  1.00  0.00     0.162 HD
HETATM   19  C   UNK N   1      27.380  12.120   2.468  0.00  0.00     0.050 C 
BRANCH  14  20
HETATM   20  C   UNK N   1      27.551  18.191   4.782  0.00  0.00    -0.006 A 
HETATM   21  C   UNK N   1      27.525  18.744   6.077  0.00  0.00     0.014 A 
HETATM   22  C   UNK N   1      27.147  20.064   6.300  0.00  0.00     0.004 A 
HETATM   23  C   UNK N   1      26.777  20.865   5.224  0.00  0.00     0.042 A 
HETATM   24  C   UNK N   1      26.784  20.338   3.931  0.00  0.00     0.117 A 
HETATM   25  C   UNK N   1      27.178  19.013   3.707  0.00  0.00     0.056 A 
HETATM   26  F   UNK N   1      26.421  21.121   2.889  0.00  0.00    -0.206 F 
ENDBRANCH  14  20
ENDBRANCH   1   5
BRANCH   2  27
HETATM   27  C   UNK N   1      32.521  16.208   6.547  0.00  0.00     0.091 C 
BRANCH  27  28
HETATM   28  C   UNK N   1      33.689  15.252   6.786  0.00  0.00     0.023 C 
BRANCH  28  29
HETATM   29  C   UNK N   1      33.269  14.051   7.627  0.00  0.00     0.118 C 
BRANCH  29  30
HETATM   30  C   UNK N   1      34.025  13.979   8.946  0.00  0.00     0.387 C 
HETATM   31  F   UNK N   1      33.250  14.562   9.929  0.00  0.00    -0.171 F 
HETATM   32  F   UNK N   1      35.228  14.653   8.874  0.00  0.00    -0.171 F 
HETATM   33  F   UNK N   1      34.264  12.659   9.276  0.00  0.00    -0.171 F 
ENDBRANCH  29  30
ENDBRANCH  28  29
ENDBRANCH  27  28
BRANCH  27  34
HETATM   34  C   UNK N   1      32.467  17.339   7.595  0.00  0.00     0.091 C 
BRANCH  34  35
HETATM   35  C   UNK N   1      31.444  17.107   8.697  0.00  0.00     0.023 C 
BRANCH  35  36
HETATM   36  C   UNK N   1      30.215  17.947   8.408  0.00  0.00     0.118 C 
BRANCH  36  37
HETATM   37  C   UNK N   1      29.361  18.101   9.654  0.00  0.00     0.387 C 
HETATM   38  F   UNK N   1      29.854  19.145  10.411  0.00  0.00    -0.171 F 
HETATM   39  F   UNK N   1      29.399  16.938  10.401  0.00  0.00    -0.171 F 
HETATM   40  F   UNK N   1      28.052  18.380   9.300  0.00  0.00    -0.171 F 
ENDBRANCH  36  37
ENDBRANCH  35  36
ENDBRANCH  34  35
BRANCH  34  41
HETATM   41  C   UNK N   1      33.807  17.812   8.081  0.00  0.00     0.220 C 
HETATM   42  O   UNK N   1      34.602  18.337   7.317  0.00  0.00    -0.273 OA
HETATM   43  N   UNK N   1      34.164  17.582   9.359  0.00  0.00    -0.370 N 
HETATM   44  H   UNK N   1      33.804  17.296  10.230  0.00  0.00     0.159 HD
HETATM   45  H   UNK N   1      35.127  17.765   9.458  0.00  0.00     0.159 HD
ENDBRANCH  34  41
ENDBRANCH  27  34
ENDBRANCH   2  27
TORSDOF 11
ENDMDL
MODEL 3
REMARK VINA RESULT:      -7.4     14.174     16.638
REMARK  11 active torsions:
REMARK  status: ('A' for Active; 'I' for Inactive)
REMARK    1  A    between atoms: C_11  and  N_22 
REMARK    2  A    between atoms: C_14  and  C_15 
REMARK       I    between atoms: N_22  and  C_23 
REMARK    3  A    between atoms: C_25  and  C_23 
REMARK    4  A    between atoms: C_25  and  C_26 
REMARK    5  A    between atoms: C_25  and  C_32 
REMARK    6  A    between atoms: C_26  and  C_27 
REMARK    7  A    between atoms: C_27  and  C_28 
REMARK    8  A    between atoms: C_32  and  C_33 
REMARK    9  A    between atoms: C_32  and  C_39 
REMARK   10  A    between atoms: C_33  and  C_34 
REMARK   11  A    between atoms: C_34  and  C_35 
REMARK       I    between atoms: C_39  and  N_41 
ROOT
HETATM    1  N   UNK N   1      29.598  23.667  -3.967  0.00  0.00    -0.332 N 
HETATM    2  C   UNK N   1      30.512  22.665  -4.031  0.00  0.00     0.224 C 
HETATM    3  O   UNK N   1      30.525  21.813  -3.157  0.00  0.00    -0.273 OA
HETATM    4  H   UNK N   1      29.029  23.763  -3.168  0.00  0.00     0.165 HD
ENDROOT
BRANCH   1   5
HETATM    5  C   UNK N   1      29.456  24.589  -5.060  0.00  0.00     0.279 C 
HETATM    6  C   UNK N   1      29.805  26.011  -4.933  0.00  0.00     0.264 C 
HETATM    7  N   UNK N   1      28.876  26.980  -4.957  0.00  0.00    -0.323 N 
HETATM    8  O   UNK N   1      30.976  26.316  -4.755  0.00  0.00    -0.269 OA
HETATM    9  C   UNK N   1      27.466  26.893  -5.177  0.00  0.00     0.053 A 
HETATM   10  H   UNK N   1      29.218  27.889  -4.800  0.00  0.00     0.169 HD
HETATM   11  C   UNK N   1      26.774  25.784  -5.798  0.00  0.00     0.018 A 
HETATM   12  C   UNK N   1      26.720  28.031  -4.781  0.00  0.00    -0.034 A 
HETATM   13  C   UNK N   1      25.382  25.915  -5.961  0.00  0.00     0.016 A 
HETATM   14  C   UNK N   1      27.381  24.487  -6.325  0.00  0.00     0.053 C 
HETATM   15  C   UNK N   1      24.676  27.038  -5.557  0.00  0.00     0.002 A 
HETATM   16  C   UNK N   1      25.344  28.092  -4.969  0.00  0.00     0.009 A 
HETATM   17  N   UNK N   1      28.566  24.089  -6.038  0.00  0.00    -0.360 N 
ATOM     18  HN  UNK N   1      28.914  23.305  -6.591  1.00  0.00     0.162 HD
HETATM   19  C   UNK N   1      27.388  29.204  -4.144  0.00  0.00     0.050 C 
BRANCH  14  20
HETATM   20  C   UNK N   1      26.566  23.452  -7.056  0.00  0.00    -0.006 A 
HETATM   21  C   UNK N   1      26.856  23.238  -8.418  0.00  0.00     0.014 A 
HETATM   22  C   UNK N   1      26.231  22.232  -9.148  0.00  0.00     0.004 A 
HETATM   23  C   UNK N   1      25.289  21.416  -8.529  0.00  0.00     0.042 A 
HETATM   24  C   UNK N   1      24.976  21.615  -7.182  0.00  0.00     0.117 A 
HETATM   25  C   UNK N   1      25.616  22.619  -6.446  0.00  0.00     0.056 A 
HETATM   26  F   UNK N   1      24.058  20.820  -6.587  0.00  0.00    -0.206 F 
ENDBRANCH  14  20
ENDBRANCH   1   5
BRANCH   2  27
HETATM   27  C   UNK N   1      31.597  22.675  -5.101  0.00  0.00     0.091 C 
BRANCH  27  28
HETATM   28  C   UNK N   1      32.983  22.515  -4.476  0.00  0.00     0.023 C 
BRANCH  28  29
HETATM   29  C   UNK N   1      33.686  21.261  -4.985  0.00  0.00     0.118 C 
BRANCH  29  30
HETATM   30  C   UNK N   1      33.644  20.126  -3.971  0.00  0.00     0.387 C 
HETATM   31  F   UNK N   1      33.577  20.671  -2.704  0.00  0.00    -0.171 F 
HETATM   32  F   UNK N   1      34.774  19.336  -4.054  0.00  0.00    -0.171 F 
HETATM   33  F   UNK N   1      32.527  19.344  -4.191  0.00  0.00    -0.171 F 
ENDBRANCH  29  30
ENDBRANCH  28  29
ENDBRANCH  27  28
BRANCH  27  34
HETATM   34  C   UNK N   1      31.411  21.784  -6.346  0.00  0.00     0.091 C 
BRANCH  34  35
HETATM   35  C   UNK N   1      30.260  20.796  -6.227  0.00  0.00     0.023 C 
BRANCH  35  36
HETATM   36  C   UNK N   1      30.534  19.615  -7.139  0.00  0.00     0.118 C 
BRANCH  36  37
HETATM   37  C   UNK N   1      29.286  19.232  -7.915  0.00  0.00     0.387 C 
HETATM   38  F   UNK N   1      28.925  17.942  -7.576  0.00  0.00    -0.171 F 
HETATM   39  F   UNK N   1      29.535  19.294  -9.273  0.00  0.00    -0.171 F 
HETATM   40  F   UNK N   1      28.247  20.088  -7.595  0.00  0.00    -0.171 F 
ENDBRANCH  36  37
ENDBRANCH  35  36
ENDBRANCH  34  35
BRANCH  34  41
HETATM   41  C   UNK N   1      31.470  22.513  -7.658  0.00  0.00     0.220 C 
HETATM   42  O   UNK N   1      30.476  23.047  -8.125  0.00  0.00    -0.273 OA
HETATM   43  N   UNK N   1      32.618  22.508  -8.364  0.00  0.00    -0.370 N 
HETATM   44  H   UNK N   1      33.574  22.287  -8.295  0.00  0.00     0.159 HD
HETATM   45  H   UNK N   1      32.434  22.844  -9.272  0.00  0.00     0.159 HD
ENDBRANCH  34  41
ENDBRANCH  27  34
ENDBRANCH   2  27
TORSDOF 11
ENDMDL
MODEL 4
REMARK VINA RESULT:      -7.2      3.573      6.903
REMARK  11 active torsions:
REMARK  status: ('A' for Active; 'I' for Inactive)
REMARK    1  A    between atoms: C_11  and  N_22 
REMARK    2  A    between atoms: C_14  and  C_15 
REMARK       I    between atoms: N_22  and  C_23 
REMARK    3  A    between atoms: C_25  and  C_23 
REMARK    4  A    between atoms: C_25  and  C_26 
REMARK    5  A    between atoms: C_25  and  C_32 
REMARK    6  A    between atoms: C_26  and  C_27 
REMARK    7  A    between atoms: C_27  and  C_28 
REMARK    8  A    between atoms: C_32  and  C_33 
REMARK    9  A    between atoms: C_32  and  C_39 
REMARK   10  A    between atoms: C_33  and  C_34 
REMARK   11  A    between atoms: C_34  and  C_35 
REMARK       I    between atoms: C_39  and  N_41 
ROOT
HETATM    1  N   UNK N   1      23.247  15.236   4.905  0.00  0.00    -0.332 N 
HETATM    2  C   UNK N   1      22.786  14.170   5.608  0.00  0.00     0.224 C 
HETATM    3  O   UNK N   1      22.709  13.082   5.061  0.00  0.00    -0.273 OA
HETATM    4  H   UNK N   1      23.410  15.152   3.937  0.00  0.00     0.165 HD
ENDROOT
BRANCH   1   5
HETATM    5  C   UNK N   1      23.499  16.486   5.566  0.00  0.00     0.279 C 
HETATM    6  C   UNK N   1      22.625  17.654   5.386  0.00  0.00     0.264 C 
HETATM    7  N   UNK N   1      23.030  18.757   4.736  0.00  0.00    -0.323 N 
HETATM    8  O   UNK N   1      21.477  17.601   5.805  0.00  0.00    -0.269 OA
HETATM    9  C   UNK N   1      24.310  19.079   4.186  0.00  0.00     0.053 A 
HETATM   10  H   UNK N   1      22.341  19.451   4.622  0.00  0.00     0.169 HD
HETATM   11  C   UNK N   1      25.563  18.446   4.535  0.00  0.00     0.018 A 
HETATM   12  C   UNK N   1      24.316  20.147   3.254  0.00  0.00    -0.034 A 
HETATM   13  C   UNK N   1      26.721  18.942   3.907  0.00  0.00     0.016 A 
HETATM   14  C   UNK N   1      25.786  17.311   5.530  0.00  0.00     0.053 C 
HETATM   15  C   UNK N   1      26.698  19.984   2.993  0.00  0.00     0.002 A 
HETATM   16  C   UNK N   1      25.498  20.585   2.668  0.00  0.00     0.009 A 
HETATM   17  N   UNK N   1      24.843  16.577   5.994  0.00  0.00    -0.360 N 
ATOM     18  HN  UNK N   1      25.097  15.977   6.779  1.00  0.00     0.162 HD
HETATM   19  C   UNK N   1      23.051  20.838   2.868  0.00  0.00     0.050 C 
BRANCH  14  20
HETATM   20  C   UNK N   1      27.161  16.813   5.891  0.00  0.00    -0.006 A 
HETATM   21  C   UNK N   1      27.652  15.692   5.193  0.00  0.00     0.014 A 
HETATM   22  C   UNK N   1      28.948  15.224   5.381  0.00  0.00     0.004 A 
HETATM   23  C   UNK N   1      29.787  15.867   6.285  0.00  0.00     0.042 A 
HETATM   24  C   UNK N   1      29.322  16.974   6.999  0.00  0.00     0.117 A 
HETATM   25  C   UNK N   1      28.021  17.452   6.797  0.00  0.00     0.056 A 
HETATM   26  F   UNK N   1      30.142  17.594   7.878  0.00  0.00    -0.206 F 
ENDBRANCH  14  20
ENDBRANCH   1   5
BRANCH   2  27
HETATM   27  C   UNK N   1      22.244  14.352   7.021  0.00  0.00     0.091 C 
BRANCH  27  28
HETATM   28  C   UNK N   1      20.751  14.029   7.078  0.00  0.00     0.023 C 
BRANCH  28  29
HETATM   29  C   UNK N   1      19.911  15.289   7.262  0.00  0.00     0.118 C 
BRANCH  29  30
HETATM   30  C   UNK N   1      19.779  15.684   8.726  0.00  0.00     0.387 C 
HETATM   31  F   UNK N   1      20.927  16.350   9.106  0.00  0.00    -0.171 F 
HETATM   32  F   UNK N   1      19.622  14.575   9.535  0.00  0.00    -0.171 F 
HETATM   33  F   UNK N   1      18.691  16.521   8.888  0.00  0.00    -0.171 F 
ENDBRANCH  29  30
ENDBRANCH  28  29
ENDBRANCH  27  28
BRANCH  27  34
HETATM   34  C   UNK N   1      23.023  13.725   8.195  0.00  0.00     0.091 C 
BRANCH  34  35
HETATM   35  C   UNK N   1      22.230  12.686   8.973  0.00  0.00     0.023 C 
BRANCH  35  36
HETATM   36  C   UNK N   1      22.346  12.991  10.454  0.00  0.00     0.118 C 
BRANCH  36  37
HETATM   37  C   UNK N   1      23.191  11.943  11.157  0.00  0.00     0.387 C 
HETATM   38  F   UNK N   1      23.066  10.742  10.487  0.00  0.00    -0.171 F 
HETATM   39  F   UNK N   1      22.761  11.784  12.461  0.00  0.00    -0.171 F 
HETATM   40  F   UNK N   1      24.521  12.325  11.152  0.00  0.00    -0.171 F 
ENDBRANCH  36  37
ENDBRANCH  35  36
ENDBRANCH  34  35
BRANCH  34  41
HETATM   41  C   UNK N   1      24.431  13.316   7.870  0.00  0.00     0.220 C 
HETATM   42  O   UNK N   1      25.345  14.126   7.908  0.00  0.00    -0.273 OA
HETATM   43  N   UNK N   1      24.674  12.057   7.457  0.00  0.00    -0.370 N 
HETATM   44  H   UNK N   1      24.261  11.166   7.388  0.00  0.00     0.159 HD
HETATM   45  H   UNK N   1      25.589  12.012   7.096  0.00  0.00     0.159 HD
ENDBRANCH  34  41
ENDBRANCH  27  34
ENDBRANCH   2  27
TORSDOF 11
ENDMDL
MODEL 5
REMARK VINA RESULT:      -7.2      4.547      7.429
REMARK  11 active torsions:
REMARK  status: ('A' for Active; 'I' for Inactive)
REMARK    1  A    between atoms: C_11  and  N_22 
REMARK    2  A    between atoms: C_14  and  C_15 
REMARK       I    between atoms: N_22  and  C_23 
REMARK    3  A    between atoms: C_25  and  C_23 
REMARK    4  A    between atoms: C_25  and  C_26 
REMARK    5  A    between atoms: C_25  and  C_32 
REMARK    6  A    between atoms: C_26  and  C_27 
REMARK    7  A    between atoms: C_27  and  C_28 
REMARK    8  A    between atoms: C_32  and  C_33 
REMARK    9  A    between atoms: C_32  and  C_39 
REMARK   10  A    between atoms: C_33  and  C_34 
REMARK   11  A    between atoms: C_34  and  C_35 
REMARK       I    between atoms: C_39  and  N_41 
ROOT
HETATM    1  N   UNK N   1      27.207  15.293   4.895  0.00  0.00    -0.332 N 
HETATM    2  C   UNK N   1      26.726  16.267   5.710  0.00  0.00     0.224 C 
HETATM    3  O   UNK N   1      26.157  15.953   6.742  0.00  0.00    -0.273 OA
HETATM    4  H   UNK N   1      26.999  14.349   5.083  0.00  0.00     0.165 HD
ENDROOT
BRANCH   1   5
HETATM    5  C   UNK N   1      28.018  15.633   3.759  0.00  0.00     0.279 C 
HETATM    6  C   UNK N   1      27.722  15.131   2.410  0.00  0.00     0.264 C 
HETATM    7  N   UNK N   1      28.517  14.246   1.786  0.00  0.00    -0.323 N 
HETATM    8  O   UNK N   1      26.695  15.498   1.856  0.00  0.00    -0.269 OA
HETATM    9  C   UNK N   1      29.769  13.690   2.197  0.00  0.00     0.053 A 
HETATM   10  H   UNK N   1      28.187  13.932   0.913  0.00  0.00     0.169 HD
HETATM   11  C   UNK N   1      30.648  14.241   3.205  0.00  0.00     0.018 A 
HETATM   12  C   UNK N   1      30.171  12.523   1.499  0.00  0.00    -0.034 A 
HETATM   13  C   UNK N   1      31.860  13.562   3.429  0.00  0.00     0.016 A 
HETATM   14  C   UNK N   1      30.429  15.495   4.045  0.00  0.00     0.053 C 
HETATM   15  C   UNK N   1      32.225  12.417   2.737  0.00  0.00     0.002 A 
HETATM   16  C   UNK N   1      31.382  11.900   1.774  0.00  0.00     0.009 A 
HETATM   17  N   UNK N   1      29.295  16.085   4.160  0.00  0.00    -0.360 N 
ATOM     18  HN  UNK N   1      29.320  17.005   4.600  1.00  0.00     0.162 HD
HETATM   19  C   UNK N   1      29.303  11.922   0.444  0.00  0.00     0.050 C 
BRANCH  14  20
HETATM   20  C   UNK N   1      31.476  16.030   4.986  0.00  0.00    -0.006 A 
HETATM   21  C   UNK N   1      32.392  16.971   4.476  0.00  0.00     0.014 A 
HETATM   22  C   UNK N   1      33.326  17.599   5.294  0.00  0.00     0.004 A 
HETATM   23  C   UNK N   1      33.370  17.292   6.650  0.00  0.00     0.042 A 
HETATM   24  C   UNK N   1      32.480  16.355   7.180  0.00  0.00     0.117 A 
HETATM   25  C   UNK N   1      31.531  15.734   6.357  0.00  0.00     0.056 A 
HETATM   26  F   UNK N   1      32.528  16.060   8.498  0.00  0.00    -0.206 F 
ENDBRANCH  14  20
ENDBRANCH   1   5
BRANCH   2  27
HETATM   27  C   UNK N   1      26.773  17.728   5.279  0.00  0.00     0.091 C 
BRANCH  27  28
HETATM   28  C   UNK N   1      25.376  18.240   4.930  0.00  0.00     0.023 C 
BRANCH  28  29
HETATM   29  C   UNK N   1      25.261  18.593   3.451  0.00  0.00     0.118 C 
BRANCH  29  30
HETATM   30  C   UNK N   1      24.970  20.071   3.232  0.00  0.00     0.387 C 
HETATM   31  F   UNK N   1      25.009  20.711   4.455  0.00  0.00    -0.171 F 
HETATM   32  F   UNK N   1      23.722  20.261   2.672  0.00  0.00    -0.171 F 
HETATM   33  F   UNK N   1      25.929  20.617   2.401  0.00  0.00    -0.171 F 
ENDBRANCH  29  30
ENDBRANCH  28  29
ENDBRANCH  27  28
BRANCH  27  34
HETATM   34  C   UNK N   1      27.561  18.727   6.151  0.00  0.00     0.091 C 
BRANCH  34  35
HETATM   35  C   UNK N   1      28.656  18.082   6.987  0.00  0.00     0.023 C 
BRANCH  35  36
HETATM   36  C   UNK N   1      28.478  18.501   8.433  0.00  0.00     0.118 C 
BRANCH  36  37
HETATM   37  C   UNK N   1      29.759  18.287   9.220  0.00  0.00     0.387 C 
HETATM   38  F   UNK N   1      29.898  16.940   9.495  0.00  0.00    -0.171 F 
HETATM   39  F   UNK N   1      29.708  18.991  10.408  0.00  0.00    -0.171 F 
HETATM   40  F   UNK N   1      30.847  18.709   8.477  0.00  0.00    -0.171 F 
ENDBRANCH  36  37
ENDBRANCH  35  36
ENDBRANCH  34  35
BRANCH  34  41
HETATM   41  C   UNK N   1      27.978  19.987   5.446  0.00  0.00     0.220 C 
HETATM   42  O   UNK N   1      27.754  21.083   5.935  0.00  0.00    -0.273 OA
HETATM   43  N   UNK N   1      28.538  19.904   4.224  0.00  0.00    -0.370 N 
HETATM   44  H   UNK N   1      28.930  19.264   3.588  0.00  0.00     0.159 HD
HETATM   45  H   UNK N   1      28.561  20.805   3.824  0.00  0.00     0.159 HD
ENDBRANCH  34  41
ENDBRANCH  27  34
ENDBRANCH   2  27
TORSDOF 11
ENDMDL
MODEL 6
REMARK VINA RESULT:      -7.2      3.579      6.308
REMARK  11 active torsions:
REMARK  status: ('A' for Active; 'I' for Inactive)
REMARK    1  A    between atoms: C_11  and  N_22 
REMARK    2  A    between atoms: C_14  and  C_15 
REMARK       I    between atoms: N_22  and  C_23 
REMARK    3  A    between atoms: C_25  and  C_23 
REMARK    4  A    between atoms: C_25  and  C_26 
REMARK    5  A    between atoms: C_25  and  C_32 
REMARK    6  A    between atoms: C_26  and  C_27 
REMARK    7  A    between atoms: C_27  and  C_28 
REMARK    8  A    between atoms: C_32  and  C_33 
REMARK    9  A    between atoms: C_32  and  C_39 
REMARK   10  A    between atoms: C_33  and  C_34 
REMARK   11  A    between atoms: C_34  and  C_35 
REMARK       I    between atoms: C_39  and  N_41 
ROOT
HETATM    1  N   UNK N   1      24.382  15.108   4.412  0.00  0.00    -0.332 N 
HETATM    2  C   UNK N   1      23.080  15.425   4.629  0.00  0.00     0.224 C 
HETATM    3  O   UNK N   1      22.531  15.028   5.644  0.00  0.00    -0.273 OA
HETATM    4  H   UNK N   1      24.840  14.475   5.012  0.00  0.00     0.165 HD
ENDROOT
BRANCH   1   5
HETATM    5  C   UNK N   1      25.097  15.693   3.311  0.00  0.00     0.279 C 
HETATM    6  C   UNK N   1      25.503  14.906   2.138  0.00  0.00     0.264 C 
HETATM    7  N   UNK N   1      26.791  14.631   1.873  0.00  0.00    -0.323 N 
HETATM    8  O   UNK N   1      24.637  14.450   1.406  0.00  0.00    -0.269 OA
HETATM    9  C   UNK N   1      27.977  15.062   2.544  0.00  0.00     0.053 A 
HETATM   10  H   UNK N   1      26.941  14.044   1.097  0.00  0.00     0.169 HD
HETATM   11  C   UNK N   1      28.079  16.197   3.436  0.00  0.00     0.018 A 
HETATM   12  C   UNK N   1      29.145  14.315   2.250  0.00  0.00    -0.034 A 
HETATM   13  C   UNK N   1      29.354  16.479   3.961  0.00  0.00     0.016 A 
HETATM   14  C   UNK N   1      26.965  17.150   3.859  0.00  0.00     0.053 C 
HETATM   15  C   UNK N   1      30.479  15.726   3.661  0.00  0.00     0.002 A 
HETATM   16  C   UNK N   1      30.374  14.647   2.808  0.00  0.00     0.009 A 
HETATM   17  N   UNK N   1      25.717  16.905   3.690  0.00  0.00    -0.360 N 
ATOM     18  HN  UNK N   1      25.088  17.691   3.851  1.00  0.00     0.162 HD
HETATM   19  C   UNK N   1      29.094  13.141   1.329  0.00  0.00     0.050 C 
BRANCH  14  20
HETATM   20  C   UNK N   1      27.222  18.368   4.707  0.00  0.00    -0.006 A 
HETATM   21  C   UNK N   1      27.069  19.630   4.100  0.00  0.00     0.014 A 
HETATM   22  C   UNK N   1      27.182  20.809   4.829  0.00  0.00     0.004 A 
HETATM   23  C   UNK N   1      27.459  20.753   6.191  0.00  0.00     0.042 A 
HETATM   24  C   UNK N   1      27.627  19.515   6.815  0.00  0.00     0.117 A 
HETATM   25  C   UNK N   1      27.499  18.328   6.083  0.00  0.00     0.056 A 
HETATM   26  F   UNK N   1      27.898  19.467   8.139  0.00  0.00    -0.206 F 
ENDBRANCH  14  20
ENDBRANCH   1   5
BRANCH   2  27
HETATM   27  C   UNK N   1      22.273  16.150   3.559  0.00  0.00     0.091 C 
BRANCH  27  28
HETATM   28  C   UNK N   1      20.971  15.407   3.260  0.00  0.00     0.023 C 
BRANCH  28  29
HETATM   29  C   UNK N   1      21.219  14.150   2.434  0.00  0.00     0.118 C 
BRANCH  29  30
HETATM   30  C   UNK N   1      20.901  14.357   0.960  0.00  0.00     0.387 C 
HETATM   31  F   UNK N   1      21.863  13.712   0.209  0.00  0.00    -0.171 F 
HETATM   32  F   UNK N   1      20.904  15.697   0.628  0.00  0.00    -0.171 F 
HETATM   33  F   UNK N   1      19.660  13.822   0.671  0.00  0.00    -0.171 F 
ENDBRANCH  29  30
ENDBRANCH  28  29
ENDBRANCH  27  28
BRANCH  27  34
HETATM   34  C   UNK N   1      22.058  17.671   3.704  0.00  0.00     0.091 C 
BRANCH  34  35
HETATM   35  C   UNK N   1      20.660  18.133   3.320  0.00  0.00     0.023 C 
BRANCH  35  36
HETATM   36  C   UNK N   1      20.760  19.032   2.102  0.00  0.00     0.118 C 
BRANCH  36  37
HETATM   37  C   UNK N   1      20.953  20.481   2.515  0.00  0.00     0.387 C 
HETATM   38  F   UNK N   1      22.300  20.719   2.704  0.00  0.00    -0.171 F 
HETATM   39  F   UNK N   1      20.276  20.731   3.694  0.00  0.00    -0.171 F 
HETATM   40  F   UNK N   1      20.482  21.323   1.524  0.00  0.00    -0.171 F 
ENDBRANCH  36  37
ENDBRANCH  35  36
ENDBRANCH  34  35
BRANCH  34  41
HETATM   41  C   UNK N   1      22.578  18.262   4.983  0.00  0.00     0.220 C 
HETATM   42  O   UNK N   1      23.705  18.729   5.046  0.00  0.00    -0.273 OA
HETATM   43  N   UNK N   1      21.818  18.205   6.093  0.00  0.00    -0.370 N 
HETATM   44  H   UNK N   1      20.905  18.008   6.403  0.00  0.00     0.159 HD
HETATM   45  H   UNK N   1      22.373  18.443   6.871  0.00  0.00     0.159 HD
ENDBRANCH  34  41
ENDBRANCH  27  34
ENDBRANCH   2  27
TORSDOF 11
ENDMDL
MODEL 7
REMARK VINA RESULT:      -7.0      8.942     12.237
REMARK  11 active torsions:
REMARK  status: ('A' for Active; 'I' for Inactive)
REMARK    1  A    between atoms: C_11  and  N_22 
REMARK    2  A    between atoms: C_14  and  C_15 
REMARK       I    between atoms: N_22  and  C_23 
REMARK    3  A    between atoms: C_25  and  C_23 
REMARK    4  A    between atoms: C_25  and  C_26 
REMARK    5  A    between atoms: C_25  and  C_32 
REMARK    6  A    between atoms: C_26  and  C_27 
REMARK    7  A    between atoms: C_27  and  C_28 
REMARK    8  A    between atoms: C_32  and  C_33 
REMARK    9  A    between atoms: C_32  and  C_39 
REMARK   10  A    between atoms: C_33  and  C_34 
REMARK   11  A    between atoms: C_34  and  C_35 
REMARK       I    between atoms: C_39  and  N_41 
ROOT
HETATM    1  N   UNK N   1      33.487  13.964   7.304  0.00  0.00    -0.332 N 
HETATM    2  C   UNK N   1      32.386  14.687   6.973  0.00  0.00     0.224 C 
HETATM    3  O   UNK N   1      31.300  14.132   6.927  0.00  0.00    -0.273 OA
HETATM    4  H   UNK N   1      33.422  12.985   7.395  0.00  0.00     0.165 HD
ENDROOT
BRANCH   1   5
HETATM    5  C   UNK N   1      34.746  14.621   7.522  0.00  0.00     0.279 C 
HETATM    6  C   UNK N   1      35.719  14.822   6.439  0.00  0.00     0.264 C 
HETATM    7  N   UNK N   1      36.897  14.177   6.407  0.00  0.00    -0.323 N 
HETATM    8  O   UNK N   1      35.427  15.568   5.515  0.00  0.00    -0.269 OA
HETATM    9  C   UNK N   1      37.481  13.288   7.362  0.00  0.00     0.053 A 
HETATM   10  H   UNK N   1      37.441  14.342   5.603  0.00  0.00     0.169 HD
HETATM   11  C   UNK N   1      37.104  13.177   8.754  0.00  0.00     0.018 A 
HETATM   12  C   UNK N   1      38.551  12.496   6.876  0.00  0.00    -0.034 A 
HETATM   13  C   UNK N   1      37.837  12.268   9.540  0.00  0.00     0.016 A 
HETATM   14  C   UNK N   1      36.013  13.952   9.487  0.00  0.00     0.053 C 
HETATM   15  C   UNK N   1      38.875  11.500   9.036  0.00  0.00     0.002 A 
HETATM   16  C   UNK N   1      39.231  11.614   7.708  0.00  0.00     0.009 A 
HETATM   17  N   UNK N   1      35.093  14.619   8.892  0.00  0.00    -0.360 N 
ATOM     18  HN  UNK N   1      34.537  15.233   9.488  1.00  0.00     0.162 HD
HETATM   19  C   UNK N   1      38.984  12.581   5.450  0.00  0.00     0.050 C 
BRANCH  14  20
HETATM   20  C   UNK N   1      35.791  13.826  10.971  0.00  0.00    -0.006 A 
HETATM   21  C   UNK N   1      35.067  12.708  11.430  0.00  0.00     0.014 A 
HETATM   22  C   UNK N   1      34.902  12.451  12.787  0.00  0.00     0.004 A 
HETATM   23  C   UNK N   1      35.455  13.317  13.724  0.00  0.00     0.042 A 
HETATM   24  C   UNK N   1      36.169  14.439  13.296  0.00  0.00     0.117 A 
HETATM   25  C   UNK N   1      36.345  14.689  11.929  0.00  0.00     0.056 A 
HETATM   26  F   UNK N   1      36.703  15.279  14.212  0.00  0.00    -0.206 F 
ENDBRANCH  14  20
ENDBRANCH   1   5
BRANCH   2  27
HETATM   27  C   UNK N   1      32.518  16.140   6.533  0.00  0.00     0.091 C 
BRANCH  27  28
HETATM   28  C   UNK N   1      31.651  16.420   5.306  0.00  0.00     0.023 C 
BRANCH  28  29
HETATM   29  C   UNK N   1      32.209  15.746   4.058  0.00  0.00     0.118 C 
BRANCH  29  30
HETATM   30  C   UNK N   1      32.841  16.744   3.098  0.00  0.00     0.387 C 
HETATM   31  F   UNK N   1      33.352  17.796   3.832  0.00  0.00    -0.171 F 
HETATM   32  F   UNK N   1      31.911  17.239   2.204  0.00  0.00    -0.171 F 
HETATM   33  F   UNK N   1      33.864  16.136   2.398  0.00  0.00    -0.171 F 
ENDBRANCH  29  30
ENDBRANCH  28  29
ENDBRANCH  27  28
BRANCH  27  34
HETATM   34  C   UNK N   1      32.396  17.246   7.601  0.00  0.00     0.091 C 
BRANCH  34  35
HETATM   35  C   UNK N   1      31.439  16.904   8.733  0.00  0.00     0.023 C 
BRANCH  35  36
HETATM   36  C   UNK N   1      30.040  17.337   8.338  0.00  0.00     0.118 C 
BRANCH  36  37
HETATM   37  C   UNK N   1      29.296  17.912   9.530  0.00  0.00     0.387 C 
HETATM   38  F   UNK N   1      28.101  18.451   9.097  0.00  0.00    -0.171 F 
HETATM   39  F   UNK N   1      30.053  18.903  10.128  0.00  0.00    -0.171 F 
HETATM   40  F   UNK N   1      29.032  16.914  10.452  0.00  0.00    -0.171 F 
ENDBRANCH  36  37
ENDBRANCH  35  36
ENDBRANCH  34  35
BRANCH  34  41
HETATM   41  C   UNK N   1      33.702  17.838   8.050  0.00  0.00     0.220 C 
HETATM   42  O   UNK N   1      34.478  18.328   7.244  0.00  0.00    -0.273 OA
HETATM   43  N   UNK N   1      34.052  17.754   9.348  0.00  0.00    -0.370 N 
HETATM   44  H   UNK N   1      33.696  17.535  10.239  0.00  0.00     0.159 HD
HETATM   45  H   UNK N   1      35.003  17.997   9.436  0.00  0.00     0.159 HD
ENDBRANCH  34  41
ENDBRANCH  27  34
ENDBRANCH   2  27
TORSDOF 11
ENDMDL
MODEL 8
REMARK VINA RESULT:      -6.9     13.943     16.542
REMARK  11 active torsions:
REMARK  status: ('A' for Active; 'I' for Inactive)
REMARK    1  A    between atoms: C_11  and  N_22 
REMARK    2  A    between atoms: C_14  and  C_15 
REMARK       I    between atoms: N_22  and  C_23 
REMARK    3  A    between atoms: C_25  and  C_23 
REMARK    4  A    between atoms: C_25  and  C_26 
REMARK    5  A    between atoms: C_25  and  C_32 
REMARK    6  A    between atoms: C_26  and  C_27 
REMARK    7  A    between atoms: C_27  and  C_28 
REMARK    8  A    between atoms: C_32  and  C_33 
REMARK    9  A    between atoms: C_32  and  C_39 
REMARK   10  A    between atoms: C_33  and  C_34 
REMARK   11  A    between atoms: C_34  and  C_35 
REMARK       I    between atoms: C_39  and  N_41 
ROOT
HETATM    1  N   UNK N   1      29.346  23.710  -3.365  0.00  0.00    -0.332 N 
HETATM    2  C   UNK N   1      30.007  22.535  -3.523  0.00  0.00     0.224 C 
HETATM    3  O   UNK N   1      29.868  21.655  -2.689  0.00  0.00    -0.273 OA
HETATM    4  H   UNK N   1      28.852  23.887  -2.531  0.00  0.00     0.165 HD
ENDROOT
BRANCH   1   5
HETATM    5  C   UNK N   1      29.364  24.698  -4.408  0.00  0.00     0.279 C 
HETATM    6  C   UNK N   1      29.630  26.118  -4.134  0.00  0.00     0.264 C 
HETATM    7  N   UNK N   1      28.683  27.061  -4.266  0.00  0.00    -0.323 N 
HETATM    8  O   UNK N   1      30.739  26.443  -3.731  0.00  0.00    -0.269 OA
HETATM    9  C   UNK N   1      27.339  26.950  -4.739  0.00  0.00     0.053 A 
HETATM   10  H   UNK N   1      28.957  27.967  -3.995  0.00  0.00     0.169 HD
HETATM   11  C   UNK N   1      26.812  25.866  -5.540  0.00  0.00     0.018 A 
HETATM   12  C   UNK N   1      26.491  28.039  -4.415  0.00  0.00    -0.034 A 
HETATM   13  C   UNK N   1      25.467  25.970  -5.941  0.00  0.00     0.016 A 
HETATM   14  C   UNK N   1      27.552  24.625  -6.028  0.00  0.00     0.053 C 
HETATM   15  C   UNK N   1      24.658  27.044  -5.603  0.00  0.00     0.002 A 
HETATM   16  C   UNK N   1      25.169  28.075  -4.842  0.00  0.00     0.009 A 
HETATM   17  N   UNK N   1      28.682  24.240  -5.557  0.00  0.00    -0.360 N 
ATOM     18  HN  UNK N   1      29.152  23.505  -6.086  1.00  0.00     0.162 HD
HETATM   19  C   UNK N   1      26.991  29.184  -3.599  0.00  0.00     0.050 C 
BRANCH  14  20
HETATM   20  C   UNK N   1      26.920  23.619  -6.954  0.00  0.00    -0.006 A 
HETATM   21  C   UNK N   1      27.431  23.528  -8.264  0.00  0.00     0.014 A 
HETATM   22  C   UNK N   1      26.985  22.559  -9.156  0.00  0.00     0.004 A 
HETATM   23  C   UNK N   1      26.004  21.657  -8.758  0.00  0.00     0.042 A 
HETATM   24  C   UNK N   1      25.472  21.732  -7.469  0.00  0.00     0.117 A 
HETATM   25  C   UNK N   1      25.933  22.699  -6.567  0.00  0.00     0.056 A 
HETATM   26  F   UNK N   1      24.517  20.853  -7.089  0.00  0.00    -0.206 F 
ENDBRANCH  14  20
ENDBRANCH   1   5
BRANCH   2  27
HETATM   27  C   UNK N   1      31.015  22.361  -4.653  0.00  0.00     0.091 C 
BRANCH  27  28
HETATM   28  C   UNK N   1      32.422  22.740  -4.192  0.00  0.00     0.023 C 
BRANCH  28  29
HETATM   29  C   UNK N   1      32.988  23.897  -5.009  0.00  0.00     0.118 C 
BRANCH  29  30
HETATM   30  C   UNK N   1      34.141  23.461  -5.903  0.00  0.00     0.387 C 
HETATM   31  F   UNK N   1      34.847  22.468  -5.255  0.00  0.00    -0.171 F 
HETATM   32  F   UNK N   1      34.997  24.512  -6.167  0.00  0.00    -0.171 F 
HETATM   33  F   UNK N   1      33.647  22.968  -7.095  0.00  0.00    -0.171 F 
ENDBRANCH  29  30
ENDBRANCH  28  29
ENDBRANCH  27  28
BRANCH  27  34
HETATM   34  C   UNK N   1      30.998  21.046  -5.459  0.00  0.00     0.091 C 
BRANCH  34  35
HETATM   35  C   UNK N   1      30.597  21.223  -6.916  0.00  0.00     0.023 C 
BRANCH  35  36
HETATM   36  C   UNK N   1      29.302  20.473  -7.160  0.00  0.00     0.118 C 
BRANCH  36  37
HETATM   37  C   UNK N   1      29.530  19.286  -8.080  0.00  0.00     0.387 C 
HETATM   38  F   UNK N   1      28.853  18.192  -7.580  0.00  0.00    -0.171 F 
HETATM   39  F   UNK N   1      30.880  18.994  -8.150  0.00  0.00    -0.171 F 
HETATM   40  F   UNK N   1      29.053  19.570  -9.348  0.00  0.00    -0.171 F 
ENDBRANCH  36  37
ENDBRANCH  35  36
ENDBRANCH  34  35
BRANCH  34  41
HETATM   41  C   UNK N   1      32.194  20.161  -5.247  0.00  0.00     0.220 C 
HETATM   42  O   UNK N   1      33.040  20.031  -6.118  0.00  0.00    -0.273 OA
HETATM   43  N   UNK N   1      32.290  19.443  -4.112  0.00  0.00    -0.370 N 
HETATM   44  H   UNK N   1      31.897  19.347  -3.214  0.00  0.00     0.159 HD
HETATM   45  H   UNK N   1      33.007  18.775  -4.218  0.00  0.00     0.159 HD
ENDBRANCH  34  41
ENDBRANCH  27  34
ENDBRANCH   2  27
TORSDOF 11
ENDMDL
MODEL 9
REMARK VINA RESULT:      -6.8     14.597     16.469
REMARK  11 active torsions:
REMARK  status: ('A' for Active; 'I' for Inactive)
REMARK    1  A    between atoms: C_11  and  N_22 
REMARK    2  A    between atoms: C_14  and  C_15 
REMARK       I    between atoms: N_22  and  C_23 
REMARK    3  A    between atoms: C_25  and  C_23 
REMARK    4  A    between atoms: C_25  and  C_26 
REMARK    5  A    between atoms: C_25  and  C_32 
REMARK    6  A    between atoms: C_26  and  C_27 
REMARK    7  A    between atoms: C_27  and  C_28 
REMARK    8  A    between atoms: C_32  and  C_33 
REMARK    9  A    between atoms: C_32  and  C_39 
REMARK   10  A    between atoms: C_33  and  C_34 
REMARK   11  A    between atoms: C_34  and  C_35 
REMARK       I    between atoms: C_39  and  N_41 
ROOT
HETATM    1  N   UNK N   1      29.939  25.964  -6.304  0.00  0.00    -0.332 N 
HETATM    2  C   UNK N   1      29.119  26.914  -6.822  0.00  0.00     0.224 C 
HETATM    3  O   UNK N   1      29.522  27.616  -7.735  0.00  0.00    -0.273 OA
HETATM    4  H   UNK N   1      30.881  25.921  -6.588  0.00  0.00     0.165 HD
ENDROOT
BRANCH   1   5
HETATM    5  C   UNK N   1      29.438  25.021  -5.342  0.00  0.00     0.279 C 
HETATM    6  C   UNK N   1      30.165  24.709  -4.103  0.00  0.00     0.264 C 
HETATM    7  N   UNK N   1      30.732  23.511  -3.890  0.00  0.00    -0.323 N 
HETATM    8  O   UNK N   1      30.295  25.585  -3.259  0.00  0.00    -0.269 OA
HETATM    9  C   UNK N   1      30.703  22.327  -4.691  0.00  0.00     0.053 A 
HETATM   10  H   UNK N   1      31.246  23.436  -3.053  0.00  0.00     0.169 HD
HETATM   11  C   UNK N   1      29.742  22.035  -5.732  0.00  0.00     0.018 A 
HETATM   12  C   UNK N   1      31.690  21.359  -4.376  0.00  0.00    -0.034 A 
HETATM   13  C   UNK N   1      29.863  20.789  -6.375  0.00  0.00     0.016 A 
HETATM   14  C   UNK N   1      28.588  22.913  -6.205  0.00  0.00     0.053 C 
HETATM   15  C   UNK N   1      30.842  19.863  -6.052  0.00  0.00     0.002 A 
HETATM   16  C   UNK N   1      31.753  20.148  -5.055  0.00  0.00     0.009 A 
HETATM   17  N   UNK N   1      28.480  24.160  -5.922  0.00  0.00    -0.360 N 
ATOM     18  HN  UNK N   1      27.581  24.586  -6.145  1.00  0.00     0.162 HD
HETATM   19  C   UNK N   1      32.698  21.609  -3.304  0.00  0.00     0.050 C 
BRANCH  14  20
HETATM   20  C   UNK N   1      27.583  22.446  -7.226  0.00  0.00    -0.006 A 
HETATM   21  C   UNK N   1      28.042  22.232  -8.541  0.00  0.00     0.014 A 
HETATM   22  C   UNK N   1      27.215  21.701  -9.525  0.00  0.00     0.004 A 
HETATM   23  C   UNK N   1      25.898  21.377  -9.217  0.00  0.00     0.042 A 
HETATM   24  C   UNK N   1      25.415  21.589  -7.923  0.00  0.00     0.117 A 
HETATM   25  C   UNK N   1      26.253  22.111  -6.930  0.00  0.00     0.056 A 
HETATM   26  F   UNK N   1      24.133  21.274  -7.630  0.00  0.00    -0.206 F 
ENDBRANCH  14  20
ENDBRANCH   1   5
BRANCH   2  27
HETATM   27  C   UNK N   1      27.762  27.195  -6.187  0.00  0.00     0.091 C 
BRANCH  27  28
HETATM   28  C   UNK N   1      27.697  28.624  -5.647  0.00  0.00     0.023 C 
BRANCH  28  29
HETATM   29  C   UNK N   1      28.116  28.690  -4.183  0.00  0.00     0.118 C 
BRANCH  29  30
HETATM   30  C   UNK N   1      26.920  28.793  -3.246  0.00  0.00     0.387 C 
HETATM   31  F   UNK N   1      26.498  27.517  -2.932  0.00  0.00    -0.171 F 
HETATM   32  F   UNK N   1      25.874  29.472  -3.839  0.00  0.00    -0.171 F 
HETATM   33  F   UNK N   1      27.289  29.450  -2.088  0.00  0.00    -0.171 F 
ENDBRANCH  29  30
ENDBRANCH  28  29
ENDBRANCH  27  28
BRANCH  27  34
HETATM   34  C   UNK N   1      26.490  26.806  -6.967  0.00  0.00     0.091 C 
BRANCH  34  35
HETATM   35  C   UNK N   1      26.739  25.816  -8.095  0.00  0.00     0.023 C 
BRANCH  35  36
HETATM   36  C   UNK N   1      26.059  26.325  -9.351  0.00  0.00     0.118 C 
BRANCH  36  37
HETATM   37  C   UNK N   1      25.236  25.228 -10.002  0.00  0.00     0.387 C 
HETATM   38  F   UNK N   1      24.206  25.803 -10.719  0.00  0.00    -0.171 F 
HETATM   39  F   UNK N   1      24.708  24.394  -9.034  0.00  0.00    -0.171 F 
HETATM   40  F   UNK N   1      26.028  24.490 -10.866  0.00  0.00    -0.171 F 
ENDBRANCH  36  37
ENDBRANCH  35  36
ENDBRANCH  34  35
BRANCH  34  41
HETATM   41  C   UNK N   1      25.298  26.484  -6.110  0.00  0.00     0.220 C 
HETATM   42  O   UNK N   1      24.522  27.360  -5.760  0.00  0.00    -0.273 OA
HETATM   43  N   UNK N   1      25.131  25.226  -5.660  0.00  0.00    -0.370 N 
HETATM   44  H   UNK N   1      25.456  24.305  -5.780  0.00  0.00     0.159 HD
HETATM   45  H   UNK N   1      24.436  25.229  -4.961  0.00  0.00     0.159 HD
ENDBRANCH  34  41
ENDBRANCH  27  34
ENDBRANCH   2  27
TORSDOF 11
ENDMDL
