MODEL 1
REMARK VINA RESULT:      -7.3      0.000      0.000
REMARK  14 active torsions:
REMARK  status: ('A' for Active; 'I' for Inactive)
REMARK    1  A    between atoms: C_2  and  C_3 
REMARK    2  A    between atoms: C_3  and  C_4 
REMARK    3  A    between atoms: C_4  and  C_5 
REMARK    4  A    between atoms: C_5  and  C_6 
REMARK    5  A    between atoms: C_6  and  O_7 
REMARK    6  A    between atoms: O_7  and  C_8 
REMARK    7  A    between atoms: C_8  and  C_10 
REMARK    8  A    between atoms: C_14  and  C_18 
REMARK    9  A    between atoms: C_15  and  O_16 
REMARK   10  A    between atoms: C_21  and  N_24 
REMARK       I    between atoms: N_24  and  C_25 
REMARK   11  A    between atoms: C_25  and  C_27 
REMARK   12  A    between atoms: C_30  and  C_34 
REMARK   13  A    between atoms: C_35  and  C_37 
REMARK   14  A    between atoms: C_37  and  O_39 
ROOT
HETATM    1  C   UNK N   1      23.907  15.844   6.148  0.00  0.00     0.053 A 
HETATM    2  C   UNK N   1      24.310  14.497   6.192  0.00  0.00     0.083 A 
HETATM    3  S   UNK N   1      25.918  14.540   5.842  0.00  0.00    -0.063 SA
HETATM    4  C   UNK N   1      26.090  16.166   5.628  0.00  0.00     0.151 A 
HETATM    5  N   UNK N   1      24.887  16.744   5.809  0.00  0.00    -0.335 N 
ATOM      6  HN  UNK N   1      24.721  17.745   5.706  1.00  0.00     0.168 HD
ENDROOT
BRANCH   4   7
HETATM    7  N   UNK N   1      26.943  16.640   4.624  0.00  0.00    -0.303 N 
HETATM    8  C   UNK N   1      28.270  16.871   4.685  0.00  0.00     0.257 C 
HETATM    9  O   UNK N   1      28.838  17.190   3.660  0.00  0.00    -0.267 OA
HETATM   10  H   UNK N   1      26.516  16.831   3.757  0.00  0.00     0.171 HD
BRANCH   8  11
HETATM   11  C   UNK N   1      29.086  16.686   5.898  0.00  0.00     0.035 A 
HETATM   12  C   UNK N   1      30.034  15.668   5.847  0.00  0.00     0.042 A 
HETATM   13  C   UNK N   1      31.028  15.564   6.799  0.00  0.00     0.046 A 
HETATM   14  C   UNK N   1      31.142  16.545   7.797  0.00  0.00     0.008 A 
HETATM   15 Cl   UNK N   1      32.190  14.257   6.620  0.00  0.00    -0.083 Cl
HETATM   16  C   UNK N   1      30.165  17.563   7.888  0.00  0.00     0.046 A 
HETATM   17  C   UNK N   1      29.122  17.621   6.942  0.00  0.00     0.042 A 
HETATM   18 Cl   UNK N   1      30.287  18.820   9.112  0.00  0.00    -0.083 Cl
BRANCH  14  19
HETATM   19  C   UNK N   1      32.367  16.584   8.615  0.00  0.00     0.028 C 
HETATM   20  C   UNK N   1      33.525  17.181   8.327  0.00  0.00     0.012 C 
HETATM   21  C   UNK N   1      33.777  17.792   6.984  0.00  0.00     0.055 C 
BRANCH  20  22
HETATM   22  C   UNK N   1      34.549  17.251   9.394  0.00  0.00     0.171 C 
HETATM   23  O   UNK N   1      35.380  18.142   9.396  0.00  0.00    -0.646 OA
BRANCH  22  24
HETATM   24  O   UNK N   1      34.532  16.355  10.405  0.00  0.00    -0.773 OA
HETATM   25  H   UNK N   1      34.683  15.976  11.248  0.00  0.00     0.167 HD
ENDBRANCH  22  24
ENDBRANCH  20  22
ENDBRANCH  14  19
ENDBRANCH   8  11
ENDBRANCH   4   7
BRANCH   1  26
HETATM   26  C   UNK N   1      22.542  16.228   5.839  0.00  0.00     0.025 A 
HETATM   27  C   UNK N   1      21.632  16.185   6.897  0.00  0.00     0.016 A 
HETATM   28  C   UNK N   1      20.274  16.240   6.660  0.00  0.00     0.002 A 
HETATM   29  C   UNK N   1      19.815  16.339   5.359  0.00  0.00     0.012 A 
HETATM   30  C   UNK N   1      20.694  16.440   4.276  0.00  0.00     0.004 A 
HETATM   31  C   UNK N   1      22.104  16.373   4.507  0.00  0.00     0.089 A 
BRANCH  30  32
HETATM   32  C   UNK N   1      20.016  16.648   2.944  0.00  0.00     0.153 C 
HETATM   33  C   UNK N   1      20.072  15.447   2.013  0.00  0.00     0.045 C 
BRANCH  32  34
HETATM   34  O   UNK N   1      20.250  17.875   2.265  0.00  0.00    -0.382 OA
BRANCH  34  35
HETATM   35  C   UNK N   1      19.618  18.978   2.897  0.00  0.00     0.168 C 
BRANCH  35  36
HETATM   36  C   UNK N   1      20.509  20.200   3.221  0.00  0.00     0.026 C 
BRANCH  36  37
HETATM   37  C   UNK N   1      21.833  20.326   2.470  0.00  0.00     0.002 C 
BRANCH  37  38
HETATM   38  C   UNK N   1      22.975  19.830   3.322  0.00  0.00    -0.000 C 
BRANCH  38  39
HETATM   39  C   UNK N   1      24.251  20.531   2.918  0.00  0.00    -0.005 C 
HETATM   40  C   UNK N   1      25.422  19.832   3.567  0.00  0.00     0.005 C 
ENDBRANCH  38  39
ENDBRANCH  37  38
ENDBRANCH  36  37
ENDBRANCH  35  36
ENDBRANCH  34  35
ENDBRANCH  32  34
ENDBRANCH  30  32
BRANCH  31  41
HETATM   41  O   UNK N   1      23.060  16.442   3.535  0.00  0.00    -0.354 OA
HETATM   42  C   UNK N   1      23.527  15.413   2.755  0.00  0.00     0.210 C 
ENDBRANCH  31  41
ENDBRANCH   1  26
TORSDOF 14
ENDMDL
MODEL 2
REMARK VINA RESULT:      -7.3      2.596      4.880
REMARK  14 active torsions:
REMARK  status: ('A' for Active; 'I' for Inactive)
REMARK    1  A    between atoms: C_2  and  C_3 
REMARK    2  A    between atoms: C_3  and  C_4 
REMARK    3  A    between atoms: C_4  and  C_5 
REMARK    4  A    between atoms: C_5  and  C_6 
REMARK    5  A    between atoms: C_6  and  O_7 
REMARK    6  A    between atoms: O_7  and  C_8 
REMARK    7  A    between atoms: C_8  and  C_10 
REMARK    8  A    between atoms: C_14  and  C_18 
REMARK    9  A    between atoms: C_15  and  O_16 
REMARK   10  A    between atoms: C_21  and  N_24 
REMARK       I    between atoms: N_24  and  C_25 
REMARK   11  A    between atoms: C_25  and  C_27 
REMARK   12  A    between atoms: C_30  and  C_34 
REMARK   13  A    between atoms: C_35  and  C_37 
REMARK   14  A    between atoms: C_37  and  O_39 
ROOT
HETATM    1  C   UNK N   1      24.822  15.242   5.150  0.00  0.00     0.053 A 
HETATM    2  C   UNK N   1      24.975  15.297   3.752  0.00  0.00     0.083 A 
HETATM    3  S   UNK N   1      25.841  16.673   3.490  0.00  0.00    -0.063 SA
HETATM    4  C   UNK N   1      25.996  17.179   5.051  0.00  0.00     0.151 A 
HETATM    5  N   UNK N   1      25.362  16.295   5.845  0.00  0.00    -0.335 N 
ATOM      6  HN  UNK N   1      25.291  16.398   6.857  1.00  0.00     0.168 HD
ENDROOT
BRANCH   4   7
HETATM    7  N   UNK N   1      25.924  18.547   5.340  0.00  0.00    -0.303 N 
HETATM    8  C   UNK N   1      26.859  19.341   5.901  0.00  0.00     0.257 C 
HETATM    9  O   UNK N   1      26.625  20.530   5.971  0.00  0.00    -0.267 OA
HETATM   10  H   UNK N   1      25.077  18.989   5.100  0.00  0.00     0.171 HD
BRANCH   8  11
HETATM   11  C   UNK N   1      28.174  18.867   6.365  0.00  0.00     0.035 A 
HETATM   12  C   UNK N   1      28.415  18.973   7.732  0.00  0.00     0.042 A 
HETATM   13  C   UNK N   1      29.482  18.330   8.326  0.00  0.00     0.046 A 
HETATM   14  C   UNK N   1      30.301  17.487   7.559  0.00  0.00     0.008 A 
HETATM   15 Cl   UNK N   1      29.674  18.510  10.064  0.00  0.00    -0.083 Cl
HETATM   16  C   UNK N   1      30.098  17.399   6.163  0.00  0.00     0.046 A 
HETATM   17  C   UNK N   1      29.038  18.107   5.562  0.00  0.00     0.042 A 
HETATM   18 Cl   UNK N   1      31.090  16.336   5.174  0.00  0.00    -0.083 Cl
BRANCH  14  19
HETATM   19  C   UNK N   1      31.241  16.589   8.253  0.00  0.00     0.028 C 
HETATM   20  C   UNK N   1      32.534  16.798   8.512  0.00  0.00     0.012 C 
HETATM   21  C   UNK N   1      33.261  17.982   7.958  0.00  0.00     0.055 C 
BRANCH  20  22
HETATM   22  C   UNK N   1      33.223  15.833   9.398  0.00  0.00     0.171 C 
HETATM   23  O   UNK N   1      34.440  15.806   9.454  0.00  0.00    -0.646 OA
BRANCH  22  24
HETATM   24  O   UNK N   1      32.504  15.011  10.192  0.00  0.00    -0.773 OA
HETATM   25  H   UNK N   1      31.859  14.723  10.808  0.00  0.00     0.167 HD
ENDBRANCH  22  24
ENDBRANCH  20  22
ENDBRANCH  14  19
ENDBRANCH   8  11
ENDBRANCH   4   7
BRANCH   1  26
HETATM   26  C   UNK N   1      23.704  14.560   5.774  0.00  0.00     0.025 A 
HETATM   27  C   UNK N   1      23.726  13.165   5.729  0.00  0.00     0.016 A 
HETATM   28  C   UNK N   1      22.593  12.433   6.020  0.00  0.00     0.002 A 
HETATM   29  C   UNK N   1      21.427  13.094   6.361  0.00  0.00     0.012 A 
HETATM   30  C   UNK N   1      21.377  14.487   6.470  0.00  0.00     0.004 A 
HETATM   31  C   UNK N   1      22.542  15.258   6.160  0.00  0.00     0.089 A 
BRANCH  30  32
HETATM   32  C   UNK N   1      20.053  15.024   6.954  0.00  0.00     0.153 C 
HETATM   33  C   UNK N   1      19.211  15.690   5.878  0.00  0.00     0.045 C 
BRANCH  32  34
HETATM   34  O   UNK N   1      20.038  15.743   8.182  0.00  0.00    -0.382 OA
BRANCH  34  35
HETATM   35  C   UNK N   1      19.886  14.895   9.310  0.00  0.00     0.168 C 
BRANCH  35  36
HETATM   36  C   UNK N   1      21.154  14.165   9.810  0.00  0.00     0.026 C 
BRANCH  36  37
HETATM   37  C   UNK N   1      20.963  12.819  10.507  0.00  0.00     0.002 C 
BRANCH  37  38
HETATM   38  C   UNK N   1      22.297  12.231  10.898  0.00  0.00    -0.000 C 
BRANCH  38  39
HETATM   39  C   UNK N   1      23.074  11.867   9.655  0.00  0.00    -0.005 C 
HETATM   40  C   UNK N   1      24.446  12.492   9.732  0.00  0.00     0.005 C 
ENDBRANCH  38  39
ENDBRANCH  37  38
ENDBRANCH  36  37
ENDBRANCH  35  36
ENDBRANCH  34  35
ENDBRANCH  32  34
ENDBRANCH  30  32
BRANCH  31  41
HETATM   41  O   UNK N   1      22.614  16.620   6.212  0.00  0.00    -0.354 OA
HETATM   42  C   UNK N   1      22.160  17.513   5.272  0.00  0.00     0.210 C 
ENDBRANCH  31  41
ENDBRANCH   1  26
TORSDOF 14
ENDMDL
MODEL 3
REMARK VINA RESULT:      -7.1      2.209      3.888
REMARK  14 active torsions:
REMARK  status: ('A' for Active; 'I' for Inactive)
REMARK    1  A    between atoms: C_2  and  C_3 
REMARK    2  A    between atoms: C_3  and  C_4 
REMARK    3  A    between atoms: C_4  and  C_5 
REMARK    4  A    between atoms: C_5  and  C_6 
REMARK    5  A    between atoms: C_6  and  O_7 
REMARK    6  A    between atoms: O_7  and  C_8 
REMARK    7  A    between atoms: C_8  and  C_10 
REMARK    8  A    between atoms: C_14  and  C_18 
REMARK    9  A    between atoms: C_15  and  O_16 
REMARK   10  A    between atoms: C_21  and  N_24 
REMARK       I    between atoms: N_24  and  C_25 
REMARK   11  A    between atoms: C_25  and  C_27 
REMARK   12  A    between atoms: C_30  and  C_34 
REMARK   13  A    between atoms: C_35  and  C_37 
REMARK   14  A    between atoms: C_37  and  O_39 
ROOT
HETATM    1  C   UNK N   1      24.343  14.782   6.401  0.00  0.00     0.053 A 
HETATM    2  C   UNK N   1      24.436  14.021   5.221  0.00  0.00     0.083 A 
HETATM    3  S   UNK N   1      25.601  14.780   4.338  0.00  0.00    -0.063 SA
HETATM    4  C   UNK N   1      25.952  16.010   5.378  0.00  0.00     0.151 A 
HETATM    5  N   UNK N   1      25.159  15.885   6.460  0.00  0.00    -0.335 N 
ATOM      6  HN  UNK N   1      25.163  16.540   7.241  1.00  0.00     0.168 HD
ENDROOT
BRANCH   4   7
HETATM    7  N   UNK N   1      26.233  17.282   4.868  0.00  0.00    -0.303 N 
HETATM    8  C   UNK N   1      27.309  18.063   5.095  0.00  0.00     0.257 C 
HETATM    9  O   UNK N   1      27.401  19.098   4.467  0.00  0.00    -0.267 OA
HETATM   10  H   UNK N   1      25.554  17.658   4.262  0.00  0.00     0.171 HD
BRANCH   8  11
HETATM   11  C   UNK N   1      28.415  17.702   5.999  0.00  0.00     0.035 A 
HETATM   12  C   UNK N   1      29.596  17.294   5.385  0.00  0.00     0.042 A 
HETATM   13  C   UNK N   1      30.775  17.187   6.096  0.00  0.00     0.046 A 
HETATM   14  C   UNK N   1      30.811  17.569   7.446  0.00  0.00     0.008 A 
HETATM   15 Cl   UNK N   1      32.213  16.692   5.214  0.00  0.00    -0.083 Cl
HETATM   16  C   UNK N   1      29.614  17.946   8.096  0.00  0.00     0.046 A 
HETATM   17  C   UNK N   1      28.407  17.996   7.370  0.00  0.00     0.042 A 
HETATM   18 Cl   UNK N   1      29.625  18.452   9.780  0.00  0.00    -0.083 Cl
BRANCH  14  19
HETATM   19  C   UNK N   1      32.121  17.729   8.102  0.00  0.00     0.028 C 
HETATM   20  C   UNK N   1      32.849  16.794   8.716  0.00  0.00     0.012 C 
HETATM   21  C   UNK N   1      32.314  15.417   8.955  0.00  0.00     0.055 C 
BRANCH  20  22
HETATM   22  C   UNK N   1      34.225  17.152   9.127  0.00  0.00     0.171 C 
HETATM   23  O   UNK N   1      34.888  16.385   9.804  0.00  0.00    -0.646 OA
BRANCH  22  24
HETATM   24  O   UNK N   1      34.775  18.312   8.708  0.00  0.00    -0.773 OA
HETATM   25  H   UNK N   1      35.268  18.916   8.187  0.00  0.00     0.167 HD
ENDBRANCH  22  24
ENDBRANCH  20  22
ENDBRANCH  14  19
ENDBRANCH   8  11
ENDBRANCH   4   7
BRANCH   1  26
HETATM   26  C   UNK N   1      23.122  14.838   7.184  0.00  0.00     0.025 A 
HETATM   27  C   UNK N   1      22.940  13.818   8.120  0.00  0.00     0.016 A 
HETATM   28  C   UNK N   1      21.705  13.606   8.699  0.00  0.00     0.002 A 
HETATM   29  C   UNK N   1      20.641  14.416   8.344  0.00  0.00     0.012 A 
HETATM   30  C   UNK N   1      20.795  15.483   7.452  0.00  0.00     0.004 A 
HETATM   31  C   UNK N   1      22.067  15.706   6.837  0.00  0.00     0.089 A 
BRANCH  30  32
HETATM   32  C   UNK N   1      19.553  16.320   7.267  0.00  0.00     0.153 C 
HETATM   33  C   UNK N   1      19.029  16.961   8.542  0.00  0.00     0.045 C 
BRANCH  32  34
HETATM   34  O   UNK N   1      18.513  15.792   6.453  0.00  0.00    -0.382 OA
BRANCH  34  35
HETATM   35  C   UNK N   1      18.855  15.767   5.076  0.00  0.00     0.168 C 
BRANCH  35  36
HETATM   36  C   UNK N   1      19.123  14.380   4.449  0.00  0.00     0.026 C 
BRANCH  36  37
HETATM   37  C   UNK N   1      20.520  14.118   3.889  0.00  0.00     0.002 C 
BRANCH  37  38
HETATM   38  C   UNK N   1      21.040  12.783   4.363  0.00  0.00    -0.000 C 
BRANCH  38  39
HETATM   39  C   UNK N   1      20.145  12.250   5.457  0.00  0.00    -0.005 C 
HETATM   40  C   UNK N   1      19.728  10.841   5.108  0.00  0.00     0.005 C 
ENDBRANCH  38  39
ENDBRANCH  37  38
ENDBRANCH  36  37
ENDBRANCH  35  36
ENDBRANCH  34  35
ENDBRANCH  32  34
ENDBRANCH  30  32
BRANCH  31  41
HETATM   41  O   UNK N   1      22.338  16.698   5.940  0.00  0.00    -0.354 OA
HETATM   42  C   UNK N   1      22.028  18.032   6.058  0.00  0.00     0.210 C 
ENDBRANCH  31  41
ENDBRANCH   1  26
TORSDOF 14
ENDMDL
MODEL 4
REMARK VINA RESULT:      -7.1      1.721      2.871
REMARK  14 active torsions:
REMARK  status: ('A' for Active; 'I' for Inactive)
REMARK    1  A    between atoms: C_2  and  C_3 
REMARK    2  A    between atoms: C_3  and  C_4 
REMARK    3  A    between atoms: C_4  and  C_5 
REMARK    4  A    between atoms: C_5  and  C_6 
REMARK    5  A    between atoms: C_6  and  O_7 
REMARK    6  A    between atoms: O_7  and  C_8 
REMARK    7  A    between atoms: C_8  and  C_10 
REMARK    8  A    between atoms: C_14  and  C_18 
REMARK    9  A    between atoms: C_15  and  O_16 
REMARK   10  A    between atoms: C_21  and  N_24 
REMARK       I    between atoms: N_24  and  C_25 
REMARK   11  A    between atoms: C_25  and  C_27 
REMARK   12  A    between atoms: C_30  and  C_34 
REMARK   13  A    between atoms: C_35  and  C_37 
REMARK   14  A    between atoms: C_37  and  O_39 
ROOT
HETATM    1  C   UNK N   1      25.259  14.014   6.873  0.00  0.00     0.053 A 
HETATM    2  C   UNK N   1      25.537  12.933   6.016  0.00  0.00     0.083 A 
HETATM    3  S   UNK N   1      26.733  13.491   5.031  0.00  0.00    -0.063 SA
HETATM    4  C   UNK N   1      26.876  15.017   5.640  0.00  0.00     0.151 A 
HETATM    5  N   UNK N   1      25.981  15.158   6.636  0.00  0.00    -0.335 N 
ATOM      6  HN  UNK N   1      25.851  16.024   7.159  1.00  0.00     0.168 HD
ENDROOT
BRANCH   4   7
HETATM    7  N   UNK N   1      27.118  16.085   4.768  0.00  0.00    -0.303 N 
HETATM    8  C   UNK N   1      28.159  16.941   4.751  0.00  0.00     0.257 C 
HETATM    9  O   UNK N   1      28.222  17.740   3.839  0.00  0.00    -0.267 OA
HETATM   10  H   UNK N   1      26.435  16.230   4.073  0.00  0.00     0.171 HD
BRANCH   8  11
HETATM   11  C   UNK N   1      29.263  16.917   5.727  0.00  0.00     0.035 A 
HETATM   12  C   UNK N   1      30.541  16.760   5.199  0.00  0.00     0.042 A 
HETATM   13  C   UNK N   1      31.668  16.986   5.964  0.00  0.00     0.046 A 
HETATM   14  C   UNK N   1      31.533  17.459   7.279  0.00  0.00     0.008 A 
HETATM   15 Cl   UNK N   1      33.232  16.786   5.186  0.00  0.00    -0.083 Cl
HETATM   16  C   UNK N   1      30.244  17.585   7.845  0.00  0.00     0.046 A 
HETATM   17  C   UNK N   1      29.104  17.296   7.068  0.00  0.00     0.042 A 
HETATM   18 Cl   UNK N   1      30.036  18.196   9.481  0.00  0.00    -0.083 Cl
BRANCH  14  19
HETATM   19  C   UNK N   1      32.728  17.971   7.974  0.00  0.00     0.028 C 
HETATM   20  C   UNK N   1      33.614  17.281   8.695  0.00  0.00     0.012 C 
HETATM   21  C   UNK N   1      33.398  15.838   9.028  0.00  0.00     0.055 C 
BRANCH  20  22
HETATM   22  C   UNK N   1      34.841  17.983   9.132  0.00  0.00     0.171 C 
HETATM   23  O   UNK N   1      35.505  17.550  10.058  0.00  0.00    -0.646 OA
BRANCH  22  24
HETATM   24  O   UNK N   1      35.264  19.082   8.469  0.00  0.00    -0.773 OA
HETATM   25  H   UNK N   1      35.497  19.973   8.300  0.00  0.00     0.167 HD
ENDBRANCH  22  24
ENDBRANCH  20  22
ENDBRANCH  14  19
ENDBRANCH   8  11
ENDBRANCH   4   7
BRANCH   1  26
HETATM   26  C   UNK N   1      23.959  14.186   7.495  0.00  0.00     0.025 A 
HETATM   27  C   UNK N   1      23.651  13.310   8.538  0.00  0.00     0.016 A 
HETATM   28  C   UNK N   1      22.354  13.189   8.994  0.00  0.00     0.002 A 
HETATM   29  C   UNK N   1      21.355  13.946   8.410  0.00  0.00     0.012 A 
HETATM   30  C   UNK N   1      21.631  14.874   7.401  0.00  0.00     0.004 A 
HETATM   31  C   UNK N   1      22.969  15.002   6.912  0.00  0.00     0.089 A 
BRANCH  30  32
HETATM   32  C   UNK N   1      20.436  15.684   6.959  0.00  0.00     0.153 C 
HETATM   33  C   UNK N   1      19.997  16.752   7.948  0.00  0.00     0.045 C 
BRANCH  32  34
HETATM   34  O   UNK N   1      19.338  14.985   6.386  0.00  0.00    -0.382 OA
BRANCH  34  35
HETATM   35  C   UNK N   1      19.292  15.102   4.973  0.00  0.00     0.168 C 
BRANCH  35  36
HETATM   36  C   UNK N   1      19.681  16.473   4.373  0.00  0.00     0.026 C 
BRANCH  36  37
HETATM   37  C   UNK N   1      20.008  16.522   2.882  0.00  0.00     0.002 C 
BRANCH  37  38
HETATM   38  C   UNK N   1      20.569  17.871   2.506  0.00  0.00    -0.000 C 
BRANCH  38  39
HETATM   39  C   UNK N   1      20.874  18.660   3.758  0.00  0.00    -0.005 C 
HETATM   40  C   UNK N   1      22.290  19.178   3.679  0.00  0.00     0.005 C 
ENDBRANCH  38  39
ENDBRANCH  37  38
ENDBRANCH  36  37
ENDBRANCH  35  36
ENDBRANCH  34  35
ENDBRANCH  32  34
ENDBRANCH  30  32
BRANCH  31  41
HETATM   41  O   UNK N   1      23.361  15.856   5.922  0.00  0.00    -0.354 OA
HETATM   42  C   UNK N   1      23.202  15.688   4.568  0.00  0.00     0.210 C 
ENDBRANCH  31  41
ENDBRANCH   1  26
TORSDOF 14
ENDMDL
MODEL 5
REMARK VINA RESULT:      -7.0      3.404      9.725
REMARK  14 active torsions:
REMARK  status: ('A' for Active; 'I' for Inactive)
REMARK    1  A    between atoms: C_2  and  C_3 
REMARK    2  A    between atoms: C_3  and  C_4 
REMARK    3  A    between atoms: C_4  and  C_5 
REMARK    4  A    between atoms: C_5  and  C_6 
REMARK    5  A    between atoms: C_6  and  O_7 
REMARK    6  A    between atoms: O_7  and  C_8 
REMARK    7  A    between atoms: C_8  and  C_10 
REMARK    8  A    between atoms: C_14  and  C_18 
REMARK    9  A    between atoms: C_15  and  O_16 
REMARK   10  A    between atoms: C_21  and  N_24 
REMARK       I    between atoms: N_24  and  C_25 
REMARK   11  A    between atoms: C_25  and  C_27 
REMARK   12  A    between atoms: C_30  and  C_34 
REMARK   13  A    between atoms: C_35  and  C_37 
REMARK   14  A    between atoms: C_37  and  O_39 
ROOT
HETATM    1  C   UNK N   1      26.494  16.057   3.272  0.00  0.00     0.053 A 
HETATM    2  C   UNK N   1      27.426  15.282   2.557  0.00  0.00     0.083 A 
HETATM    3  S   UNK N   1      26.614  13.893   2.202  0.00  0.00    -0.063 SA
HETATM    4  C   UNK N   1      25.176  14.245   2.928  0.00  0.00     0.151 A 
HETATM    5  N   UNK N   1      25.275  15.464   3.492  0.00  0.00    -0.335 N 
ATOM      6  HN  UNK N   1      24.525  15.900   4.027  1.00  0.00     0.168 HD
ENDROOT
BRANCH   4   7
HETATM    7  N   UNK N   1      24.474  13.230   3.589  0.00  0.00    -0.303 N 
HETATM    8  C   UNK N   1      23.192  13.224   4.005  0.00  0.00     0.257 C 
HETATM    9  O   UNK N   1      22.752  12.194   4.473  0.00  0.00    -0.267 OA
HETATM   10  H   UNK N   1      24.987  12.410   3.776  0.00  0.00     0.171 HD
BRANCH   8  11
HETATM   11  C   UNK N   1      22.271  14.365   3.857  0.00  0.00     0.035 A 
HETATM   12  C   UNK N   1      22.182  15.224   4.949  0.00  0.00     0.042 A 
HETATM   13  C   UNK N   1      21.571  16.458   4.845  0.00  0.00     0.046 A 
HETATM   14  C   UNK N   1      21.098  16.897   3.599  0.00  0.00     0.008 A 
HETATM   15 Cl   UNK N   1      21.542  17.473   6.279  0.00  0.00    -0.083 Cl
HETATM   16  C   UNK N   1      21.143  16.023   2.488  0.00  0.00     0.046 A 
HETATM   17  C   UNK N   1      21.718  14.744   2.625  0.00  0.00     0.042 A 
HETATM   18 Cl   UNK N   1      20.578  16.547   0.907  0.00  0.00    -0.083 Cl
BRANCH  14  19
HETATM   19  C   UNK N   1      20.723  18.314   3.443  0.00  0.00     0.028 C 
HETATM   20  C   UNK N   1      21.533  19.363   3.287  0.00  0.00     0.012 C 
HETATM   21  C   UNK N   1      23.018  19.230   3.413  0.00  0.00     0.055 C 
BRANCH  20  22
HETATM   22  C   UNK N   1      20.916  20.666   2.952  0.00  0.00     0.171 C 
HETATM   23  O   UNK N   1      21.123  21.188   1.871  0.00  0.00    -0.646 OA
BRANCH  22  24
HETATM   24  O   UNK N   1      20.072  21.258   3.825  0.00  0.00    -0.773 OA
HETATM   25  H   UNK N   1      19.612  21.439   4.621  0.00  0.00     0.167 HD
ENDBRANCH  22  24
ENDBRANCH  20  22
ENDBRANCH  14  19
ENDBRANCH   8  11
ENDBRANCH   4   7
BRANCH   1  26
HETATM   26  C   UNK N   1      26.909  17.061   4.235  0.00  0.00     0.025 A 
HETATM   27  C   UNK N   1      27.078  18.357   3.744  0.00  0.00     0.016 A 
HETATM   28  C   UNK N   1      27.744  19.309   4.488  0.00  0.00     0.002 A 
HETATM   29  C   UNK N   1      28.245  18.971   5.732  0.00  0.00     0.012 A 
HETATM   30  C   UNK N   1      28.048  17.700   6.283  0.00  0.00     0.004 A 
HETATM   31  C   UNK N   1      27.370  16.701   5.517  0.00  0.00     0.089 A 
BRANCH  30  32
HETATM   32  C   UNK N   1      28.572  17.546   7.690  0.00  0.00     0.153 C 
HETATM   33  C   UNK N   1      28.363  18.763   8.577  0.00  0.00     0.045 C 
BRANCH  32  34
HETATM   34  O   UNK N   1      29.857  16.962   7.859  0.00  0.00    -0.382 OA
BRANCH  34  35
HETATM   35  C   UNK N   1      30.766  17.822   8.527  0.00  0.00     0.168 C 
BRANCH  35  36
HETATM   36  C   UNK N   1      32.272  17.576   8.279  0.00  0.00     0.026 C 
BRANCH  36  37
HETATM   37  C   UNK N   1      32.659  16.772   7.039  0.00  0.00     0.002 C 
BRANCH  37  38
HETATM   38  C   UNK N   1      33.393  17.643   6.049  0.00  0.00    -0.000 C 
BRANCH  38  39
HETATM   39  C   UNK N   1      32.929  17.319   4.648  0.00  0.00    -0.005 C 
HETATM   40  C   UNK N   1      31.426  17.451   4.585  0.00  0.00     0.005 C 
ENDBRANCH  38  39
ENDBRANCH  37  38
ENDBRANCH  36  37
ENDBRANCH  35  36
ENDBRANCH  34  35
ENDBRANCH  32  34
ENDBRANCH  30  32
BRANCH  31  41
HETATM   41  O   UNK N   1      27.132  15.423   5.935  0.00  0.00    -0.354 OA
HETATM   42  C   UNK N   1      26.130  14.995   6.771  0.00  0.00     0.210 C 
ENDBRANCH  31  41
ENDBRANCH   1  26
TORSDOF 14
ENDMDL
MODEL 6
REMARK VINA RESULT:      -7.0      7.995     12.913
REMARK  14 active torsions:
REMARK  status: ('A' for Active; 'I' for Inactive)
REMARK    1  A    between atoms: C_2  and  C_3 
REMARK    2  A    between atoms: C_3  and  C_4 
REMARK    3  A    between atoms: C_4  and  C_5 
REMARK    4  A    between atoms: C_5  and  C_6 
REMARK    5  A    between atoms: C_6  and  O_7 
REMARK    6  A    between atoms: O_7  and  C_8 
REMARK    7  A    between atoms: C_8  and  C_10 
REMARK    8  A    between atoms: C_14  and  C_18 
REMARK    9  A    between atoms: C_15  and  O_16 
REMARK   10  A    between atoms: C_21  and  N_24 
REMARK       I    between atoms: N_24  and  C_25 
REMARK   11  A    between atoms: C_25  and  C_27 
REMARK   12  A    between atoms: C_30  and  C_34 
REMARK   13  A    between atoms: C_35  and  C_37 
REMARK   14  A    between atoms: C_37  and  O_39 
ROOT
HETATM    1  C   UNK N   1      35.196  13.003  10.852  0.00  0.00     0.053 A 
HETATM    2  C   UNK N   1      36.316  12.215  10.528  0.00  0.00     0.083 A 
HETATM    3  S   UNK N   1      37.237  12.235  11.893  0.00  0.00    -0.063 SA
HETATM    4  C   UNK N   1      36.285  13.201  12.831  0.00  0.00     0.151 A 
HETATM    5  N   UNK N   1      35.207  13.560  12.107  0.00  0.00    -0.335 N 
ATOM      6  HN  UNK N   1      34.477  14.180  12.454  1.00  0.00     0.168 HD
ENDROOT
BRANCH   4   7
HETATM    7  N   UNK N   1      36.884  14.129  13.690  0.00  0.00    -0.303 N 
HETATM    8  C   UNK N   1      36.797  14.213  15.033  0.00  0.00     0.257 C 
HETATM    9  O   UNK N   1      37.482  15.042  15.595  0.00  0.00    -0.267 OA
HETATM   10  H   UNK N   1      37.444  14.813  13.256  0.00  0.00     0.171 HD
BRANCH   8  11
HETATM   11  C   UNK N   1      35.981  13.311  15.866  0.00  0.00     0.035 A 
HETATM   12  C   UNK N   1      35.779  12.030  15.361  0.00  0.00     0.042 A 
HETATM   13  C   UNK N   1      35.269  11.019  16.150  0.00  0.00     0.046 A 
HETATM   14  C   UNK N   1      35.018  11.257  17.510  0.00  0.00     0.008 A 
HETATM   15 Cl   UNK N   1      35.084   9.431  15.418  0.00  0.00    -0.083 Cl
HETATM   16  C   UNK N   1      35.177  12.562  18.031  0.00  0.00     0.046 A 
HETATM   17  C   UNK N   1      35.645  13.597  17.197  0.00  0.00     0.042 A 
HETATM   18 Cl   UNK N   1      34.893  12.892  19.735  0.00  0.00    -0.083 Cl
BRANCH  14  19
HETATM   19  C   UNK N   1      34.758  10.107  18.395  0.00  0.00     0.028 C 
HETATM   20  C   UNK N   1      35.645   9.395  19.094  0.00  0.00     0.012 C 
HETATM   21  C   UNK N   1      37.118   9.604  18.932  0.00  0.00     0.055 C 
BRANCH  20  22
HETATM   22  C   UNK N   1      35.123   8.409  20.067  0.00  0.00     0.171 C 
HETATM   23  O   UNK N   1      35.572   8.361  21.199  0.00  0.00    -0.646 OA
BRANCH  22  24
HETATM   24  O   UNK N   1      34.105   7.593  19.721  0.00  0.00    -0.773 OA
HETATM   25  H   UNK N   1      33.304   7.298  19.333  0.00  0.00     0.167 HD
ENDBRANCH  22  24
ENDBRANCH  20  22
ENDBRANCH  14  19
ENDBRANCH   8  11
ENDBRANCH   4   7
BRANCH   1  26
HETATM   26  C   UNK N   1      34.435  13.709   9.837  0.00  0.00     0.025 A 
HETATM   27  C   UNK N   1      33.466  12.966   9.162  0.00  0.00     0.016 A 
HETATM   28  C   UNK N   1      32.899  13.442   7.997  0.00  0.00     0.002 A 
HETATM   29  C   UNK N   1      33.299  14.669   7.500  0.00  0.00     0.012 A 
HETATM   30  C   UNK N   1      34.226  15.469   8.175  0.00  0.00     0.004 A 
HETATM   31  C   UNK N   1      34.829  14.982   9.378  0.00  0.00     0.089 A 
BRANCH  30  32
HETATM   32  C   UNK N   1      34.461  16.818   7.541  0.00  0.00     0.153 C 
HETATM   33  C   UNK N   1      33.590  17.935   8.093  0.00  0.00     0.045 C 
BRANCH  32  34
HETATM   34  O   UNK N   1      34.585  16.872   6.125  0.00  0.00    -0.382 OA
BRANCH  34  35
HETATM   35  C   UNK N   1      33.591  17.684   5.519  0.00  0.00     0.168 C 
BRANCH  35  36
HETATM   36  C   UNK N   1      32.708  17.018   4.439  0.00  0.00     0.026 C 
BRANCH  36  37
HETATM   37  C   UNK N   1      31.202  17.264   4.511  0.00  0.00     0.002 C 
BRANCH  37  38
HETATM   38  C   UNK N   1      30.678  16.946   5.891  0.00  0.00    -0.000 C 
BRANCH  38  39
HETATM   39  C   UNK N   1      30.113  15.545   5.908  0.00  0.00    -0.005 C 
HETATM   40  C   UNK N   1      28.747  15.557   5.265  0.00  0.00     0.005 C 
ENDBRANCH  38  39
ENDBRANCH  37  38
ENDBRANCH  36  37
ENDBRANCH  35  36
ENDBRANCH  34  35
ENDBRANCH  32  34
ENDBRANCH  30  32
BRANCH  31  41
HETATM   41  O   UNK N   1      35.756  15.658  10.116  0.00  0.00    -0.354 OA
HETATM   42  C   UNK N   1      35.529  16.698  10.985  0.00  0.00     0.210 C 
ENDBRANCH  31  41
ENDBRANCH   1  26
TORSDOF 14
ENDMDL
MODEL 7
REMARK VINA RESULT:      -6.9      3.701      8.638
REMARK  14 active torsions:
REMARK  status: ('A' for Active; 'I' for Inactive)
REMARK    1  A    between atoms: C_2  and  C_3 
REMARK    2  A    between atoms: C_3  and  C_4 
REMARK    3  A    between atoms: C_4  and  C_5 
REMARK    4  A    between atoms: C_5  and  C_6 
REMARK    5  A    between atoms: C_6  and  O_7 
REMARK    6  A    between atoms: O_7  and  C_8 
REMARK    7  A    between atoms: C_8  and  C_10 
REMARK    8  A    between atoms: C_14  and  C_18 
REMARK    9  A    between atoms: C_15  and  O_16 
REMARK   10  A    between atoms: C_21  and  N_24 
REMARK       I    between atoms: N_24  and  C_25 
REMARK   11  A    between atoms: C_25  and  C_27 
REMARK   12  A    between atoms: C_30  and  C_34 
REMARK   13  A    between atoms: C_35  and  C_37 
REMARK   14  A    between atoms: C_37  and  O_39 
ROOT
HETATM    1  C   UNK N   1      26.509  13.586   3.381  0.00  0.00     0.053 A 
HETATM    2  C   UNK N   1      26.258  12.202   3.373  0.00  0.00     0.083 A 
HETATM    3  S   UNK N   1      25.335  11.963   2.029  0.00  0.00    -0.063 SA
HETATM    4  C   UNK N   1      25.244  13.522   1.501  0.00  0.00     0.151 A 
HETATM    5  N   UNK N   1      25.923  14.301   2.365  0.00  0.00    -0.335 N 
ATOM      6  HN  UNK N   1      25.995  15.314   2.275  1.00  0.00     0.168 HD
ENDROOT
BRANCH   4   7
HETATM    7  N   UNK N   1      24.049  13.989   0.940  0.00  0.00    -0.303 N 
HETATM    8  C   UNK N   1      22.971  14.507   1.562  0.00  0.00     0.257 C 
HETATM    9  O   UNK N   1      22.074  14.945   0.872  0.00  0.00    -0.267 OA
HETATM   10  H   UNK N   1      23.988  13.930  -0.041  0.00  0.00     0.171 HD
BRANCH   8  11
HETATM   11  C   UNK N   1      22.849  14.645   3.024  0.00  0.00     0.035 A 
HETATM   12  C   UNK N   1      22.954  15.938   3.527  0.00  0.00     0.042 A 
HETATM   13  C   UNK N   1      22.597  16.236   4.827  0.00  0.00     0.046 A 
HETATM   14  C   UNK N   1      22.042  15.237   5.642  0.00  0.00     0.008 A 
HETATM   15 Cl   UNK N   1      22.742  17.909   5.347  0.00  0.00    -0.083 Cl
HETATM   16  C   UNK N   1      21.965  13.909   5.163  0.00  0.00     0.046 A 
HETATM   17  C   UNK N   1      22.388  13.611   3.852  0.00  0.00     0.042 A 
HETATM   18 Cl   UNK N   1      21.255  12.636   6.148  0.00  0.00    -0.083 Cl
BRANCH  14  19
HETATM   19  C   UNK N   1      21.400  15.631   6.909  0.00  0.00     0.028 C 
HETATM   20  C   UNK N   1      20.118  15.941   7.115  0.00  0.00     0.012 C 
HETATM   21  C   UNK N   1      19.154  16.078   5.980  0.00  0.00     0.055 C 
BRANCH  20  22
HETATM   22  C   UNK N   1      19.669  16.115   8.515  0.00  0.00     0.171 C 
HETATM   23  O   UNK N   1      19.391  15.146   9.200  0.00  0.00    -0.646 OA
BRANCH  22  24
HETATM   24  O   UNK N   1      19.617  17.349   9.060  0.00  0.00    -0.773 OA
HETATM   25  H   UNK N   1      19.396  18.044   9.649  0.00  0.00     0.167 HD
ENDBRANCH  22  24
ENDBRANCH  20  22
ENDBRANCH  14  19
ENDBRANCH   8  11
ENDBRANCH   4   7
BRANCH   1  26
HETATM   26  C   UNK N   1      26.778  14.310   4.610  0.00  0.00     0.025 A 
HETATM   27  C   UNK N   1      25.769  14.289   5.575  0.00  0.00     0.016 A 
HETATM   28  C   UNK N   1      25.791  15.170   6.636  0.00  0.00     0.002 A 
HETATM   29  C   UNK N   1      26.827  16.081   6.740  0.00  0.00     0.012 A 
HETATM   30  C   UNK N   1      27.885  16.098   5.826  0.00  0.00     0.004 A 
HETATM   31  C   UNK N   1      27.868  15.197   4.715  0.00  0.00     0.089 A 
BRANCH  30  32
HETATM   32  C   UNK N   1      28.976  17.087   6.159  0.00  0.00     0.153 C 
HETATM   33  C   UNK N   1      30.184  16.482   6.857  0.00  0.00     0.045 C 
BRANCH  32  34
HETATM   34  O   UNK N   1      28.590  18.336   6.719  0.00  0.00    -0.382 OA
BRANCH  34  35
HETATM   35  C   UNK N   1      28.302  19.313   5.731  0.00  0.00     0.168 C 
BRANCH  35  36
HETATM   36  C   UNK N   1      27.346  20.457   6.139  0.00  0.00     0.026 C 
BRANCH  36  37
HETATM   37  C   UNK N   1      26.200  20.793   5.185  0.00  0.00     0.002 C 
BRANCH  37  38
HETATM   38  C   UNK N   1      26.506  20.294   3.794  0.00  0.00    -0.000 C 
BRANCH  38  39
HETATM   39  C   UNK N   1      25.377  19.411   3.313  0.00  0.00    -0.005 C 
HETATM   40  C   UNK N   1      25.826  17.970   3.362  0.00  0.00     0.005 C 
ENDBRANCH  38  39
ENDBRANCH  37  38
ENDBRANCH  36  37
ENDBRANCH  35  36
ENDBRANCH  34  35
ENDBRANCH  32  34
ENDBRANCH  30  32
BRANCH  31  41
HETATM   41  O   UNK N   1      28.830  15.129   3.749  0.00  0.00    -0.354 OA
HETATM   42  C   UNK N   1      29.110  16.070   2.788  0.00  0.00     0.210 C 
ENDBRANCH  31  41
ENDBRANCH   1  26
TORSDOF 14
ENDMDL
MODEL 8
REMARK VINA RESULT:      -6.9      7.343     11.600
REMARK  14 active torsions:
REMARK  status: ('A' for Active; 'I' for Inactive)
REMARK    1  A    between atoms: C_2  and  C_3 
REMARK    2  A    between atoms: C_3  and  C_4 
REMARK    3  A    between atoms: C_4  and  C_5 
REMARK    4  A    between atoms: C_5  and  C_6 
REMARK    5  A    between atoms: C_6  and  O_7 
REMARK    6  A    between atoms: O_7  and  C_8 
REMARK    7  A    between atoms: C_8  and  C_10 
REMARK    8  A    between atoms: C_14  and  C_18 
REMARK    9  A    between atoms: C_15  and  O_16 
REMARK   10  A    between atoms: C_21  and  N_24 
REMARK       I    between atoms: N_24  and  C_25 
REMARK   11  A    between atoms: C_25  and  C_27 
REMARK   12  A    between atoms: C_30  and  C_34 
REMARK   13  A    between atoms: C_35  and  C_37 
REMARK   14  A    between atoms: C_37  and  O_39 
ROOT
HETATM    1  C   UNK N   1      34.949  15.030   9.916  0.00  0.00     0.053 A 
HETATM    2  C   UNK N   1      36.127  14.403   9.472  0.00  0.00     0.083 A 
HETATM    3  S   UNK N   1      36.906  13.971  10.858  0.00  0.00    -0.063 SA
HETATM    4  C   UNK N   1      35.825  14.561  11.954  0.00  0.00     0.151 A 
HETATM    5  N   UNK N   1      34.811  15.135  11.279  0.00  0.00    -0.335 N 
ATOM      6  HN  UNK N   1      34.024  15.599  11.731  1.00  0.00     0.168 HD
ENDROOT
BRANCH   4   7
HETATM    7  N   UNK N   1      36.295  15.152  13.133  0.00  0.00    -0.303 N 
HETATM    8  C   UNK N   1      36.615  14.563  14.303  0.00  0.00     0.257 C 
HETATM    9  O   UNK N   1      37.102  15.255  15.172  0.00  0.00    -0.267 OA
HETATM   10  H   UNK N   1      36.408  16.130  13.103  0.00  0.00     0.171 HD
BRANCH   8  11
HETATM   11  C   UNK N   1      36.480  13.118  14.563  0.00  0.00     0.035 A 
HETATM   12  C   UNK N   1      35.179  12.628  14.630  0.00  0.00     0.042 A 
HETATM   13  C   UNK N   1      34.919  11.273  14.602  0.00  0.00     0.046 A 
HETATM   14  C   UNK N   1      35.975  10.366  14.424  0.00  0.00     0.008 A 
HETATM   15 Cl   UNK N   1      33.236  10.767  14.662  0.00  0.00    -0.083 Cl
HETATM   16  C   UNK N   1      37.306  10.842  14.394  0.00  0.00     0.046 A 
HETATM   17  C   UNK N   1      37.558  12.225  14.482  0.00  0.00     0.042 A 
HETATM   18 Cl   UNK N   1      38.651   9.736  14.150  0.00  0.00    -0.083 Cl
BRANCH  14  19
HETATM   19  C   UNK N   1      35.656   8.963  14.102  0.00  0.00     0.028 C 
HETATM   20  C   UNK N   1      35.446   8.426  12.898  0.00  0.00     0.012 C 
HETATM   21  C   UNK N   1      35.356   9.274  11.669  0.00  0.00     0.055 C 
BRANCH  20  22
HETATM   22  C   UNK N   1      35.337   6.953  12.811  0.00  0.00     0.171 C 
HETATM   23  O   UNK N   1      34.967   6.420  11.779  0.00  0.00    -0.646 OA
BRANCH  22  24
HETATM   24  O   UNK N   1      35.701   6.185  13.860  0.00  0.00    -0.773 OA
HETATM   25  H   UNK N   1      36.169   5.551  14.368  0.00  0.00     0.167 HD
ENDBRANCH  22  24
ENDBRANCH  20  22
ENDBRANCH  14  19
ENDBRANCH   8  11
ENDBRANCH   4   7
BRANCH   1  26
HETATM   26  C   UNK N   1      34.263  16.030   9.118  0.00  0.00     0.025 A 
HETATM   27  C   UNK N   1      34.993  17.177   8.803  0.00  0.00     0.016 A 
HETATM   28  C   UNK N   1      34.359  18.301   8.313  0.00  0.00     0.002 A 
HETATM   29  C   UNK N   1      32.988  18.283   8.133  0.00  0.00     0.012 A 
HETATM   30  C   UNK N   1      32.229  17.136   8.384  0.00  0.00     0.004 A 
HETATM   31  C   UNK N   1      32.872  15.968   8.903  0.00  0.00     0.089 A 
BRANCH  30  32
HETATM   32  C   UNK N   1      30.768  17.270   8.030  0.00  0.00     0.153 C 
HETATM   33  C   UNK N   1      29.834  17.348   9.227  0.00  0.00     0.045 C 
BRANCH  32  34
HETATM   34  O   UNK N   1      30.258  16.440   6.994  0.00  0.00    -0.382 OA
BRANCH  34  35
HETATM   35  C   UNK N   1      29.865  17.177   5.847  0.00  0.00     0.168 C 
BRANCH  35  36
HETATM   36  C   UNK N   1      30.713  16.984   4.568  0.00  0.00     0.026 C 
BRANCH  36  37
HETATM   37  C   UNK N   1      32.146  17.512   4.587  0.00  0.00     0.002 C 
BRANCH  37  38
HETATM   38  C   UNK N   1      32.955  16.892   3.474  0.00  0.00    -0.000 C 
BRANCH  38  39
HETATM   39  C   UNK N   1      33.626  15.635   3.974  0.00  0.00    -0.005 C 
HETATM   40  C   UNK N   1      34.228  15.906   5.333  0.00  0.00     0.005 C 
ENDBRANCH  38  39
ENDBRANCH  37  38
ENDBRANCH  36  37
ENDBRANCH  35  36
ENDBRANCH  34  35
ENDBRANCH  32  34
ENDBRANCH  30  32
BRANCH  31  41
HETATM   41  O   UNK N   1      32.239  14.797   9.203  0.00  0.00    -0.354 OA
HETATM   42  C   UNK N   1      32.395  13.584   8.577  0.00  0.00     0.210 C 
ENDBRANCH  31  41
ENDBRANCH   1  26
TORSDOF 14
ENDMDL
MODEL 9
REMARK VINA RESULT:      -6.8      2.501      4.189
REMARK  14 active torsions:
REMARK  status: ('A' for Active; 'I' for Inactive)
REMARK    1  A    between atoms: C_2  and  C_3 
REMARK    2  A    between atoms: C_3  and  C_4 
REMARK    3  A    between atoms: C_4  and  C_5 
REMARK    4  A    between atoms: C_5  and  C_6 
REMARK    5  A    between atoms: C_6  and  O_7 
REMARK    6  A    between atoms: O_7  and  C_8 
REMARK    7  A    between atoms: C_8  and  C_10 
REMARK    8  A    between atoms: C_14  and  C_18 
REMARK    9  A    between atoms: C_15  and  O_16 
REMARK   10  A    between atoms: C_21  and  N_24 
REMARK       I    between atoms: N_24  and  C_25 
REMARK   11  A    between atoms: C_25  and  C_27 
REMARK   12  A    between atoms: C_30  and  C_34 
REMARK   13  A    between atoms: C_35  and  C_37 
REMARK   14  A    between atoms: C_37  and  O_39 
ROOT
HETATM    1  C   UNK N   1      23.836  18.238   4.493  0.00  0.00     0.053 A 
HETATM    2  C   UNK N   1      23.418  19.018   3.399  0.00  0.00     0.083 A 
HETATM    3  S   UNK N   1      24.569  20.189   3.268  0.00  0.00    -0.063 SA
HETATM    4  C   UNK N   1      25.529  19.746   4.534  0.00  0.00     0.151 A 
HETATM    5  N   UNK N   1      24.979  18.667   5.123  0.00  0.00    -0.335 N 
ATOM      6  HN  UNK N   1      25.369  18.215   5.949  1.00  0.00     0.168 HD
ENDROOT
BRANCH   4   7
HETATM    7  N   UNK N   1      26.126  20.737   5.323  0.00  0.00    -0.303 N 
HETATM    8  C   UNK N   1      27.113  20.610   6.232  0.00  0.00     0.257 C 
HETATM    9  O   UNK N   1      27.554  21.623   6.736  0.00  0.00    -0.267 OA
HETATM   10  H   UNK N   1      25.777  21.650   5.196  0.00  0.00     0.171 HD
BRANCH   8  11
HETATM   11  C   UNK N   1      27.741  19.327   6.596  0.00  0.00     0.035 A 
HETATM   12  C   UNK N   1      28.612  18.786   5.655  0.00  0.00     0.042 A 
HETATM   13  C   UNK N   1      29.458  17.743   5.975  0.00  0.00     0.046 A 
HETATM   14  C   UNK N   1      29.504  17.264   7.294  0.00  0.00     0.008 A 
HETATM   15 Cl   UNK N   1      30.538  17.157   4.718  0.00  0.00    -0.083 Cl
HETATM   16  C   UNK N   1      28.598  17.774   8.252  0.00  0.00     0.046 A 
HETATM   17  C   UNK N   1      27.701  18.799   7.894  0.00  0.00     0.042 A 
HETATM   18 Cl   UNK N   1      28.642  17.213   9.919  0.00  0.00    -0.083 Cl
BRANCH  14  19
HETATM   19  C   UNK N   1      30.606  16.367   7.684  0.00  0.00     0.028 C 
HETATM   20  C   UNK N   1      31.786  16.700   8.211  0.00  0.00     0.012 C 
HETATM   21  C   UNK N   1      32.211  18.129   8.335  0.00  0.00     0.055 C 
BRANCH  20  22
HETATM   22  C   UNK N   1      32.654  15.607   8.703  0.00  0.00     0.171 C 
HETATM   23  O   UNK N   1      33.619  15.243   8.053  0.00  0.00    -0.646 OA
BRANCH  22  24
HETATM   24  O   UNK N   1      32.413  15.041   9.905  0.00  0.00    -0.773 OA
HETATM   25  H   UNK N   1      32.171  14.957  10.807  0.00  0.00     0.167 HD
ENDBRANCH  22  24
ENDBRANCH  20  22
ENDBRANCH  14  19
ENDBRANCH   8  11
ENDBRANCH   4   7
BRANCH   1  26
HETATM   26  C   UNK N   1      22.897  17.482   5.300  0.00  0.00     0.025 A 
HETATM   27  C   UNK N   1      21.852  18.207   5.876  0.00  0.00     0.016 A 
HETATM   28  C   UNK N   1      21.086  17.658   6.884  0.00  0.00     0.002 A 
HETATM   29  C   UNK N   1      21.362  16.376   7.324  0.00  0.00     0.012 A 
HETATM   30  C   UNK N   1      22.363  15.597   6.737  0.00  0.00     0.004 A 
HETATM   31  C   UNK N   1      23.171  16.158   5.698  0.00  0.00     0.089 A 
BRANCH  30  32
HETATM   32  C   UNK N   1      22.449  14.189   7.274  0.00  0.00     0.153 C 
HETATM   33  C   UNK N   1      23.716  13.890   8.059  0.00  0.00     0.045 C 
BRANCH  32  34
HETATM   34  O   UNK N   1      22.081  13.125   6.405  0.00  0.00    -0.382 OA
BRANCH  34  35
HETATM   35  C   UNK N   1      20.686  12.864   6.421  0.00  0.00     0.168 C 
BRANCH  35  36
HETATM   36  C   UNK N   1      19.945  12.944   5.066  0.00  0.00     0.026 C 
BRANCH  36  37
HETATM   37  C   UNK N   1      20.256  14.136   4.163  0.00  0.00     0.002 C 
BRANCH  37  38
HETATM   38  C   UNK N   1      19.322  15.284   4.460  0.00  0.00    -0.000 C 
BRANCH  38  39
HETATM   39  C   UNK N   1      19.730  16.492   3.649  0.00  0.00    -0.005 C 
HETATM   40  C   UNK N   1      20.615  16.044   2.511  0.00  0.00     0.005 C 
ENDBRANCH  38  39
ENDBRANCH  37  38
ENDBRANCH  36  37
ENDBRANCH  35  36
ENDBRANCH  34  35
ENDBRANCH  32  34
ENDBRANCH  30  32
BRANCH  31  41
HETATM   41  O   UNK N   1      24.187  15.508   5.060  0.00  0.00    -0.354 OA
HETATM   42  C   UNK N   1      24.091  14.699   3.954  0.00  0.00     0.210 C 
ENDBRANCH  31  41
ENDBRANCH   1  26
TORSDOF 14
ENDMDL
