MODEL 1
REMARK VINA RESULT:      -6.1      0.000      0.000
REMARK  17 active torsions:
REMARK  status: ('A' for Active; 'I' for Inactive)
REMARK    1  A    between atoms: C_2  and  C_3 
REMARK    2  A    between atoms: C_3  and  C_4 
REMARK    3  A    between atoms: C_3  and  O_25 
REMARK    4  A    between atoms: C_5  and  C_6 
REMARK    5  A    between atoms: C_7  and  C_8 
REMARK    6  A    between atoms: C_8  and  C_9 
REMARK    7  A    between atoms: C_9  and  C_10 
REMARK    8  A    between atoms: C_9  and  O_24 
REMARK    9  A    between atoms: C_11  and  C_12 
REMARK   10  A    between atoms: C_13  and  C_14 
REMARK   11  A    between atoms: C_15  and  C_16 
REMARK   12  A    between atoms: C_16  and  C_17 
REMARK   13  A    between atoms: C_16  and  O_23 
REMARK   14  A    between atoms: C_17  and  C_18 
REMARK   15  A    between atoms: C_18  and  C_19 
REMARK   16  A    between atoms: C_19  and  C_20 
REMARK   17  A    between atoms: C_20  and  O_22 
ROOT
HETATM    1  C   UNK N   1      27.926  19.172   6.901  0.00  0.00     0.005 C 
HETATM    2  C   UNK N   1      28.617  18.687   7.924  0.00  0.00    -0.002 C 
ENDROOT
BRANCH   2   3
HETATM    3  C   UNK N   1      29.326  17.413   7.862  0.00  0.00    -0.000 C 
HETATM    4  C   UNK N   1      30.647  17.475   7.784  0.00  0.00    -0.000 C 
BRANCH   4   5
HETATM    5  C   UNK N   1      31.500  16.293   7.655  0.00  0.00    -0.002 C 
HETATM    6  C   UNK N   1      32.669  16.358   7.002  0.00  0.00     0.004 C 
BRANCH   6   7
HETATM    7  C   UNK N   1      33.179  17.602   6.314  0.00  0.00     0.141 C 
BRANCH   7   8
HETATM    8  C   UNK N   1      33.433  17.373   4.827  0.00  0.00     0.036 C 
BRANCH   8   9
HETATM    9  C   UNK N   1      32.212  17.760   4.006  0.00  0.00     0.013 C 
BRANCH   9  10
HETATM   10  C   UNK N   1      31.441  16.525   3.578  0.00  0.00     0.110 C 
BRANCH  10  11
HETATM   11  C   UNK N   1      30.052  16.559   4.130  0.00  0.00     0.139 C 
HETATM   12  O   UNK N   1      29.601  15.582   4.702  0.00  0.00    -0.650 OA
BRANCH  11  13
HETATM   13  O   UNK N   1      29.295  17.665   3.997  0.00  0.00    -0.776 OA
HETATM   14  H   UNK N   1      29.142  18.222   4.735  0.00  0.00     0.167 HD
ENDBRANCH  11  13
ENDBRANCH  10  11
ENDBRANCH   9  10
ENDBRANCH   8   9
ENDBRANCH   7   8
BRANCH   7  15
HETATM   15  O   UNK N   1      34.376  17.990   6.911  0.00  0.00    -0.392 OA
HETATM   16  H   UNK N   1      34.523  18.914   7.166  0.00  0.00     0.210 HD
ENDBRANCH   7  15
ENDBRANCH   6   7
ENDBRANCH   4   5
ENDBRANCH   2   3
BRANCH   1  17
HETATM   17  C   UNK N   1      27.293  20.512   7.060  0.00  0.00     0.144 C 
BRANCH  17  18
HETATM   18  C   UNK N   1      26.574  20.956   5.794  0.00  0.00     0.062 C 
BRANCH  18  19
HETATM   19  C   UNK N   1      27.209  20.374   4.556  0.00  0.00    -0.024 C 
HETATM   20  C   UNK N   1      26.512  19.881   3.518  0.00  0.00    -0.004 C 
BRANCH  20  21
HETATM   21  C   UNK N   1      25.042  19.844   3.506  0.00  0.00    -0.002 C 
HETATM   22  C   UNK N   1      24.346  20.569   2.635  0.00  0.00     0.004 C 
BRANCH  22  23
HETATM   23  C   UNK N   1      22.856  20.471   2.606  0.00  0.00     0.140 C 
BRANCH  23  24
HETATM   24  C   UNK N   1      22.401  19.447   3.629  0.00  0.00     0.031 C 
HETATM   25  C   UNK N   1      20.897  19.259   3.558  0.00  0.00     0.008 C 
ENDBRANCH  23  24
BRANCH  23  26
HETATM   26  O   UNK N   1      22.298  21.717   2.905  0.00  0.00    -0.392 OA
HETATM   27  H   UNK N   1      21.532  21.931   3.460  0.00  0.00     0.210 HD
ENDBRANCH  23  26
ENDBRANCH  22  23
ENDBRANCH  20  21
ENDBRANCH  18  19
ENDBRANCH  17  18
BRANCH  17  28
HETATM   28  O   UNK N   1      26.440  20.531   8.165  0.00  0.00    -0.391 OA
HETATM   29  H   UNK N   1      25.893  20.352   8.946  0.00  0.00     0.210 HD
ENDBRANCH  17  28
ENDBRANCH   1  17
TORSDOF 17
ENDMDL
MODEL 2
REMARK VINA RESULT:      -5.9      3.210      9.167
REMARK  17 active torsions:
REMARK  status: ('A' for Active; 'I' for Inactive)
REMARK    1  A    between atoms: C_2  and  C_3 
REMARK    2  A    between atoms: C_3  and  C_4 
REMARK    3  A    between atoms: C_3  and  O_25 
REMARK    4  A    between atoms: C_5  and  C_6 
REMARK    5  A    between atoms: C_7  and  C_8 
REMARK    6  A    between atoms: C_8  and  C_9 
REMARK    7  A    between atoms: C_9  and  C_10 
REMARK    8  A    between atoms: C_9  and  O_24 
REMARK    9  A    between atoms: C_11  and  C_12 
REMARK   10  A    between atoms: C_13  and  C_14 
REMARK   11  A    between atoms: C_15  and  C_16 
REMARK   12  A    between atoms: C_16  and  C_17 
REMARK   13  A    between atoms: C_16  and  O_23 
REMARK   14  A    between atoms: C_17  and  C_18 
REMARK   15  A    between atoms: C_18  and  C_19 
REMARK   16  A    between atoms: C_19  and  C_20 
REMARK   17  A    between atoms: C_20  and  O_22 
ROOT
HETATM    1  C   UNK N   1      23.979  19.216   3.588  0.00  0.00     0.005 C 
HETATM    2  C   UNK N   1      23.702  18.708   4.782  0.00  0.00    -0.002 C 
ENDROOT
BRANCH   2   3
HETATM    3  C   UNK N   1      22.989  17.446   4.956  0.00  0.00    -0.000 C 
HETATM    4  C   UNK N   1      22.873  16.681   3.881  0.00  0.00    -0.000 C 
BRANCH   4   5
HETATM    5  C   UNK N   1      22.137  15.417   3.872  0.00  0.00    -0.002 C 
HETATM    6  C   UNK N   1      20.986  15.296   3.193  0.00  0.00     0.004 C 
BRANCH   6   7
HETATM    7  C   UNK N   1      20.333  16.431   2.440  0.00  0.00     0.141 C 
BRANCH   7   8
HETATM    8  C   UNK N   1      19.652  17.425   3.375  0.00  0.00     0.036 C 
BRANCH   8   9
HETATM    9  C   UNK N   1      19.742  18.837   2.818  0.00  0.00     0.013 C 
BRANCH   9  10
HETATM   10  C   UNK N   1      20.786  18.913   1.718  0.00  0.00     0.110 C 
BRANCH  10  11
HETATM   11  C   UNK N   1      20.933  20.320   1.235  0.00  0.00     0.139 C 
HETATM   12  O   UNK N   1      21.342  21.183   1.992  0.00  0.00    -0.650 OA
BRANCH  11  13
HETATM   13  O   UNK N   1      20.615  20.640  -0.034  0.00  0.00    -0.776 OA
HETATM   14  H   UNK N   1      20.064  20.073  -0.538  0.00  0.00     0.167 HD
ENDBRANCH  11  13
ENDBRANCH  10  11
ENDBRANCH   9  10
ENDBRANCH   8   9
ENDBRANCH   7   8
BRANCH   7  15
HETATM   15  O   UNK N   1      19.372  15.906   1.578  0.00  0.00    -0.392 OA
HETATM   16  H   UNK N   1      19.418  16.079   0.625  0.00  0.00     0.210 HD
ENDBRANCH   7  15
ENDBRANCH   6   7
ENDBRANCH   4   5
ENDBRANCH   2   3
BRANCH   1  17
HETATM   17  C   UNK N   1      24.765  20.481   3.534  0.00  0.00     0.144 C 
BRANCH  17  18
HETATM   18  C   UNK N   1      26.073  20.371   4.305  0.00  0.00     0.062 C 
BRANCH  18  19
HETATM   19  C   UNK N   1      27.028  19.402   3.653  0.00  0.00    -0.024 C 
HETATM   20  C   UNK N   1      27.969  18.713   4.321  0.00  0.00    -0.004 C 
BRANCH  20  21
HETATM   21  C   UNK N   1      28.169  18.862   5.770  0.00  0.00    -0.002 C 
HETATM   22  C   UNK N   1      27.790  17.908   6.615  0.00  0.00     0.004 C 
BRANCH  22  23
HETATM   23  C   UNK N   1      28.055  18.058   8.077  0.00  0.00     0.140 C 
BRANCH  23  24
HETATM   24  C   UNK N   1      29.541  18.275   8.297  0.00  0.00     0.031 C 
HETATM   25  C   UNK N   1      29.816  18.629   9.746  0.00  0.00     0.008 C 
ENDBRANCH  23  24
BRANCH  23  26
HETATM   26  O   UNK N   1      27.340  19.151   8.574  0.00  0.00    -0.392 OA
HETATM   27  H   UNK N   1      26.398  19.362   8.486  0.00  0.00     0.210 HD
ENDBRANCH  23  26
ENDBRANCH  22  23
ENDBRANCH  20  21
ENDBRANCH  18  19
ENDBRANCH  17  18
BRANCH  17  28
HETATM   28  O   UNK N   1      24.983  20.875   2.213  0.00  0.00    -0.391 OA
HETATM   29  H   UNK N   1      25.327  21.144   1.345  0.00  0.00     0.210 HD
ENDBRANCH  17  28
ENDBRANCH   1  17
TORSDOF 17
ENDMDL
MODEL 3
REMARK VINA RESULT:      -5.7      5.887     10.127
REMARK  17 active torsions:
REMARK  status: ('A' for Active; 'I' for Inactive)
REMARK    1  A    between atoms: C_2  and  C_3 
REMARK    2  A    between atoms: C_3  and  C_4 
REMARK    3  A    between atoms: C_3  and  O_25 
REMARK    4  A    between atoms: C_5  and  C_6 
REMARK    5  A    between atoms: C_7  and  C_8 
REMARK    6  A    between atoms: C_8  and  C_9 
REMARK    7  A    between atoms: C_9  and  C_10 
REMARK    8  A    between atoms: C_9  and  O_24 
REMARK    9  A    between atoms: C_11  and  C_12 
REMARK   10  A    between atoms: C_13  and  C_14 
REMARK   11  A    between atoms: C_15  and  C_16 
REMARK   12  A    between atoms: C_16  and  C_17 
REMARK   13  A    between atoms: C_16  and  O_23 
REMARK   14  A    between atoms: C_17  and  C_18 
REMARK   15  A    between atoms: C_18  and  C_19 
REMARK   16  A    between atoms: C_19  and  C_20 
REMARK   17  A    between atoms: C_20  and  O_22 
ROOT
HETATM    1  C   UNK N   1      21.503  13.636  10.041  0.00  0.00     0.005 C 
HETATM    2  C   UNK N   1      21.021  14.028   8.868  0.00  0.00    -0.002 C 
ENDROOT
BRANCH   2   3
HETATM    3  C   UNK N   1      20.877  15.434   8.504  0.00  0.00    -0.000 C 
HETATM    4  C   UNK N   1      21.312  15.780   7.302  0.00  0.00    -0.000 C 
BRANCH   4   5
HETATM    5  C   UNK N   1      21.295  17.158   6.809  0.00  0.00    -0.002 C 
HETATM    6  C   UNK N   1      20.740  17.457   5.626  0.00  0.00     0.004 C 
BRANCH   6   7
HETATM    7  C   UNK N   1      20.145  16.429   4.693  0.00  0.00     0.141 C 
BRANCH   7   8
HETATM    8  C   UNK N   1      20.360  16.790   3.227  0.00  0.00     0.036 C 
BRANCH   8   9
HETATM    9  C   UNK N   1      19.654  18.093   2.884  0.00  0.00     0.013 C 
BRANCH   9  10
HETATM   10  C   UNK N   1      20.526  18.956   1.991  0.00  0.00     0.110 C 
BRANCH  10  11
HETATM   11  C   UNK N   1      20.949  20.195   2.713  0.00  0.00     0.139 C 
HETATM   12  O   UNK N   1      21.753  20.952   2.201  0.00  0.00    -0.650 OA
BRANCH  11  13
HETATM   13  O   UNK N   1      20.445  20.476   3.931  0.00  0.00    -0.776 OA
HETATM   14  H   UNK N   1      19.765  21.113   4.023  0.00  0.00     0.167 HD
ENDBRANCH  11  13
ENDBRANCH  10  11
ENDBRANCH   9  10
ENDBRANCH   8   9
ENDBRANCH   7   8
BRANCH   7  15
HETATM   15  O   UNK N   1      18.775  16.345   4.930  0.00  0.00    -0.392 OA
HETATM   16  H   UNK N   1      18.192  17.094   4.728  0.00  0.00     0.210 HD
ENDBRANCH   7  15
ENDBRANCH   6   7
ENDBRANCH   4   5
ENDBRANCH   2   3
BRANCH   1  17
HETATM   17  C   UNK N   1      21.660  12.174  10.276  0.00  0.00     0.144 C 
BRANCH  17  18
HETATM   18  C   UNK N   1      22.956  11.638   9.685  0.00  0.00     0.062 C 
BRANCH  18  19
HETATM   19  C   UNK N   1      24.167  12.279  10.315  0.00  0.00    -0.024 C 
HETATM   20  C   UNK N   1      24.999  13.110   9.665  0.00  0.00    -0.004 C 
BRANCH  20  21
HETATM   21  C   UNK N   1      24.811  13.459   8.248  0.00  0.00    -0.002 C 
HETATM   22  C   UNK N   1      25.299  14.592   7.752  0.00  0.00     0.004 C 
BRANCH  22  23
HETATM   23  C   UNK N   1      25.143  14.897   6.298  0.00  0.00     0.140 C 
BRANCH  23  24
HETATM   24  C   UNK N   1      24.073  13.996   5.709  0.00  0.00     0.031 C 
HETATM   25  C   UNK N   1      23.434  14.654   4.501  0.00  0.00     0.008 C 
ENDBRANCH  23  24
BRANCH  23  26
HETATM   26  O   UNK N   1      24.776  16.235   6.136  0.00  0.00    -0.392 OA
HETATM   27  H   UNK N   1      23.891  16.630   6.095  0.00  0.00     0.210 HD
ENDBRANCH  23  26
ENDBRANCH  22  23
ENDBRANCH  20  21
ENDBRANCH  18  19
ENDBRANCH  17  18
BRANCH  17  28
HETATM   28  O   UNK N   1      21.559  11.875  11.637  0.00  0.00    -0.391 OA
HETATM   29  H   UNK N   1      21.365  11.822  12.586  0.00  0.00     0.210 HD
ENDBRANCH  17  28
ENDBRANCH   1  17
TORSDOF 17
ENDMDL
MODEL 4
REMARK VINA RESULT:      -5.6     10.250     13.569
REMARK  17 active torsions:
REMARK  status: ('A' for Active; 'I' for Inactive)
REMARK    1  A    between atoms: C_2  and  C_3 
REMARK    2  A    between atoms: C_3  and  C_4 
REMARK    3  A    between atoms: C_3  and  O_25 
REMARK    4  A    between atoms: C_5  and  C_6 
REMARK    5  A    between atoms: C_7  and  C_8 
REMARK    6  A    between atoms: C_8  and  C_9 
REMARK    7  A    between atoms: C_9  and  C_10 
REMARK    8  A    between atoms: C_9  and  O_24 
REMARK    9  A    between atoms: C_11  and  C_12 
REMARK   10  A    between atoms: C_13  and  C_14 
REMARK   11  A    between atoms: C_15  and  C_16 
REMARK   12  A    between atoms: C_16  and  C_17 
REMARK   13  A    between atoms: C_16  and  O_23 
REMARK   14  A    between atoms: C_17  and  C_18 
REMARK   15  A    between atoms: C_18  and  C_19 
REMARK   16  A    between atoms: C_19  and  C_20 
REMARK   17  A    between atoms: C_20  and  O_22 
ROOT
HETATM    1  C   UNK N   1      29.205  23.940  -3.336  0.00  0.00     0.005 C 
HETATM    2  C   UNK N   1      30.130  24.869  -3.539  0.00  0.00    -0.002 C 
ENDROOT
BRANCH   2   3
HETATM    3  C   UNK N   1      29.892  26.052  -4.359  0.00  0.00    -0.000 C 
HETATM    4  C   UNK N   1      28.819  26.770  -4.062  0.00  0.00    -0.000 C 
BRANCH   4   5
HETATM    5  C   UNK N   1      28.407  27.949  -4.825  0.00  0.00    -0.002 C 
HETATM    6  C   UNK N   1      27.111  28.281  -4.928  0.00  0.00     0.004 C 
BRANCH   6   7
HETATM    7  C   UNK N   1      25.986  27.470  -4.331  0.00  0.00     0.141 C 
BRANCH   7   8
HETATM    8  C   UNK N   1      24.944  27.079  -5.375  0.00  0.00     0.036 C 
BRANCH   8   9
HETATM    9  C   UNK N   1      25.547  26.147  -6.415  0.00  0.00     0.013 C 
BRANCH   9  10
HETATM   10  C   UNK N   1      25.824  24.781  -5.814  0.00  0.00     0.110 C 
BRANCH  10  11
HETATM   11  C   UNK N   1      27.087  24.211  -6.375  0.00  0.00     0.139 C 
HETATM   12  O   UNK N   1      27.369  23.043  -6.173  0.00  0.00    -0.650 OA
BRANCH  11  13
HETATM   13  O   UNK N   1      27.918  24.984  -7.101  0.00  0.00    -0.776 OA
HETATM   14  H   UNK N   1      28.844  24.848  -7.059  0.00  0.00     0.167 HD
ENDBRANCH  11  13
ENDBRANCH  10  11
ENDBRANCH   9  10
ENDBRANCH   8   9
ENDBRANCH   7   8
BRANCH   7  15
HETATM   15  O   UNK N   1      25.359  28.226  -3.344  0.00  0.00    -0.392 OA
HETATM   16  H   UNK N   1      25.880  28.781  -2.743  0.00  0.00     0.210 HD
ENDBRANCH   7  15
ENDBRANCH   6   7
ENDBRANCH   4   5
ENDBRANCH   2   3
BRANCH   1  17
HETATM   17  C   UNK N   1      29.543  22.805  -2.431  0.00  0.00     0.144 C 
BRANCH  17  18
HETATM   18  C   UNK N   1      29.967  21.566  -3.206  0.00  0.00     0.062 C 
BRANCH  18  19
HETATM   19  C   UNK N   1      31.459  21.526  -3.428  0.00  0.00    -0.024 C 
HETATM   20  C   UNK N   1      32.043  21.695  -4.626  0.00  0.00    -0.004 C 
BRANCH  20  21
HETATM   21  C   UNK N   1      31.265  21.916  -5.855  0.00  0.00    -0.002 C 
HETATM   22  C   UNK N   1      30.929  20.900  -6.643  0.00  0.00     0.004 C 
BRANCH  22  23
HETATM   23  C   UNK N   1      30.090  21.143  -7.855  0.00  0.00     0.140 C 
BRANCH  23  24
HETATM   24  C   UNK N   1      28.881  20.226  -7.820  0.00  0.00     0.031 C 
HETATM   25  C   UNK N   1      29.319  18.774  -7.778  0.00  0.00     0.008 C 
ENDBRANCH  23  24
BRANCH  23  26
HETATM   26  O   UNK N   1      29.672  22.475  -7.877  0.00  0.00    -0.392 OA
HETATM   27  H   UNK N   1      29.705  23.120  -8.601  0.00  0.00     0.210 HD
ENDBRANCH  23  26
ENDBRANCH  22  23
ENDBRANCH  20  21
ENDBRANCH  18  19
ENDBRANCH  17  18
BRANCH  17  28
HETATM   28  O   UNK N   1      30.515  23.182  -1.502  0.00  0.00    -0.391 OA
HETATM   29  H   UNK N   1      31.086  23.612  -0.845  0.00  0.00     0.210 HD
ENDBRANCH  17  28
ENDBRANCH   1  17
TORSDOF 17
ENDMDL
MODEL 5
REMARK VINA RESULT:      -5.6     10.416     13.970
REMARK  17 active torsions:
REMARK  status: ('A' for Active; 'I' for Inactive)
REMARK    1  A    between atoms: C_2  and  C_3 
REMARK    2  A    between atoms: C_3  and  C_4 
REMARK    3  A    between atoms: C_3  and  O_25 
REMARK    4  A    between atoms: C_5  and  C_6 
REMARK    5  A    between atoms: C_7  and  C_8 
REMARK    6  A    between atoms: C_8  and  C_9 
REMARK    7  A    between atoms: C_9  and  C_10 
REMARK    8  A    between atoms: C_9  and  O_24 
REMARK    9  A    between atoms: C_11  and  C_12 
REMARK   10  A    between atoms: C_13  and  C_14 
REMARK   11  A    between atoms: C_15  and  C_16 
REMARK   12  A    between atoms: C_16  and  C_17 
REMARK   13  A    between atoms: C_16  and  O_23 
REMARK   14  A    between atoms: C_17  and  C_18 
REMARK   15  A    between atoms: C_18  and  C_19 
REMARK   16  A    between atoms: C_19  and  C_20 
REMARK   17  A    between atoms: C_20  and  O_22 
ROOT
HETATM    1  C   UNK N   1      28.733  23.234  -2.822  0.00  0.00     0.005 C 
HETATM    2  C   UNK N   1      28.653  24.153  -3.775  0.00  0.00    -0.002 C 
ENDROOT
BRANCH   2   3
HETATM    3  C   UNK N   1      27.428  24.897  -4.052  0.00  0.00    -0.000 C 
HETATM    4  C   UNK N   1      26.827  24.636  -5.204  0.00  0.00    -0.000 C 
BRANCH   4   5
HETATM    5  C   UNK N   1      25.626  25.337  -5.658  0.00  0.00    -0.002 C 
HETATM    6  C   UNK N   1      25.699  26.281  -6.608  0.00  0.00     0.004 C 
BRANCH   6   7
HETATM    7  C   UNK N   1      26.992  26.735  -7.243  0.00  0.00     0.141 C 
BRANCH   7   8
HETATM    8  C   UNK N   1      27.339  28.174  -6.875  0.00  0.00     0.036 C 
BRANCH   8   9
HETATM    9  C   UNK N   1      27.728  28.275  -5.407  0.00  0.00     0.013 C 
BRANCH   9  10
HETATM   10  C   UNK N   1      26.791  29.214  -4.669  0.00  0.00     0.110 C 
BRANCH  10  11
HETATM   11  C   UNK N   1      26.408  28.634  -3.345  0.00  0.00     0.139 C 
HETATM   12  O   UNK N   1      25.421  27.925  -3.255  0.00  0.00    -0.650 OA
BRANCH  11  13
HETATM   13  O   UNK N   1      27.148  28.894  -2.251  0.00  0.00    -0.776 OA
HETATM   14  H   UNK N   1      27.113  28.319  -1.511  0.00  0.00     0.167 HD
ENDBRANCH  11  13
ENDBRANCH  10  11
ENDBRANCH   9  10
ENDBRANCH   8   9
ENDBRANCH   7   8
BRANCH   7  15
HETATM   15  O   UNK N   1      26.868  26.652  -8.628  0.00  0.00    -0.392 OA
HETATM   16  H   UNK N   1      26.036  26.360  -9.032  0.00  0.00     0.210 HD
ENDBRANCH   7  15
ENDBRANCH   6   7
ENDBRANCH   4   5
ENDBRANCH   2   3
BRANCH   1  17
HETATM   17  C   UNK N   1      30.053  22.583  -2.591  0.00  0.00     0.144 C 
BRANCH  17  18
HETATM   18  C   UNK N   1      31.036  22.874  -3.716  0.00  0.00     0.062 C 
BRANCH  18  19
HETATM   19  C   UNK N   1      31.677  21.613  -4.241  0.00  0.00    -0.024 C 
HETATM   20  C   UNK N   1      31.127  20.828  -5.183  0.00  0.00    -0.004 C 
BRANCH  20  21
HETATM   21  C   UNK N   1      29.817  21.123  -5.782  0.00  0.00    -0.002 C 
HETATM   22  C   UNK N   1      29.722  21.808  -6.917  0.00  0.00     0.004 C 
BRANCH  22  23
HETATM   23  C   UNK N   1      28.384  22.046  -7.536  0.00  0.00     0.140 C 
BRANCH  23  24
HETATM   24  C   UNK N   1      28.403  23.370  -8.279  0.00  0.00     0.031 C 
HETATM   25  C   UNK N   1      29.554  24.232  -7.794  0.00  0.00     0.008 C 
ENDBRANCH  23  24
BRANCH  23  26
HETATM   26  O   UNK N   1      28.087  21.010  -8.426  0.00  0.00    -0.392 OA
HETATM   27  H   UNK N   1      27.242  20.565  -8.593  0.00  0.00     0.210 HD
ENDBRANCH  23  26
ENDBRANCH  22  23
ENDBRANCH  20  21
ENDBRANCH  18  19
ENDBRANCH  17  18
BRANCH  17  28
HETATM   28  O   UNK N   1      30.578  22.947  -1.349  0.00  0.00    -0.391 OA
HETATM   29  H   UNK N   1      30.883  23.382  -0.537  0.00  0.00     0.210 HD
ENDBRANCH  17  28
ENDBRANCH   1  17
TORSDOF 17
ENDMDL
MODEL 6
REMARK VINA RESULT:      -5.5      6.663     12.030
REMARK  17 active torsions:
REMARK  status: ('A' for Active; 'I' for Inactive)
REMARK    1  A    between atoms: C_2  and  C_3 
REMARK    2  A    between atoms: C_3  and  C_4 
REMARK    3  A    between atoms: C_3  and  O_25 
REMARK    4  A    between atoms: C_5  and  C_6 
REMARK    5  A    between atoms: C_7  and  C_8 
REMARK    6  A    between atoms: C_8  and  C_9 
REMARK    7  A    between atoms: C_9  and  C_10 
REMARK    8  A    between atoms: C_9  and  O_24 
REMARK    9  A    between atoms: C_11  and  C_12 
REMARK   10  A    between atoms: C_13  and  C_14 
REMARK   11  A    between atoms: C_15  and  C_16 
REMARK   12  A    between atoms: C_16  and  C_17 
REMARK   13  A    between atoms: C_16  and  O_23 
REMARK   14  A    between atoms: C_17  and  C_18 
REMARK   15  A    between atoms: C_18  and  C_19 
REMARK   16  A    between atoms: C_19  and  C_20 
REMARK   17  A    between atoms: C_20  and  O_22 
ROOT
HETATM    1  C   UNK N   1      36.092  14.195  13.555  0.00  0.00     0.005 C 
HETATM    2  C   UNK N   1      36.490  13.340  12.621  0.00  0.00    -0.002 C 
ENDROOT
BRANCH   2   3
HETATM    3  C   UNK N   1      36.419  13.641  11.195  0.00  0.00    -0.000 C 
HETATM    4  C   UNK N   1      35.303  13.292  10.573  0.00  0.00    -0.000 C 
BRANCH   4   5
HETATM    5  C   UNK N   1      35.097  13.468   9.135  0.00  0.00    -0.002 C 
HETATM    6  C   UNK N   1      34.255  14.404   8.672  0.00  0.00     0.004 C 
BRANCH   6   7
HETATM    7  C   UNK N   1      33.426  15.301   9.560  0.00  0.00     0.141 C 
BRANCH   7   8
HETATM    8  C   UNK N   1      32.153  15.777   8.867  0.00  0.00     0.036 C 
BRANCH   8   9
HETATM    9  C   UNK N   1      32.247  17.257   8.526  0.00  0.00     0.013 C 
BRANCH   9  10
HETATM   10  C   UNK N   1      32.370  17.454   7.026  0.00  0.00     0.110 C 
BRANCH  10  11
HETATM   11  C   UNK N   1      33.794  17.705   6.648  0.00  0.00     0.139 C 
HETATM   12  O   UNK N   1      34.195  17.387   5.542  0.00  0.00    -0.650 OA
BRANCH  11  13
HETATM   13  O   UNK N   1      34.638  18.280   7.526  0.00  0.00    -0.776 OA
HETATM   14  H   UNK N   1      35.104  19.059   7.291  0.00  0.00     0.167 HD
ENDBRANCH  11  13
ENDBRANCH  10  11
ENDBRANCH   9  10
ENDBRANCH   8   9
ENDBRANCH   7   8
BRANCH   7  15
HETATM   15  O   UNK N   1      34.184  16.418   9.906  0.00  0.00    -0.392 OA
HETATM   16  H   UNK N   1      34.544  16.511  10.802  0.00  0.00     0.210 HD
ENDBRANCH   7  15
ENDBRANCH   6   7
ENDBRANCH   4   5
ENDBRANCH   2   3
BRANCH   1  17
HETATM   17  C   UNK N   1      36.269  13.801  14.981  0.00  0.00     0.144 C 
BRANCH  17  18
HETATM   18  C   UNK N   1      35.938  12.334  15.212  0.00  0.00     0.062 C 
BRANCH  18  19
HETATM   19  C   UNK N   1      34.452  12.109  15.346  0.00  0.00    -0.024 C 
HETATM   20  C   UNK N   1      33.777  11.148  14.692  0.00  0.00    -0.004 C 
BRANCH  20  21
HETATM   21  C   UNK N   1      34.436  10.225  13.755  0.00  0.00    -0.002 C 
HETATM   22  C   UNK N   1      34.235  10.323  12.445  0.00  0.00     0.004 C 
BRANCH  22  23
HETATM   23  C   UNK N   1      34.959   9.411  11.509  0.00  0.00     0.140 C 
BRANCH  23  24
HETATM   24  C   UNK N   1      34.261   9.419  10.161  0.00  0.00     0.031 C 
HETATM   25  C   UNK N   1      32.999  10.257  10.224  0.00  0.00     0.008 C 
ENDBRANCH  23  24
BRANCH  23  26
HETATM   26  O   UNK N   1      36.279   9.844  11.360  0.00  0.00    -0.392 OA
HETATM   27  H   UNK N   1      36.697  10.664  11.665  0.00  0.00     0.210 HD
ENDBRANCH  23  26
ENDBRANCH  22  23
ENDBRANCH  20  21
ENDBRANCH  18  19
ENDBRANCH  17  18
BRANCH  17  28
HETATM   28  O   UNK N   1      37.556  14.110  15.427  0.00  0.00    -0.391 OA
HETATM   29  H   UNK N   1      38.495  14.322  15.544  0.00  0.00     0.210 HD
ENDBRANCH  17  28
ENDBRANCH   1  17
TORSDOF 17
ENDMDL
MODEL 7
REMARK VINA RESULT:      -5.5      3.414      5.937
REMARK  17 active torsions:
REMARK  status: ('A' for Active; 'I' for Inactive)
REMARK    1  A    between atoms: C_2  and  C_3 
REMARK    2  A    between atoms: C_3  and  C_4 
REMARK    3  A    between atoms: C_3  and  O_25 
REMARK    4  A    between atoms: C_5  and  C_6 
REMARK    5  A    between atoms: C_7  and  C_8 
REMARK    6  A    between atoms: C_8  and  C_9 
REMARK    7  A    between atoms: C_9  and  C_10 
REMARK    8  A    between atoms: C_9  and  O_24 
REMARK    9  A    between atoms: C_11  and  C_12 
REMARK   10  A    between atoms: C_13  and  C_14 
REMARK   11  A    between atoms: C_15  and  C_16 
REMARK   12  A    between atoms: C_16  and  C_17 
REMARK   13  A    between atoms: C_16  and  O_23 
REMARK   14  A    between atoms: C_17  and  C_18 
REMARK   15  A    between atoms: C_18  and  C_19 
REMARK   16  A    between atoms: C_19  and  C_20 
REMARK   17  A    between atoms: C_20  and  O_22 
ROOT
HETATM    1  C   UNK N   1      23.737  20.053   3.318  0.00  0.00     0.005 C 
HETATM    2  C   UNK N   1      24.716  20.671   2.671  0.00  0.00    -0.002 C 
ENDROOT
BRANCH   2   3
HETATM    3  C   UNK N   1      26.114  20.579   3.081  0.00  0.00    -0.000 C 
HETATM    4  C   UNK N   1      26.338  20.202   4.331  0.00  0.00    -0.000 C 
BRANCH   4   5
HETATM    5  C   UNK N   1      27.677  20.118   4.915  0.00  0.00    -0.002 C 
HETATM    6  C   UNK N   1      28.443  19.034   4.725  0.00  0.00     0.004 C 
BRANCH   6   7
HETATM    7  C   UNK N   1      27.992  17.812   3.960  0.00  0.00     0.141 C 
BRANCH   7   8
HETATM    8  C   UNK N   1      27.391  16.750   4.875  0.00  0.00     0.036 C 
BRANCH   8   9
HETATM    9  C   UNK N   1      25.915  16.547   4.567  0.00  0.00     0.013 C 
BRANCH   9  10
HETATM   10  C   UNK N   1      25.655  16.686   3.078  0.00  0.00     0.110 C 
BRANCH  10  11
HETATM   11  C   UNK N   1      25.590  15.339   2.433  0.00  0.00     0.139 C 
HETATM   12  O   UNK N   1      25.458  15.249   1.225  0.00  0.00    -0.650 OA
BRANCH  11  13
HETATM   13  O   UNK N   1      25.675  14.222   3.181  0.00  0.00    -0.776 OA
HETATM   14  H   UNK N   1      26.375  14.119   3.795  0.00  0.00     0.167 HD
ENDBRANCH  11  13
ENDBRANCH  10  11
ENDBRANCH   9  10
ENDBRANCH   8   9
ENDBRANCH   7   8
BRANCH   7  15
HETATM   15  O   UNK N   1      29.091  17.259   3.306  0.00  0.00    -0.392 OA
HETATM   16  H   UNK N   1      29.047  16.362   2.939  0.00  0.00     0.210 HD
ENDBRANCH   7  15
ENDBRANCH   6   7
ENDBRANCH   4   5
ENDBRANCH   2   3
BRANCH   1  17
HETATM   17  C   UNK N   1      22.356  20.171   2.771  0.00  0.00     0.144 C 
BRANCH  17  18
HETATM   18  C   UNK N   1      21.359  19.331   3.557  0.00  0.00     0.062 C 
BRANCH  18  19
HETATM   19  C   UNK N   1      22.039  18.493   4.611  0.00  0.00    -0.024 C 
HETATM   20  C   UNK N   1      22.093  17.151   4.582  0.00  0.00    -0.004 C 
BRANCH  20  21
HETATM   21  C   UNK N   1      21.463  16.363   3.511  0.00  0.00    -0.002 C 
HETATM   22  C   UNK N   1      22.199  15.683   2.638  0.00  0.00     0.004 C 
BRANCH  22  23
HETATM   23  C   UNK N   1      21.535  14.846   1.595  0.00  0.00     0.140 C 
BRANCH  23  24
HETATM   24  C   UNK N   1      20.405  15.638   0.962  0.00  0.00     0.031 C 
HETATM   25  C   UNK N   1      19.255  14.718   0.597  0.00  0.00     0.008 C 
ENDBRANCH  23  24
BRANCH  23  26
HETATM   26  O   UNK N   1      22.467  14.490   0.616  0.00  0.00    -0.392 OA
HETATM   27  H   UNK N   1      23.325  14.891   0.408  0.00  0.00     0.210 HD
ENDBRANCH  23  26
ENDBRANCH  22  23
ENDBRANCH  20  21
ENDBRANCH  18  19
ENDBRANCH  17  18
BRANCH  17  28
HETATM   28  O   UNK N   1      21.958  21.508   2.709  0.00  0.00    -0.391 OA
HETATM   29  H   UNK N   1      21.647  22.397   2.474  0.00  0.00     0.210 HD
ENDBRANCH  17  28
ENDBRANCH   1  17
TORSDOF 17
ENDMDL
MODEL 8
REMARK VINA RESULT:      -5.5     10.329     12.655
REMARK  17 active torsions:
REMARK  status: ('A' for Active; 'I' for Inactive)
REMARK    1  A    between atoms: C_2  and  C_3 
REMARK    2  A    between atoms: C_3  and  C_4 
REMARK    3  A    between atoms: C_3  and  O_25 
REMARK    4  A    between atoms: C_5  and  C_6 
REMARK    5  A    between atoms: C_7  and  C_8 
REMARK    6  A    between atoms: C_8  and  C_9 
REMARK    7  A    between atoms: C_9  and  C_10 
REMARK    8  A    between atoms: C_9  and  O_24 
REMARK    9  A    between atoms: C_11  and  C_12 
REMARK   10  A    between atoms: C_13  and  C_14 
REMARK   11  A    between atoms: C_15  and  C_16 
REMARK   12  A    between atoms: C_16  and  C_17 
REMARK   13  A    between atoms: C_16  and  O_23 
REMARK   14  A    between atoms: C_17  and  C_18 
REMARK   15  A    between atoms: C_18  and  C_19 
REMARK   16  A    between atoms: C_19  and  C_20 
REMARK   17  A    between atoms: C_20  and  O_22 
ROOT
HETATM    1  C   UNK N   1      26.716  24.191  -5.066  0.00  0.00     0.005 C 
HETATM    2  C   UNK N   1      26.510  24.271  -3.758  0.00  0.00    -0.002 C 
ENDROOT
BRANCH   2   3
HETATM    3  C   UNK N   1      27.518  23.884  -2.777  0.00  0.00    -0.000 C 
HETATM    4  C   UNK N   1      28.735  23.644  -3.243  0.00  0.00    -0.000 C 
BRANCH   4   5
HETATM    5  C   UNK N   1      29.841  23.188  -2.401  0.00  0.00    -0.002 C 
HETATM    6  C   UNK N   1      30.938  22.642  -2.945  0.00  0.00     0.004 C 
BRANCH   6   7
HETATM    7  C   UNK N   1      31.111  22.403  -4.426  0.00  0.00     0.141 C 
BRANCH   7   8
HETATM    8  C   UNK N   1      30.710  20.987  -4.830  0.00  0.00     0.036 C 
BRANCH   8   9
HETATM    9  C   UNK N   1      30.257  20.950  -6.282  0.00  0.00     0.013 C 
BRANCH   9  10
HETATM   10  C   UNK N   1      29.082  21.887  -6.500  0.00  0.00     0.110 C 
BRANCH  10  11
HETATM   11  C   UNK N   1      28.283  21.454  -7.687  0.00  0.00     0.139 C 
HETATM   12  O   UNK N   1      28.247  20.277  -7.998  0.00  0.00    -0.650 OA
BRANCH  11  13
HETATM   13  O   UNK N   1      27.604  22.361  -8.416  0.00  0.00    -0.776 OA
HETATM   14  H   UNK N   1      26.958  22.904  -8.009  0.00  0.00     0.167 HD
ENDBRANCH  11  13
ENDBRANCH  10  11
ENDBRANCH   9  10
ENDBRANCH   8   9
ENDBRANCH   7   8
BRANCH   7  15
HETATM   15  O   UNK N   1      32.450  22.594  -4.761  0.00  0.00    -0.392 OA
HETATM   16  H   UNK N   1      32.939  21.913  -5.248  0.00  0.00     0.210 HD
ENDBRANCH   7  15
ENDBRANCH   6   7
ENDBRANCH   4   5
ENDBRANCH   2   3
BRANCH   1  17
HETATM   17  C   UNK N   1      25.635  24.671  -5.972  0.00  0.00     0.144 C 
BRANCH  17  18
HETATM   18  C   UNK N   1      25.885  26.094  -6.452  0.00  0.00     0.062 C 
BRANCH  18  19
HETATM   19  C   UNK N   1      24.983  27.085  -5.760  0.00  0.00    -0.024 C 
HETATM   20  C   UNK N   1      25.366  27.852  -4.725  0.00  0.00    -0.004 C 
BRANCH  20  21
HETATM   21  C   UNK N   1      26.718  27.775  -4.150  0.00  0.00    -0.002 C 
HETATM   22  C   UNK N   1      27.659  28.648  -4.497  0.00  0.00     0.004 C 
BRANCH  22  23
HETATM   23  C   UNK N   1      29.007  28.585  -3.858  0.00  0.00     0.140 C 
BRANCH  23  24
HETATM   24  C   UNK N   1      29.498  27.148  -3.866  0.00  0.00     0.031 C 
HETATM   25  C   UNK N   1      30.917  27.071  -3.336  0.00  0.00     0.008 C 
ENDBRANCH  23  24
BRANCH  23  26
HETATM   26  O   UNK N   1      29.901  29.392  -4.566  0.00  0.00    -0.392 OA
HETATM   27  H   UNK N   1      30.474  29.167  -5.315  0.00  0.00     0.210 HD
ENDBRANCH  23  26
ENDBRANCH  22  23
ENDBRANCH  20  21
ENDBRANCH  18  19
ENDBRANCH  17  18
BRANCH  17  28
HETATM   28  O   UNK N   1      25.458  23.795  -7.046  0.00  0.00    -0.391 OA
HETATM   29  H   UNK N   1      25.288  23.055  -7.650  0.00  0.00     0.210 HD
ENDBRANCH  17  28
ENDBRANCH   1  17
TORSDOF 17
ENDMDL
MODEL 9
REMARK VINA RESULT:      -5.4     11.262     13.895
REMARK  17 active torsions:
REMARK  status: ('A' for Active; 'I' for Inactive)
REMARK    1  A    between atoms: C_2  and  C_3 
REMARK    2  A    between atoms: C_3  and  C_4 
REMARK    3  A    between atoms: C_3  and  O_25 
REMARK    4  A    between atoms: C_5  and  C_6 
REMARK    5  A    between atoms: C_7  and  C_8 
REMARK    6  A    between atoms: C_8  and  C_9 
REMARK    7  A    between atoms: C_9  and  C_10 
REMARK    8  A    between atoms: C_9  and  O_24 
REMARK    9  A    between atoms: C_11  and  C_12 
REMARK   10  A    between atoms: C_13  and  C_14 
REMARK   11  A    between atoms: C_15  and  C_16 
REMARK   12  A    between atoms: C_16  and  C_17 
REMARK   13  A    between atoms: C_16  and  O_23 
REMARK   14  A    between atoms: C_17  and  C_18 
REMARK   15  A    between atoms: C_18  and  C_19 
REMARK   16  A    between atoms: C_19  and  C_20 
REMARK   17  A    between atoms: C_20  and  O_22 
ROOT
HETATM    1  C   UNK N   1      27.194  26.732  -3.674  0.00  0.00     0.005 C 
HETATM    2  C   UNK N   1      26.635  25.554  -3.919  0.00  0.00    -0.002 C 
ENDROOT
BRANCH   2   3
HETATM    3  C   UNK N   1      27.293  24.289  -3.607  0.00  0.00    -0.000 C 
HETATM    4  C   UNK N   1      28.566  24.184  -3.958  0.00  0.00    -0.000 C 
BRANCH   4   5
HETATM    5  C   UNK N   1      29.351  22.963  -3.771  0.00  0.00    -0.002 C 
HETATM    6  C   UNK N   1      29.820  22.281  -4.825  0.00  0.00     0.004 C 
BRANCH   6   7
HETATM    7  C   UNK N   1      29.550  22.663  -6.261  0.00  0.00     0.141 C 
BRANCH   7   8
HETATM    8  C   UNK N   1      28.416  21.843  -6.870  0.00  0.00     0.036 C 
BRANCH   8   9
HETATM    9  C   UNK N   1      27.378  22.753  -7.511  0.00  0.00     0.013 C 
BRANCH   9  10
HETATM   10  C   UNK N   1      26.091  22.748  -6.706  0.00  0.00     0.110 C 
BRANCH  10  11
HETATM   11  C   UNK N   1      25.037  21.958  -7.413  0.00  0.00     0.139 C 
HETATM   12  O   UNK N   1      24.138  21.438  -6.776  0.00  0.00    -0.650 OA
BRANCH  11  13
HETATM   13  O   UNK N   1      25.078  21.818  -8.752  0.00  0.00    -0.776 OA
HETATM   14  H   UNK N   1      24.303  21.586  -9.225  0.00  0.00     0.167 HD
ENDBRANCH  11  13
ENDBRANCH  10  11
ENDBRANCH   9  10
ENDBRANCH   8   9
ENDBRANCH   7   8
BRANCH   7  15
HETATM   15  O   UNK N   1      30.703  22.445  -7.011  0.00  0.00    -0.392 OA
HETATM   16  H   UNK N   1      31.550  22.830  -6.737  0.00  0.00     0.210 HD
ENDBRANCH   7  15
ENDBRANCH   6   7
ENDBRANCH   4   5
ENDBRANCH   2   3
BRANCH   1  17
HETATM   17  C   UNK N   1      26.402  27.956  -3.980  0.00  0.00     0.144 C 
BRANCH  17  18
HETATM   18  C   UNK N   1      26.072  28.065  -5.462  0.00  0.00     0.062 C 
BRANCH  18  19
HETATM   19  C   UNK N   1      27.318  28.157  -6.308  0.00  0.00    -0.024 C 
HETATM   20  C   UNK N   1      27.516  27.445  -7.430  0.00  0.00    -0.004 C 
BRANCH  20  21
HETATM   21  C   UNK N   1      26.526  26.479  -7.932  0.00  0.00    -0.002 C 
HETATM   22  C   UNK N   1      26.349  26.296  -9.237  0.00  0.00     0.004 C 
BRANCH  22  23
HETATM   23  C   UNK N   1      25.378  25.270  -9.721  0.00  0.00     0.140 C 
BRANCH  23  24
HETATM   24  C   UNK N   1      24.502  25.879 -10.800  0.00  0.00     0.031 C 
HETATM   25  C   UNK N   1      25.337  26.712 -11.753  0.00  0.00     0.008 C 
ENDBRANCH  23  24
BRANCH  23  26
HETATM   26  O   UNK N   1      26.074  24.175 -10.241  0.00  0.00    -0.392 OA
HETATM   27  H   UNK N   1      26.882  24.156 -10.776  0.00  0.00     0.210 HD
ENDBRANCH  23  26
ENDBRANCH  22  23
ENDBRANCH  20  21
ENDBRANCH  18  19
ENDBRANCH  17  18
BRANCH  17  28
HETATM   28  O   UNK N   1      25.248  28.012  -3.196  0.00  0.00    -0.391 OA
HETATM   29  H   UNK N   1      24.557  28.162  -2.531  0.00  0.00     0.210 HD
ENDBRANCH  17  28
ENDBRANCH   1  17
TORSDOF 17
ENDMDL
