MODEL 1
REMARK VINA RESULT:      -7.3      0.000      0.000
REMARK  9 active torsions:
REMARK  status: ('A' for Active; 'I' for Inactive)
REMARK    1  A    between atoms: C_3  and  C_22 
REMARK       I    between atoms: N_4  and  C_6 
REMARK    2  A    between atoms: C_6  and  C_8 
REMARK    3  A    between atoms: C_8  and  C_9 
REMARK    4  A    between atoms: C_9  and  C_10 
REMARK    5  A    between atoms: C_10  and  C_11 
REMARK    6  A    between atoms: C_11  and  C_12 
REMARK       I    between atoms: C_12  and  N_14 
REMARK    7  A    between atoms: C_18  and  C_19 
REMARK    8  A    between atoms: C_19  and  O_21 
REMARK    9  A    between atoms: C_22  and  O_24 
ROOT
HETATM    1  C   UNK N   1      26.539  20.538   3.220  0.00  0.00     0.010 C 
ENDROOT
BRANCH   1   2
HETATM    2  C   UNK N   1      25.273  20.056   3.883  0.00  0.00     0.103 C 
BRANCH   2   3
HETATM    3  C   UNK N   1      23.953  20.222   3.160  0.00  0.00     0.220 C 
HETATM    4  N   UNK N   1      22.806  19.507   3.448  0.00  0.00    -0.338 N 
HETATM    5  C   UNK N   1      21.524  19.636   2.781  0.00  0.00     0.185 A 
HETATM    6  C   UNK N   1      22.751  18.514   4.487  0.00  0.00     0.127 A 
HETATM    7  C   UNK N   1      20.544  18.670   3.407  0.00  0.00     0.038 A 
HETATM    8  C   UNK N   1      21.332  17.955   4.498  0.00  0.00     0.022 A 
HETATM    9  O   UNK N   1      23.951  21.050   2.273  0.00  0.00    -0.273 OA
BRANCH   5  10
HETATM   10  C   UNK N   1      21.083  20.534   1.639  0.00  0.00     0.163 C 
HETATM   11  O   UNK N   1      20.860  20.029   0.551  0.00  0.00    -0.648 OA
BRANCH  10  12
HETATM   12  O   UNK N   1      20.927  21.861   1.772  0.00  0.00    -0.775 OA
HETATM   13  H   UNK N   1      20.575  22.365   1.064  0.00  0.00     0.167 HD
ENDBRANCH  10  12
ENDBRANCH   5  10
ENDBRANCH   2   3
ENDBRANCH   1   2
BRANCH   1  14
HETATM   14  C   UNK N   1      27.678  20.341   4.170  0.00  0.00     0.010 C 
BRANCH  14  15
HETATM   15  C   UNK N   1      27.590  18.949   4.742  0.00  0.00     0.103 C 
BRANCH  15  16
HETATM   16  C   UNK N   1      27.964  18.724   6.192  0.00  0.00     0.220 C 
HETATM   17  O   UNK N   1      27.229  19.246   7.002  0.00  0.00    -0.273 OA
HETATM   18  N   UNK N   1      29.053  17.985   6.614  0.00  0.00    -0.338 N 
HETATM   19  C   UNK N   1      29.959  17.344   5.699  0.00  0.00     0.127 A 
HETATM   20  C   UNK N   1      29.445  17.746   7.991  0.00  0.00     0.185 A 
HETATM   21  C   UNK N   1      31.017  16.635   6.538  0.00  0.00     0.022 A 
HETATM   22  C   UNK N   1      30.692  16.891   8.006  0.00  0.00     0.038 A 
BRANCH  20  23
HETATM   23  C   UNK N   1      28.821  18.203   9.297  0.00  0.00     0.163 C 
HETATM   24  O   UNK N   1      29.537  18.721  10.137  0.00  0.00    -0.648 OA
BRANCH  23  25
HETATM   25  O   UNK N   1      27.514  18.063   9.569  0.00  0.00    -0.775 OA
HETATM   26  H   UNK N   1      26.879  18.550   9.081  0.00  0.00     0.167 HD
ENDBRANCH  23  25
ENDBRANCH  20  23
ENDBRANCH  15  16
ENDBRANCH  14  15
ENDBRANCH   1  14
TORSDOF 9
ENDMDL
MODEL 2
REMARK VINA RESULT:      -6.8      0.855      8.569
REMARK  9 active torsions:
REMARK  status: ('A' for Active; 'I' for Inactive)
REMARK    1  A    between atoms: C_3  and  C_22 
REMARK       I    between atoms: N_4  and  C_6 
REMARK    2  A    between atoms: C_6  and  C_8 
REMARK    3  A    between atoms: C_8  and  C_9 
REMARK    4  A    between atoms: C_9  and  C_10 
REMARK    5  A    between atoms: C_10  and  C_11 
REMARK    6  A    between atoms: C_11  and  C_12 
REMARK       I    between atoms: C_12  and  N_14 
REMARK    7  A    between atoms: C_18  and  C_19 
REMARK    8  A    between atoms: C_19  and  O_21 
REMARK    9  A    between atoms: C_22  and  O_24 
ROOT
HETATM    1  C   UNK N   1      27.158  20.163   4.000  0.00  0.00     0.010 C 
ENDROOT
BRANCH   1   2
HETATM    2  C   UNK N   1      27.780  18.877   4.484  0.00  0.00     0.103 C 
BRANCH   2   3
HETATM    3  C   UNK N   1      28.075  18.712   5.960  0.00  0.00     0.220 C 
HETATM    4  N   UNK N   1      29.122  17.970   6.471  0.00  0.00    -0.338 N 
HETATM    5  C   UNK N   1      29.439  17.788   7.876  0.00  0.00     0.185 A 
HETATM    6  C   UNK N   1      30.056  17.267   5.634  0.00  0.00     0.127 A 
HETATM    7  C   UNK N   1      30.662  16.906   7.994  0.00  0.00     0.038 A 
HETATM    8  C   UNK N   1      31.054  16.575   6.559  0.00  0.00     0.022 A 
HETATM    9  O   UNK N   1      27.312  19.289   6.707  0.00  0.00    -0.273 OA
BRANCH   5  10
HETATM   10  C   UNK N   1      28.761  18.319   9.126  0.00  0.00     0.163 C 
HETATM   11  O   UNK N   1      29.446  18.861   9.977  0.00  0.00    -0.648 OA
BRANCH  10  12
HETATM   12  O   UNK N   1      27.439  18.220   9.337  0.00  0.00    -0.775 OA
HETATM   13  H   UNK N   1      26.857  18.861   8.978  0.00  0.00     0.167 HD
ENDBRANCH  10  12
ENDBRANCH   5  10
ENDBRANCH   2   3
ENDBRANCH   1   2
BRANCH   1  14
HETATM   14  C   UNK N   1      25.979  19.828   3.141  0.00  0.00     0.010 C 
BRANCH  14  15
HETATM   15  C   UNK N   1      24.764  20.521   3.703  0.00  0.00     0.103 C 
BRANCH  15  16
HETATM   16  C   UNK N   1      23.390  20.103   3.222  0.00  0.00     0.220 C 
HETATM   17  O   UNK N   1      22.877  20.849   2.415  0.00  0.00    -0.273 OA
HETATM   18  N   UNK N   1      22.726  18.966   3.641  0.00  0.00    -0.338 N 
HETATM   19  C   UNK N   1      23.285  18.047   4.595  0.00  0.00     0.127 A 
HETATM   20  C   UNK N   1      21.411  18.531   3.206  0.00  0.00     0.185 A 
HETATM   21  C   UNK N   1      22.263  16.933   4.797  0.00  0.00     0.022 A 
HETATM   22  C   UNK N   1      21.062  17.240   3.909  0.00  0.00     0.038 A 
BRANCH  20  23
HETATM   23  C   UNK N   1      20.432  19.152   2.224  0.00  0.00     0.163 C 
HETATM   24  O   UNK N   1      19.322  19.460   2.623  0.00  0.00    -0.648 OA
BRANCH  23  25
HETATM   25  O   UNK N   1      20.735  19.376   0.936  0.00  0.00    -0.775 OA
HETATM   26  H   UNK N   1      20.698  20.247   0.591  0.00  0.00     0.167 HD
ENDBRANCH  23  25
ENDBRANCH  20  23
ENDBRANCH  15  16
ENDBRANCH  14  15
ENDBRANCH   1  14
TORSDOF 9
ENDMDL
MODEL 3
REMARK VINA RESULT:      -6.7      1.825      2.346
REMARK  9 active torsions:
REMARK  status: ('A' for Active; 'I' for Inactive)
REMARK    1  A    between atoms: C_3  and  C_22 
REMARK       I    between atoms: N_4  and  C_6 
REMARK    2  A    between atoms: C_6  and  C_8 
REMARK    3  A    between atoms: C_8  and  C_9 
REMARK    4  A    between atoms: C_9  and  C_10 
REMARK    5  A    between atoms: C_10  and  C_11 
REMARK    6  A    between atoms: C_11  and  C_12 
REMARK       I    between atoms: C_12  and  N_14 
REMARK    7  A    between atoms: C_18  and  C_19 
REMARK    8  A    between atoms: C_19  and  O_21 
REMARK    9  A    between atoms: C_22  and  O_24 
ROOT
HETATM    1  C   UNK N   1      26.639  20.692   4.508  0.00  0.00     0.010 C 
ENDROOT
BRANCH   1   2
HETATM    2  C   UNK N   1      26.048  20.109   3.248  0.00  0.00     0.103 C 
BRANCH   2   3
HETATM    3  C   UNK N   1      24.555  20.214   3.018  0.00  0.00     0.220 C 
HETATM    4  N   UNK N   1      23.606  19.461   3.682  0.00  0.00    -0.338 N 
HETATM    5  C   UNK N   1      22.169  19.530   3.491  0.00  0.00     0.185 A 
HETATM    6  C   UNK N   1      23.949  18.481   4.677  0.00  0.00     0.127 A 
HETATM    7  C   UNK N   1      21.501  18.536   4.415  0.00  0.00     0.038 A 
HETATM    8  C   UNK N   1      22.643  17.868   5.172  0.00  0.00     0.022 A 
HETATM    9  O   UNK N   1      24.217  21.029   2.186  0.00  0.00    -0.273 OA
BRANCH   5  10
HETATM   10  C   UNK N   1      21.328  20.393   2.568  0.00  0.00     0.163 C 
HETATM   11  O   UNK N   1      20.560  19.847   1.795  0.00  0.00    -0.648 OA
BRANCH  10  12
HETATM   12  O   UNK N   1      21.392  21.735   2.565  0.00  0.00    -0.775 OA
HETATM   13  H   UNK N   1      20.869  22.227   1.963  0.00  0.00     0.167 HD
ENDBRANCH  10  12
ENDBRANCH   5  10
ENDBRANCH   2   3
ENDBRANCH   1   2
BRANCH   1  14
HETATM   14  C   UNK N   1      28.003  20.110   4.707  0.00  0.00     0.010 C 
BRANCH  14  15
HETATM   15  C   UNK N   1      27.855  18.654   5.068  0.00  0.00     0.103 C 
BRANCH  15  16
HETATM   16  C   UNK N   1      29.014  17.936   5.727  0.00  0.00     0.220 C 
HETATM   17  O   UNK N   1      29.800  17.415   4.963  0.00  0.00    -0.273 OA
HETATM   18  N   UNK N   1      29.209  17.851   7.092  0.00  0.00    -0.338 N 
HETATM   19  C   UNK N   1      28.311  18.449   8.043  0.00  0.00     0.127 A 
HETATM   20  C   UNK N   1      30.305  17.175   7.761  0.00  0.00     0.185 A 
HETATM   21  C   UNK N   1      28.859  18.140   9.432  0.00  0.00     0.022 A 
HETATM   22  C   UNK N   1      30.136  17.325   9.256  0.00  0.00     0.038 A 
BRANCH  20  23
HETATM   23  C   UNK N   1      31.490  16.407   7.203  0.00  0.00     0.163 C 
HETATM   24  O   UNK N   1      31.632  15.239   7.524  0.00  0.00    -0.648 OA
BRANCH  23  25
HETATM   25  O   UNK N   1      32.389  16.956   6.371  0.00  0.00    -0.775 OA
HETATM   26  H   UNK N   1      32.196  17.766   5.941  0.00  0.00     0.167 HD
ENDBRANCH  23  25
ENDBRANCH  20  23
ENDBRANCH  15  16
ENDBRANCH  14  15
ENDBRANCH   1  14
TORSDOF 9
ENDMDL
MODEL 4
REMARK VINA RESULT:      -6.5     10.015     15.569
REMARK  9 active torsions:
REMARK  status: ('A' for Active; 'I' for Inactive)
REMARK    1  A    between atoms: C_3  and  C_22 
REMARK       I    between atoms: N_4  and  C_6 
REMARK    2  A    between atoms: C_6  and  C_8 
REMARK    3  A    between atoms: C_8  and  C_9 
REMARK    4  A    between atoms: C_9  and  C_10 
REMARK    5  A    between atoms: C_10  and  C_11 
REMARK    6  A    between atoms: C_11  and  C_12 
REMARK       I    between atoms: C_12  and  N_14 
REMARK    7  A    between atoms: C_18  and  C_19 
REMARK    8  A    between atoms: C_19  and  O_21 
REMARK    9  A    between atoms: C_22  and  O_24 
ROOT
HETATM    1  C   UNK N   1      35.560  13.872  13.269  0.00  0.00     0.010 C 
ENDROOT
BRANCH   1   2
HETATM    2  C   UNK N   1      36.599  13.426  14.268  0.00  0.00     0.103 C 
BRANCH   2   3
HETATM    3  C   UNK N   1      36.216  13.316  15.729  0.00  0.00     0.220 C 
HETATM    4  N   UNK N   1      35.734  12.169  16.328  0.00  0.00    -0.338 N 
HETATM    5  C   UNK N   1      35.357  12.022  17.722  0.00  0.00     0.185 A 
HETATM    6  C   UNK N   1      35.545  10.938  15.609  0.00  0.00     0.127 A 
HETATM    7  C   UNK N   1      34.883  10.605  17.957  0.00  0.00     0.038 A 
HETATM    8  C   UNK N   1      35.005   9.916  16.604  0.00  0.00     0.022 A 
HETATM    9  O   UNK N   1      36.359  14.331  16.377  0.00  0.00    -0.273 OA
BRANCH   5  10
HETATM   10  C   UNK N   1      35.375  13.018  18.867  0.00  0.00     0.163 C 
HETATM   11  O   UNK N   1      35.731  12.636  19.969  0.00  0.00    -0.648 OA
BRANCH  10  12
HETATM   12  O   UNK N   1      35.015  14.304  18.722  0.00  0.00    -0.775 OA
HETATM   13  H   UNK N   1      35.647  14.939  18.446  0.00  0.00     0.167 HD
ENDBRANCH  10  12
ENDBRANCH   5  10
ENDBRANCH   2   3
ENDBRANCH   1   2
BRANCH   1  14
HETATM   14  C   UNK N   1      36.097  15.051  12.519  0.00  0.00     0.010 C 
BRANCH  14  15
HETATM   15  C   UNK N   1      35.929  14.797  11.043  0.00  0.00     0.103 C 
BRANCH  15  16
HETATM   16  C   UNK N   1      35.415  15.913  10.157  0.00  0.00     0.220 C 
HETATM   17  O   UNK N   1      35.283  16.987  10.705  0.00  0.00    -0.273 OA
HETATM   18  N   UNK N   1      35.106  15.772   8.818  0.00  0.00    -0.338 N 
HETATM   19  C   UNK N   1      35.243  14.523   8.118  0.00  0.00     0.127 A 
HETATM   20  C   UNK N   1      34.612  16.813   7.937  0.00  0.00     0.185 A 
HETATM   21  C   UNK N   1      34.809  14.768   6.676  0.00  0.00     0.022 A 
HETATM   22  C   UNK N   1      34.404  16.233   6.557  0.00  0.00     0.038 A 
BRANCH  20  23
HETATM   23  C   UNK N   1      34.307  18.278   8.200  0.00  0.00     0.163 C 
HETATM   24  O   UNK N   1      33.146  18.648   8.158  0.00  0.00    -0.648 OA
BRANCH  23  25
HETATM   25  O   UNK N   1      35.258  19.183   8.478  0.00  0.00    -0.775 OA
HETATM   26  H   UNK N   1      35.092  20.095   8.340  0.00  0.00     0.167 HD
ENDBRANCH  23  25
ENDBRANCH  20  23
ENDBRANCH  15  16
ENDBRANCH  14  15
ENDBRANCH   1  14
TORSDOF 9
ENDMDL
MODEL 5
REMARK VINA RESULT:      -6.4      5.449      7.333
REMARK  9 active torsions:
REMARK  status: ('A' for Active; 'I' for Inactive)
REMARK    1  A    between atoms: C_3  and  C_22 
REMARK       I    between atoms: N_4  and  C_6 
REMARK    2  A    between atoms: C_6  and  C_8 
REMARK    3  A    between atoms: C_8  and  C_9 
REMARK    4  A    between atoms: C_9  and  C_10 
REMARK    5  A    between atoms: C_10  and  C_11 
REMARK    6  A    between atoms: C_11  and  C_12 
REMARK       I    between atoms: C_12  and  N_14 
REMARK    7  A    between atoms: C_18  and  C_19 
REMARK    8  A    between atoms: C_19  and  O_21 
REMARK    9  A    between atoms: C_22  and  O_24 
ROOT
HETATM    1  C   UNK N   1      31.467  16.193   4.090  0.00  0.00     0.010 C 
ENDROOT
BRANCH   1   2
HETATM    2  C   UNK N   1      30.035  16.204   4.566  0.00  0.00     0.103 C 
BRANCH   2   3
HETATM    3  C   UNK N   1      29.724  16.733   5.950  0.00  0.00     0.220 C 
HETATM    4  N   UNK N   1      28.978  17.868   6.206  0.00  0.00    -0.338 N 
HETATM    5  C   UNK N   1      28.658  18.408   7.514  0.00  0.00     0.185 A 
HETATM    6  C   UNK N   1      28.412  18.677   5.160  0.00  0.00     0.127 A 
HETATM    7  C   UNK N   1      27.824  19.657   7.341  0.00  0.00     0.038 A 
HETATM    8  C   UNK N   1      27.669  19.826   5.834  0.00  0.00     0.022 A 
HETATM    9  O   UNK N   1      30.181  16.083   6.867  0.00  0.00    -0.273 OA
BRANCH   5  10
HETATM   10  C   UNK N   1      29.019  17.922   8.906  0.00  0.00     0.163 C 
HETATM   11  O   UNK N   1      28.122  17.579   9.657  0.00  0.00    -0.648 OA
BRANCH  10  12
HETATM   12  O   UNK N   1      30.285  17.854   9.349  0.00  0.00    -0.775 OA
HETATM   13  H   UNK N   1      30.562  17.121   9.865  0.00  0.00     0.167 HD
ENDBRANCH  10  12
ENDBRANCH   5  10
ENDBRANCH   2   3
ENDBRANCH   1   2
BRANCH   1  14
HETATM   14  C   UNK N   1      31.990  17.595   4.124  0.00  0.00     0.010 C 
BRANCH  14  15
HETATM   15  C   UNK N   1      33.391  17.571   4.680  0.00  0.00     0.103 C 
BRANCH  15  16
HETATM   16  C   UNK N   1      33.598  17.225   6.140  0.00  0.00     0.220 C 
HETATM   17  O   UNK N   1      32.988  17.919   6.926  0.00  0.00    -0.273 OA
HETATM   18  N   UNK N   1      34.410  16.205   6.596  0.00  0.00    -0.338 N 
HETATM   19  C   UNK N   1      35.155  15.351   5.710  0.00  0.00     0.127 A 
HETATM   20  C   UNK N   1      34.635  15.842   7.983  0.00  0.00     0.185 A 
HETATM   21  C   UNK N   1      35.921  14.361   6.581  0.00  0.00     0.022 A 
HETATM   22  C   UNK N   1      35.590  14.672   8.037  0.00  0.00     0.038 A 
BRANCH  20  23
HETATM   23  C   UNK N   1      34.083  16.434   9.268  0.00  0.00     0.163 C 
HETATM   24  O   UNK N   1      34.838  17.062   9.992  0.00  0.00    -0.648 OA
BRANCH  23  25
HETATM   25  O   UNK N   1      32.802  16.297   9.643  0.00  0.00    -0.775 OA
HETATM   26  H   UNK N   1      32.365  15.475   9.529  0.00  0.00     0.167 HD
ENDBRANCH  23  25
ENDBRANCH  20  23
ENDBRANCH  15  16
ENDBRANCH  14  15
ENDBRANCH   1  14
TORSDOF 9
ENDMDL
MODEL 6
REMARK VINA RESULT:      -6.4     10.911     12.961
REMARK  9 active torsions:
REMARK  status: ('A' for Active; 'I' for Inactive)
REMARK    1  A    between atoms: C_3  and  C_22 
REMARK       I    between atoms: N_4  and  C_6 
REMARK    2  A    between atoms: C_6  and  C_8 
REMARK    3  A    between atoms: C_8  and  C_9 
REMARK    4  A    between atoms: C_9  and  C_10 
REMARK    5  A    between atoms: C_10  and  C_11 
REMARK    6  A    between atoms: C_11  and  C_12 
REMARK       I    between atoms: C_12  and  N_14 
REMARK    7  A    between atoms: C_18  and  C_19 
REMARK    8  A    between atoms: C_19  and  O_21 
REMARK    9  A    between atoms: C_22  and  O_24 
ROOT
HETATM    1  C   UNK N   1      25.561  26.154  -6.158  0.00  0.00     0.010 C 
ENDROOT
BRANCH   1   2
HETATM    2  C   UNK N   1      24.916  27.244  -5.338  0.00  0.00     0.103 C 
BRANCH   2   3
HETATM    3  C   UNK N   1      25.781  28.085  -4.422  0.00  0.00     0.220 C 
HETATM    4  N   UNK N   1      26.886  28.806  -4.831  0.00  0.00    -0.338 N 
HETATM    5  C   UNK N   1      27.739  29.622  -3.987  0.00  0.00     0.185 A 
HETATM    6  C   UNK N   1      27.335  28.830  -6.197  0.00  0.00     0.127 A 
HETATM    7  C   UNK N   1      28.830  30.234  -4.835  0.00  0.00     0.038 A 
HETATM    8  C   UNK N   1      28.568  29.726  -6.248  0.00  0.00     0.022 A 
HETATM    9  O   UNK N   1      25.441  28.095  -3.257  0.00  0.00    -0.273 OA
BRANCH   5  10
HETATM   10  C   UNK N   1      27.680  29.912  -2.498  0.00  0.00     0.163 C 
HETATM   11  O   UNK N   1      27.838  31.060  -2.119  0.00  0.00    -0.648 OA
BRANCH  10  12
HETATM   12  O   UNK N   1      27.462  28.959  -1.577  0.00  0.00    -0.775 OA
HETATM   13  H   UNK N   1      28.177  28.447  -1.253  0.00  0.00     0.167 HD
ENDBRANCH  10  12
ENDBRANCH   5  10
ENDBRANCH   2   3
ENDBRANCH   1   2
BRANCH   1  14
HETATM   14  C   UNK N   1      25.612  24.906  -5.334  0.00  0.00     0.010 C 
BRANCH  14  15
HETATM   15  C   UNK N   1      26.806  24.094  -5.767  0.00  0.00     0.103 C 
BRANCH  15  16
HETATM   16  C   UNK N   1      27.988  23.966  -4.829  0.00  0.00     0.220 C 
HETATM   17  O   UNK N   1      27.983  24.726  -3.884  0.00  0.00    -0.273 OA
HETATM   18  N   UNK N   1      29.023  23.065  -4.992  0.00  0.00    -0.338 N 
HETATM   19  C   UNK N   1      29.082  22.141  -6.093  0.00  0.00     0.127 A 
HETATM   20  C   UNK N   1      30.172  22.911  -4.119  0.00  0.00     0.185 A 
HETATM   21  C   UNK N   1      30.360  21.325  -5.925  0.00  0.00     0.022 A 
HETATM   22  C   UNK N   1      31.060  21.815  -4.663  0.00  0.00     0.038 A 
BRANCH  20  23
HETATM   23  C   UNK N   1      30.559  23.642  -2.846  0.00  0.00     0.163 C 
HETATM   24  O   UNK N   1      30.697  22.996  -1.820  0.00  0.00    -0.648 OA
BRANCH  23  25
HETATM   25  O   UNK N   1      30.757  24.969  -2.798  0.00  0.00    -0.775 OA
HETATM   26  H   UNK N   1      30.087  25.531  -2.462  0.00  0.00     0.167 HD
ENDBRANCH  23  25
ENDBRANCH  20  23
ENDBRANCH  15  16
ENDBRANCH  14  15
ENDBRANCH   1  14
TORSDOF 9
ENDMDL
MODEL 7
REMARK VINA RESULT:      -6.3      1.874      8.515
REMARK  9 active torsions:
REMARK  status: ('A' for Active; 'I' for Inactive)
REMARK    1  A    between atoms: C_3  and  C_22 
REMARK       I    between atoms: N_4  and  C_6 
REMARK    2  A    between atoms: C_6  and  C_8 
REMARK    3  A    between atoms: C_8  and  C_9 
REMARK    4  A    between atoms: C_9  and  C_10 
REMARK    5  A    between atoms: C_10  and  C_11 
REMARK    6  A    between atoms: C_11  and  C_12 
REMARK       I    between atoms: C_12  and  N_14 
REMARK    7  A    between atoms: C_18  and  C_19 
REMARK    8  A    between atoms: C_19  and  O_21 
REMARK    9  A    between atoms: C_22  and  O_24 
ROOT
HETATM    1  C   UNK N   1      27.079  20.082   3.942  0.00  0.00     0.010 C 
ENDROOT
BRANCH   1   2
HETATM    2  C   UNK N   1      27.848  18.874   4.417  0.00  0.00     0.103 C 
BRANCH   2   3
HETATM    3  C   UNK N   1      28.135  18.719   5.896  0.00  0.00     0.220 C 
HETATM    4  N   UNK N   1      29.142  17.931   6.420  0.00  0.00    -0.338 N 
HETATM    5  C   UNK N   1      29.449  17.755   7.827  0.00  0.00     0.185 A 
HETATM    6  C   UNK N   1      30.037  17.164   5.595  0.00  0.00     0.127 A 
HETATM    7  C   UNK N   1      30.624  16.812   7.961  0.00  0.00     0.038 A 
HETATM    8  C   UNK N   1      30.996  16.436   6.531  0.00  0.00     0.022 A 
HETATM    9  O   UNK N   1      27.405  19.348   6.632  0.00  0.00    -0.273 OA
BRANCH   5  10
HETATM   10  C   UNK N   1      28.802  18.343   9.068  0.00  0.00     0.163 C 
HETATM   11  O   UNK N   1      29.517  18.840   9.921  0.00  0.00    -0.648 OA
BRANCH  10  12
HETATM   12  O   UNK N   1      27.474  18.342   9.268  0.00  0.00    -0.775 OA
HETATM   13  H   UNK N   1      26.890  18.262   8.540  0.00  0.00     0.167 HD
ENDBRANCH  10  12
ENDBRANCH   5  10
ENDBRANCH   2   3
ENDBRANCH   1   2
BRANCH   1  14
HETATM   14  C   UNK N   1      25.879  19.612   3.181  0.00  0.00     0.010 C 
BRANCH  14  15
HETATM   15  C   UNK N   1      24.641  20.085   3.900  0.00  0.00     0.103 C 
BRANCH  15  16
HETATM   16  C   UNK N   1      23.477  19.130   4.068  0.00  0.00     0.220 C 
HETATM   17  O   UNK N   1      23.688  18.181   4.792  0.00  0.00    -0.273 OA
HETATM   18  N   UNK N   1      22.245  19.284   3.463  0.00  0.00    -0.338 N 
HETATM   19  C   UNK N   1      21.938  20.389   2.595  0.00  0.00     0.127 A 
HETATM   20  C   UNK N   1      21.106  18.394   3.597  0.00  0.00     0.185 A 
HETATM   21  C   UNK N   1      20.497  20.208   2.129  0.00  0.00     0.022 A 
HETATM   22  C   UNK N   1      19.961  18.932   2.769  0.00  0.00     0.038 A 
BRANCH  20  23
HETATM   23  C   UNK N   1      20.935  17.111   4.390  0.00  0.00     0.163 C 
HETATM   24  O   UNK N   1      20.654  16.087   3.790  0.00  0.00    -0.648 OA
BRANCH  23  25
HETATM   25  O   UNK N   1      21.077  17.052   5.723  0.00  0.00    -0.775 OA
HETATM   26  H   UNK N   1      20.840  16.273   6.187  0.00  0.00     0.167 HD
ENDBRANCH  23  25
ENDBRANCH  20  23
ENDBRANCH  15  16
ENDBRANCH  14  15
ENDBRANCH   1  14
TORSDOF 9
ENDMDL
MODEL 8
REMARK VINA RESULT:      -6.1      5.232      6.490
REMARK  9 active torsions:
REMARK  status: ('A' for Active; 'I' for Inactive)
REMARK    1  A    between atoms: C_3  and  C_22 
REMARK       I    between atoms: N_4  and  C_6 
REMARK    2  A    between atoms: C_6  and  C_8 
REMARK    3  A    between atoms: C_8  and  C_9 
REMARK    4  A    between atoms: C_9  and  C_10 
REMARK    5  A    between atoms: C_10  and  C_11 
REMARK    6  A    between atoms: C_11  and  C_12 
REMARK       I    between atoms: C_12  and  N_14 
REMARK    7  A    between atoms: C_18  and  C_19 
REMARK    8  A    between atoms: C_19  and  O_21 
REMARK    9  A    between atoms: C_22  and  O_24 
ROOT
HETATM    1  C   UNK N   1      20.992  17.446   6.447  0.00  0.00     0.010 C 
ENDROOT
BRANCH   1   2
HETATM    2  C   UNK N   1      22.018  17.621   5.355  0.00  0.00     0.103 C 
BRANCH   2   3
HETATM    3  C   UNK N   1      21.673  18.470   4.149  0.00  0.00     0.220 C 
HETATM    4  N   UNK N   1      21.094  17.987   2.992  0.00  0.00    -0.338 N 
HETATM    5  C   UNK N   1      20.748  18.765   1.817  0.00  0.00     0.185 A 
HETATM    6  C   UNK N   1      20.753  16.601   2.813  0.00  0.00     0.127 A 
HETATM    7  C   UNK N   1      20.136  17.848   0.781  0.00  0.00     0.038 A 
HETATM    8  C   UNK N   1      20.142  16.465   1.422  0.00  0.00     0.022 A 
HETATM    9  O   UNK N   1      21.942  19.648   4.253  0.00  0.00    -0.273 OA
BRANCH   5  10
HETATM   10  C   UNK N   1      20.906  20.245   1.522  0.00  0.00     0.163 C 
HETATM   11  O   UNK N   1      21.295  20.583   0.416  0.00  0.00    -0.648 OA
BRANCH  10  12
HETATM   12  O   UNK N   1      20.638  21.203   2.425  0.00  0.00    -0.775 OA
HETATM   13  H   UNK N   1      20.490  20.973   3.321  0.00  0.00     0.167 HD
ENDBRANCH  10  12
ENDBRANCH   5  10
ENDBRANCH   2   3
ENDBRANCH   1   2
BRANCH   1  14
HETATM   14  C   UNK N   1      20.502  16.032   6.417  0.00  0.00     0.010 C 
BRANCH  14  15
HETATM   15  C   UNK N   1      20.568  15.472   7.815  0.00  0.00     0.103 C 
BRANCH  15  16
HETATM   16  C   UNK N   1      21.785  14.675   8.233  0.00  0.00     0.220 C 
HETATM   17  O   UNK N   1      22.788  14.884   7.583  0.00  0.00    -0.273 OA
HETATM   18  N   UNK N   1      21.806  13.764   9.271  0.00  0.00    -0.338 N 
HETATM   19  C   UNK N   1      20.649  13.476  10.075  0.00  0.00     0.127 A 
HETATM   20  C   UNK N   1      22.950  12.981   9.703  0.00  0.00     0.185 A 
HETATM   21  C   UNK N   1      21.067  12.431  11.105  0.00  0.00     0.022 A 
HETATM   22  C   UNK N   1      22.539  12.112  10.869  0.00  0.00     0.038 A 
BRANCH  20  23
HETATM   23  C   UNK N   1      24.374  12.929   9.180  0.00  0.00     0.163 C 
HETATM   24  O   UNK N   1      25.280  13.283   9.916  0.00  0.00    -0.648 OA
BRANCH  23  25
HETATM   25  O   UNK N   1      24.683  12.511   7.942  0.00  0.00    -0.775 OA
HETATM   26  H   UNK N   1      25.302  12.989   7.427  0.00  0.00     0.167 HD
ENDBRANCH  23  25
ENDBRANCH  20  23
ENDBRANCH  15  16
ENDBRANCH  14  15
ENDBRANCH   1  14
TORSDOF 9
ENDMDL
MODEL 9
REMARK VINA RESULT:      -6.1      4.694      9.080
REMARK  9 active torsions:
REMARK  status: ('A' for Active; 'I' for Inactive)
REMARK    1  A    between atoms: C_3  and  C_22 
REMARK       I    between atoms: N_4  and  C_6 
REMARK    2  A    between atoms: C_6  and  C_8 
REMARK    3  A    between atoms: C_8  and  C_9 
REMARK    4  A    between atoms: C_9  and  C_10 
REMARK    5  A    between atoms: C_10  and  C_11 
REMARK    6  A    between atoms: C_11  and  C_12 
REMARK       I    between atoms: C_12  and  N_14 
REMARK    7  A    between atoms: C_18  and  C_19 
REMARK    8  A    between atoms: C_19  and  O_21 
REMARK    9  A    between atoms: C_22  and  O_24 
ROOT
HETATM    1  C   UNK N   1      24.682  15.508   5.642  0.00  0.00     0.010 C 
ENDROOT
BRANCH   1   2
HETATM    2  C   UNK N   1      23.354  15.216   6.294  0.00  0.00     0.103 C 
BRANCH   2   3
HETATM    3  C   UNK N   1      23.274  14.132   7.350  0.00  0.00     0.220 C 
HETATM    4  N   UNK N   1      22.254  14.013   8.274  0.00  0.00    -0.338 N 
HETATM    5  C   UNK N   1      22.141  12.992   9.299  0.00  0.00     0.185 A 
HETATM    6  C   UNK N   1      21.143  14.924   8.326  0.00  0.00     0.127 A 
HETATM    7  C   UNK N   1      20.875  13.229  10.092  0.00  0.00     0.038 A 
HETATM    8  C   UNK N   1      20.240  14.465   9.467  0.00  0.00     0.022 A 
HETATM    9  O   UNK N   1      24.191  13.338   7.344  0.00  0.00    -0.273 OA
BRANCH   5  10
HETATM   10  C   UNK N   1      23.047  11.824   9.644  0.00  0.00     0.163 C 
HETATM   11  O   UNK N   1      23.475  11.732  10.782  0.00  0.00    -0.648 OA
BRANCH  10  12
HETATM   12  O   UNK N   1      23.400  10.885   8.751  0.00  0.00    -0.775 OA
HETATM   13  H   UNK N   1      22.896  10.769   7.969  0.00  0.00     0.167 HD
ENDBRANCH  10  12
ENDBRANCH   5  10
ENDBRANCH   2   3
ENDBRANCH   1   2
BRANCH   1  14
HETATM   14  C   UNK N   1      24.455  16.451   4.502  0.00  0.00     0.010 C 
BRANCH  14  15
HETATM   15  C   UNK N   1      23.869  17.729   5.047  0.00  0.00     0.103 C 
BRANCH  15  16
HETATM   16  C   UNK N   1      23.110  18.649   4.113  0.00  0.00     0.220 C 
HETATM   17  O   UNK N   1      23.728  19.620   3.730  0.00  0.00    -0.273 OA
HETATM   18  N   UNK N   1      21.809  18.443   3.697  0.00  0.00    -0.338 N 
HETATM   19  C   UNK N   1      21.029  17.310   4.118  0.00  0.00     0.127 A 
HETATM   20  C   UNK N   1      21.048  19.298   2.805  0.00  0.00     0.185 A 
HETATM   21  C   UNK N   1      19.662  17.435   3.454  0.00  0.00     0.022 A 
HETATM   22  C   UNK N   1      19.671  18.706   2.612  0.00  0.00     0.038 A 
BRANCH  20  23
HETATM   23  C   UNK N   1      21.426  20.591   2.104  0.00  0.00     0.163 C 
HETATM   24  O   UNK N   1      21.431  20.615   0.885  0.00  0.00    -0.648 OA
BRANCH  23  25
HETATM   25  O   UNK N   1      21.754  21.711   2.768  0.00  0.00    -0.775 OA
HETATM   26  H   UNK N   1      22.169  21.654   3.606  0.00  0.00     0.167 HD
ENDBRANCH  23  25
ENDBRANCH  20  23
ENDBRANCH  15  16
ENDBRANCH  14  15
ENDBRANCH   1  14
TORSDOF 9
ENDMDL
