REMARK  5 active torsions:
REMARK  status: ('A' for Active; 'I' for Inactive)
REMARK    1  A    between atoms: C_10  and  C_8 
REMARK    2  A    between atoms: C_8  and  O_21 
REMARK    3  A    between atoms: S_25  and  C_9 
REMARK    4  A    between atoms: C_15  and  C_12 
REMARK    5  A    between atoms: S_25  and  C_13 
ROOT
HETATM    1  C   UNK N   1       2.947   6.308   1.323  0.00  0.00     0.017 C 
HETATM    2  C   UNK N   1       2.838   5.615  -0.025  0.00  0.00     0.043 C 
HETATM    3  C   UNK N   1       0.136   5.221   0.632  0.00  0.00     0.120 A 
HETATM    4  C   UNK N   1       1.358   5.295  -0.426  0.00  0.00     0.095 A 
HETATM    5  C   UNK N   1       2.617   3.293  -0.172  0.00  0.00     0.108 C 
HETATM    6  C   UNK N   1       3.524   4.254   0.005  0.00  0.00     0.013 C 
HETATM    7  C   UNK N   1       0.355   3.757   0.458  0.00  0.00     0.213 A 
HETATM    8  N   UNK N   1       1.360   3.869  -0.379  0.00  0.00    -0.206 NA
HETATM    9  O   UNK N   1       0.256   2.887   1.311  0.00  0.00    -0.279 OA
ENDROOT
BRANCH   6  10
HETATM   10  S   UNK N   1       5.286   3.927   0.340  0.00  0.00    -0.123 SA
BRANCH  10  11
HETATM   11  C   UNK N   1       6.193   5.457  -0.125  0.00  0.00     0.092 C 
HETATM   12  C   UNK N   1       6.763   6.273   1.059  0.00  0.00     0.167 C 
HETATM   13  N   UNK N   1       6.701   7.600   0.511  0.00  0.00    -0.283 N 
HETATM   14  C   UNK N   1       7.073   8.823   0.909  0.00  0.00     0.201 A 
HETATM   15  N   UNK N   1       6.131   7.691  -0.646  0.00  0.00    -0.283 N 
HETATM   16  N   UNK N   1       6.719   9.725  -0.044  0.00  0.00    -0.346 N 
HETATM   17  C   UNK N   1       6.121   8.981  -1.014  0.00  0.00     0.201 A 
ATOM     18  HN  UNK N   1       6.868  10.734  -0.035  1.00  0.00     0.167 HD
HETATM   19  C   UNK N   1       5.670   6.443  -1.203  0.00  0.00     0.167 C 
ENDBRANCH  10  11
ENDBRANCH   6  10
BRANCH   5  20
HETATM   20  C   UNK N   1       2.836   1.820  -0.118  0.00  0.00     0.222 C 
HETATM   21  O   UNK N   1       1.897   1.062  -0.299  0.00  0.00    -0.643 OA
HETATM   22  O   UNK N   1       4.054   1.305   0.138  0.00  0.00    -0.643 OA
ENDBRANCH   5  20
BRANCH   3  23
HETATM   23  C   UNK N   1      -1.175   5.757   0.053  0.00  0.00     0.128 C 
HETATM   24  C   UNK N   1      -2.342   5.386   0.949  0.00  0.00     0.040 C 
BRANCH  23  25
HETATM   25  O   UNK N   1      -1.098   7.147  -0.035  0.00  0.00    -0.395 OA
HETATM   26  H   UNK N   1      -0.235   7.584  -0.096  0.00  0.00     0.210 HD
ENDBRANCH  23  25
ENDBRANCH   3  23
TORSDOF 5
