MODEL 1
REMARK VINA RESULT:     -10.5      0.000      0.000
REMARK  5 active torsions:
REMARK  status: ('A' for Active; 'I' for Inactive)
REMARK    1  A    between atoms: C_19  and  C_20 
REMARK    2  A    between atoms: C_20  and  C_22 
REMARK    3  A    between atoms: C_22  and  N_23 
REMARK    4  A    between atoms: N_26  and  C_29 
REMARK    5  A    between atoms: C_31  and  N_42 
REMARK       I    between atoms: C_34  and  N_37 
ROOT
HETATM    1  N   UNK N   1      36.213  13.755   9.335  0.00  0.00     0.098 N 
HETATM    2  C   UNK N   1      37.209  14.135  10.356  0.00  0.00     0.292 C 
HETATM    3  C   UNK N   1      37.597  12.976  11.278  0.00  0.00     0.154 C 
HETATM    4  N   UNK N   1      36.404  12.223  11.597  0.00  0.00    -0.363 N 
HETATM    5  C   UNK N   1      35.544  11.745  10.536  0.00  0.00     0.154 C 
HETATM    6  C   UNK N   1      36.007  12.306   9.207  0.00  0.00     0.292 C 
ENDROOT
BRANCH   1   7
HETATM    7  C   UNK N   1      34.947  14.435   9.614  0.00  0.00     0.350 C 
BRANCH   7   8
HETATM    8  C   UNK N   1      34.944  15.849   9.088  0.00  0.00     0.160 C 
HETATM    9  O   UNK N   1      35.381  16.734   9.807  0.00  0.00    -0.296 OA
BRANCH   8  10
HETATM   10  C   UNK N   1      34.429  16.212   7.699  0.00  0.00     0.069 C 
HETATM   11  C   UNK N   1      33.076  16.906   7.587  0.00  0.00    -0.026 C 
HETATM   12  C   UNK N   1      31.994  16.165   8.399  0.00  0.00     0.038 C 
HETATM   13  C   UNK N   1      32.765  16.788   6.102  0.00  0.00     0.003 C 
HETATM   14  C   UNK N   1      33.169  18.388   7.938  0.00  0.00     0.016 C 
HETATM   15  C   UNK N   1      30.664  16.791   8.173  0.00  0.00    -0.021 C 
HETATM   16  C   UNK N   1      30.303  17.162   6.938  0.00  0.00    -0.063 C 
HETATM   17  C   UNK N   1      28.937  17.784   6.728  0.00  0.00     0.021 C 
HETATM   18  C   UNK N   1      31.257  16.897   5.769  0.00  0.00     0.021 C 
HETATM   19  C   UNK N   1      28.728  18.990   7.631  0.00  0.00    -0.004 C 
HETATM   20  C   UNK N   1      28.674  18.155   5.272  0.00  0.00    -0.060 C 
HETATM   21  C   UNK N   1      27.880  16.756   7.126  0.00  0.00     0.029 C 
HETATM   22  C   UNK N   1      27.741  19.862   7.371  0.00  0.00     0.052 C 
HETATM   23  C   UNK N   1      27.058  19.797   6.063  0.00  0.00     0.172 C 
HETATM   24  C   UNK N   1      27.711  19.042   4.969  0.00  0.00     0.059 C 
HETATM   25  O   UNK N   1      26.057  20.459   5.850  0.00  0.00    -0.289 OA
HETATM   26  C   UNK N   1      29.453  17.499   4.175  0.00  0.00     0.036 C 
HETATM   27  C   UNK N   1      30.938  17.640   4.478  0.00  0.00     0.014 C 
HETATM   28  C   UNK N   1      33.362  15.453   5.655  0.00  0.00     0.011 C 
HETATM   29  C   UNK N   1      34.284  15.002   6.790  0.00  0.00    -0.006 C 
HETATM   30  C   UNK N   1      35.626  14.537   6.258  0.00  0.00     0.011 C 
ENDBRANCH   8  10
ENDBRANCH   7   8
ENDBRANCH   1   7
BRANCH   4  31
HETATM   31  C   UNK N   1      36.083  11.895  12.930  0.00  0.00     0.122 A 
HETATM   32  C   UNK N   1      35.905  12.890  13.879  0.00  0.00     0.097 A 
HETATM   33  C   UNK N   1      35.742  12.530  15.214  0.00  0.00     0.122 A 
HETATM   34  N   UNK N   1      35.716  11.206  15.556  0.00  0.00    -0.177 N 
HETATM   35  C   UNK N   1      35.849  10.237  14.600  0.00  0.00     0.683 A 
ATOM     36  HN  UNK N   1      35.597  10.938  16.533  1.00  0.00     0.186 HD
HETATM   37  N   UNK N   1      36.055  10.595  13.311  0.00  0.00    -0.177 N 
HETATM   38  N   UNK N   1      35.821   8.860  14.940  0.00  0.00    -0.217 N 
ATOM     39  HN  UNK N   1      36.192   9.868  12.609  1.00  0.00     0.186 HD
HETATM   40  C   UNK N   1      35.706   8.388  16.284  0.00  0.00     0.141 C 
HETATM   41  C   UNK N   1      35.936   7.839  13.939  0.00  0.00     0.141 C 
HETATM   42  C   UNK N   1      35.844   6.878  16.179  0.00  0.00     0.022 C 
HETATM   43  C   UNK N   1      35.828   6.528  14.692  0.00  0.00     0.022 C 
BRANCH  33  44
HETATM   44  N   UNK N   1      35.731  13.543  16.210  0.00  0.00    -0.367 N 
HETATM   45  C   UNK N   1      36.678  14.622  16.203  0.00  0.00     0.124 A 
HETATM   46  C   UNK N   1      36.515  15.312  17.541  0.00  0.00     0.021 A 
HETATM   47  C   UNK N   1      35.466  14.522  18.321  0.00  0.00     0.021 A 
HETATM   48  C   UNK N   1      34.938  13.437  17.396  0.00  0.00     0.124 A 
ENDBRANCH  33  44
ENDBRANCH   4  31
TORSDOF 5
ENDMDL
MODEL 2
REMARK VINA RESULT:     -10.3      2.176      4.425
REMARK  5 active torsions:
REMARK  status: ('A' for Active; 'I' for Inactive)
REMARK    1  A    between atoms: C_19  and  C_20 
REMARK    2  A    between atoms: C_20  and  C_22 
REMARK    3  A    between atoms: C_22  and  N_23 
REMARK    4  A    between atoms: N_26  and  C_29 
REMARK    5  A    between atoms: C_31  and  N_42 
REMARK       I    between atoms: C_34  and  N_37 
ROOT
HETATM    1  N   UNK N   1      33.626  16.230   8.714  0.00  0.00     0.098 N 
HETATM    2  C   UNK N   1      32.995  15.148   9.495  0.00  0.00     0.292 C 
HETATM    3  C   UNK N   1      33.596  14.987  10.894  0.00  0.00     0.154 C 
HETATM    4  N   UNK N   1      35.031  15.142  10.798  0.00  0.00    -0.363 N 
HETATM    5  C   UNK N   1      35.592  16.308  10.150  0.00  0.00     0.154 C 
HETATM    6  C   UNK N   1      34.486  17.119   9.507  0.00  0.00     0.292 C 
ENDROOT
BRANCH   1   7
HETATM    7  C   UNK N   1      34.371  15.650   7.596  0.00  0.00     0.350 C 
BRANCH   7   8
HETATM    8  C   UNK N   1      34.034  16.325   6.289  0.00  0.00     0.160 C 
HETATM    9  O   UNK N   1      34.620  17.358   6.005  0.00  0.00    -0.296 OA
BRANCH   8  10
HETATM   10  C   UNK N   1      33.004  15.766   5.313  0.00  0.00     0.069 C 
HETATM   11  C   UNK N   1      31.741  16.579   5.050  0.00  0.00    -0.026 C 
HETATM   12  C   UNK N   1      31.069  17.019   6.366  0.00  0.00     0.038 C 
HETATM   13  C   UNK N   1      30.845  15.577   4.334  0.00  0.00     0.003 C 
HETATM   14  C   UNK N   1      32.005  17.744   4.101  0.00  0.00     0.016 C 
HETATM   15  C   UNK N   1      29.779  17.701   6.081  0.00  0.00    -0.021 C 
HETATM   16  C   UNK N   1      28.953  17.204   5.153  0.00  0.00    -0.063 C 
HETATM   17  C   UNK N   1      27.636  17.907   4.889  0.00  0.00     0.021 C 
HETATM   18  C   UNK N   1      29.337  15.912   4.425  0.00  0.00     0.021 C 
HETATM   19  C   UNK N   1      27.845  19.375   4.555  0.00  0.00    -0.004 C 
HETATM   20  C   UNK N   1      26.808  17.224   3.805  0.00  0.00    -0.060 C 
HETATM   21  C   UNK N   1      26.810  17.868   6.173  0.00  0.00     0.029 C 
HETATM   22  C   UNK N   1      26.859  20.081   3.976  0.00  0.00     0.052 C 
HETATM   23  C   UNK N   1      25.698  19.357   3.417  0.00  0.00     0.172 C 
HETATM   24  C   UNK N   1      25.827  17.901   3.184  0.00  0.00     0.059 C 
HETATM   25  O   UNK N   1      24.714  19.965   3.031  0.00  0.00    -0.289 OA
HETATM   26  C   UNK N   1      27.054  15.788   3.462  0.00  0.00     0.036 C 
HETATM   27  C   UNK N   1      28.535  15.601   3.168  0.00  0.00     0.014 C 
HETATM   28  C   UNK N   1      31.175  14.214   4.942  0.00  0.00     0.011 C 
HETATM   29  C   UNK N   1      32.470  14.407   5.735  0.00  0.00    -0.006 C 
HETATM   30  C   UNK N   1      33.464  13.299   5.443  0.00  0.00     0.011 C 
ENDBRANCH   8  10
ENDBRANCH   7   8
ENDBRANCH   1   7
BRANCH   4  31
HETATM   31  C   UNK N   1      35.907  14.199  11.375  0.00  0.00     0.122 A 
HETATM   32  C   UNK N   1      36.905  13.608  10.615  0.00  0.00     0.097 A 
HETATM   33  C   UNK N   1      37.652  12.572  11.171  0.00  0.00     0.122 A 
HETATM   34  N   UNK N   1      37.418  12.190  12.463  0.00  0.00    -0.177 N 
HETATM   35  C   UNK N   1      36.459  12.815  13.211  0.00  0.00     0.683 A 
ATOM     36  HN  UNK N   1      37.962  11.431  12.873  1.00  0.00     0.186 HD
HETATM   37  N   UNK N   1      35.704  13.789  12.649  0.00  0.00    -0.177 N 
HETATM   38  N   UNK N   1      36.206  12.432  14.553  0.00  0.00    -0.217 N 
ATOM     39  HN  UNK N   1      34.965  14.224  13.200  1.00  0.00     0.186 HD
HETATM   40  C   UNK N   1      36.884  11.352  15.198  0.00  0.00     0.141 C 
HETATM   41  C   UNK N   1      35.218  13.100  15.350  0.00  0.00     0.141 C 
HETATM   42  C   UNK N   1      36.213  11.228  16.557  0.00  0.00     0.022 C 
HETATM   43  C   UNK N   1      35.280  12.427  16.707  0.00  0.00     0.022 C 
BRANCH  33  44
HETATM   44  N   UNK N   1      38.556  11.849  10.347  0.00  0.00    -0.367 N 
HETATM   45  C   UNK N   1      39.388  12.505   9.378  0.00  0.00     0.124 A 
HETATM   46  C   UNK N   1      39.985  11.396   8.539  0.00  0.00     0.021 A 
HETATM   47  C   UNK N   1      39.393  10.085   9.053  0.00  0.00     0.021 A 
HETATM   48  C   UNK N   1      38.536  10.421  10.263  0.00  0.00     0.124 A 
ENDBRANCH  33  44
ENDBRANCH   4  31
TORSDOF 5
ENDMDL
MODEL 3
REMARK VINA RESULT:     -10.2      3.870     11.264
REMARK  5 active torsions:
REMARK  status: ('A' for Active; 'I' for Inactive)
REMARK    1  A    between atoms: C_19  and  C_20 
REMARK    2  A    between atoms: C_20  and  C_22 
REMARK    3  A    between atoms: C_22  and  N_23 
REMARK    4  A    between atoms: N_26  and  C_29 
REMARK    5  A    between atoms: C_31  and  N_42 
REMARK       I    between atoms: C_34  and  N_37 
ROOT
HETATM    1  N   UNK N   1      35.451  13.716   6.717  0.00  0.00     0.098 N 
HETATM    2  C   UNK N   1      34.370  12.847   6.212  0.00  0.00     0.292 C 
HETATM    3  C   UNK N   1      33.496  13.527   5.155  0.00  0.00     0.154 C 
HETATM    4  N   UNK N   1      33.268  14.897   5.558  0.00  0.00    -0.363 N 
HETATM    5  C   UNK N   1      34.389  15.748   5.896  0.00  0.00     0.154 C 
HETATM    6  C   UNK N   1      35.665  14.932   5.919  0.00  0.00     0.292 C 
ENDROOT
BRANCH   1   7
HETATM    7  C   UNK N   1      35.190  14.054   8.116  0.00  0.00     0.350 C 
BRANCH   7   8
HETATM    8  C   UNK N   1      36.411  13.847   8.978  0.00  0.00     0.160 C 
HETATM    9  O   UNK N   1      37.362  13.251   8.498  0.00  0.00    -0.296 OA
BRANCH   8  10
HETATM   10  C   UNK N   1      36.505  14.357  10.412  0.00  0.00     0.069 C 
HETATM   11  C   UNK N   1      36.469  13.339  11.547  0.00  0.00    -0.026 C 
HETATM   12  C   UNK N   1      35.288  12.360  11.388  0.00  0.00     0.038 C 
HETATM   13  C   UNK N   1      36.240  14.215  12.771  0.00  0.00     0.003 C 
HETATM   14  C   UNK N   1      37.810  12.630  11.714  0.00  0.00     0.016 C 
HETATM   15  C   UNK N   1      35.206  11.460  12.569  0.00  0.00    -0.021 C 
HETATM   16  C   UNK N   1      35.378  11.957  13.800  0.00  0.00    -0.063 C 
HETATM   17  C   UNK N   1      35.274  11.024  14.991  0.00  0.00     0.021 C 
HETATM   18  C   UNK N   1      35.620  13.460  13.972  0.00  0.00     0.021 C 
HETATM   19  C   UNK N   1      36.219   9.841  14.855  0.00  0.00    -0.004 C 
HETATM   20  C   UNK N   1      35.497  11.737  16.321  0.00  0.00    -0.060 C 
HETATM   21  C   UNK N   1      33.860  10.450  15.022  0.00  0.00     0.029 C 
HETATM   22  C   UNK N   1      36.517   9.092  15.929  0.00  0.00     0.052 C 
HETATM   23  C   UNK N   1      36.153   9.593  17.271  0.00  0.00     0.172 C 
HETATM   24  C   UNK N   1      35.820  11.028  17.416  0.00  0.00     0.059 C 
HETATM   25  O   UNK N   1      36.260   8.877  18.252  0.00  0.00    -0.289 OA
HETATM   26  C   UNK N   1      35.312  13.219  16.422  0.00  0.00     0.036 C 
HETATM   27  C   UNK N   1      36.140  13.891  15.337  0.00  0.00     0.014 C 
HETATM   28  C   UNK N   1      35.361  15.373  12.297  0.00  0.00     0.011 C 
HETATM   29  C   UNK N   1      35.388  15.325  10.768  0.00  0.00    -0.006 C 
HETATM   30  C   UNK N   1      35.629  16.701  10.178  0.00  0.00     0.011 C 
ENDBRANCH   8  10
ENDBRANCH   7   8
ENDBRANCH   1   7
BRANCH   4  31
HETATM   31  C   UNK N   1      31.969  15.445   5.580  0.00  0.00     0.122 A 
HETATM   32  C   UNK N   1      31.538  16.195   6.664  0.00  0.00     0.097 A 
HETATM   33  C   UNK N   1      30.205  16.591   6.724  0.00  0.00     0.122 A 
HETATM   34  N   UNK N   1      29.360  16.273   5.696  0.00  0.00    -0.177 N 
HETATM   35  C   UNK N   1      29.815  15.570   4.615  0.00  0.00     0.683 A 
ATOM     36  HN  UNK N   1      28.383  16.560   5.737  1.00  0.00     0.186 HD
HETATM   37  N   UNK N   1      31.100  15.147   4.585  0.00  0.00    -0.177 N 
HETATM   38  N   UNK N   1      28.951  15.235   3.540  0.00  0.00    -0.217 N 
ATOM     39  HN  UNK N   1      31.422  14.591   3.794  1.00  0.00     0.186 HD
HETATM   40  C   UNK N   1      27.558  15.553   3.528  0.00  0.00     0.141 C 
HETATM   41  C   UNK N   1      29.428  14.519   2.392  0.00  0.00     0.141 C 
HETATM   42  C   UNK N   1      27.022  14.902   2.262  0.00  0.00     0.022 C 
HETATM   43  C   UNK N   1      28.227  14.392   1.475  0.00  0.00     0.022 C 
BRANCH  33  44
HETATM   44  N   UNK N   1      29.717  17.210   7.907  0.00  0.00    -0.367 N 
HETATM   45  C   UNK N   1      28.312  17.379   8.148  0.00  0.00     0.124 A 
HETATM   46  C   UNK N   1      28.215  18.299   9.346  0.00  0.00     0.021 A 
HETATM   47  C   UNK N   1      29.644  18.685   9.724  0.00  0.00     0.021 A 
HETATM   48  C   UNK N   1      30.578  17.902   8.816  0.00  0.00     0.124 A 
ENDBRANCH  33  44
ENDBRANCH   4  31
TORSDOF 5
ENDMDL
MODEL 4
REMARK VINA RESULT:     -10.1      7.309     11.634
REMARK  5 active torsions:
REMARK  status: ('A' for Active; 'I' for Inactive)
REMARK    1  A    between atoms: C_19  and  C_20 
REMARK    2  A    between atoms: C_20  and  C_22 
REMARK    3  A    between atoms: C_22  and  N_23 
REMARK    4  A    between atoms: N_26  and  C_29 
REMARK    5  A    between atoms: C_31  and  N_42 
REMARK       I    between atoms: C_34  and  N_37 
ROOT
HETATM    1  N   UNK N   1      28.449  11.819   2.512  0.00  0.00     0.098 N 
HETATM    2  C   UNK N   1      29.809  12.321   2.236  0.00  0.00     0.292 C 
HETATM    3  C   UNK N   1      30.474  12.961   3.458  0.00  0.00     0.154 C 
HETATM    4  N   UNK N   1      29.484  13.745   4.163  0.00  0.00    -0.363 N 
HETATM    5  C   UNK N   1      28.222  13.145   4.542  0.00  0.00     0.154 C 
HETATM    6  C   UNK N   1      28.110  11.759   3.940  0.00  0.00     0.292 C 
ENDROOT
BRANCH   1   7
HETATM    7  C   UNK N   1      27.474  12.630   1.782  0.00  0.00     0.350 C 
BRANCH   7   8
HETATM    8  C   UNK N   1      26.163  11.904   1.606  0.00  0.00     0.160 C 
HETATM    9  O   UNK N   1      26.078  10.758   2.018  0.00  0.00    -0.296 OA
BRANCH   8  10
HETATM   10  C   UNK N   1      24.947  12.544   0.946  0.00  0.00     0.069 C 
HETATM   11  C   UNK N   1      24.363  13.806   1.573  0.00  0.00    -0.026 C 
HETATM   12  C   UNK N   1      24.139  13.630   3.088  0.00  0.00     0.038 C 
HETATM   13  C   UNK N   1      23.018  13.932   0.872  0.00  0.00     0.003 C 
HETATM   14  C   UNK N   1      25.193  15.041   1.236  0.00  0.00     0.016 C 
HETATM   15  C   UNK N   1      23.457  14.827   3.648  0.00  0.00    -0.021 C 
HETATM   16  C   UNK N   1      22.445  15.392   2.979  0.00  0.00    -0.063 C 
HETATM   17  C   UNK N   1      21.754  16.603   3.576  0.00  0.00     0.021 C 
HETATM   18  C   UNK N   1      21.980  14.768   1.660  0.00  0.00     0.021 C 
HETATM   19  C   UNK N   1      22.747  17.710   3.894  0.00  0.00    -0.004 C 
HETATM   20  C   UNK N   1      20.626  17.133   2.697  0.00  0.00    -0.060 C 
HETATM   21  C   UNK N   1      21.128  16.186   4.905  0.00  0.00     0.029 C 
HETATM   22  C   UNK N   1      22.312  18.961   4.114  0.00  0.00     0.052 C 
HETATM   23  C   UNK N   1      20.916  19.302   3.766  0.00  0.00     0.172 C 
HETATM   24  C   UNK N   1      20.176  18.388   2.867  0.00  0.00     0.059 C 
HETATM   25  O   UNK N   1      20.437  20.373   4.096  0.00  0.00    -0.289 OA
HETATM   26  C   UNK N   1      19.987  16.245   1.675  0.00  0.00     0.036 C 
HETATM   27  C   UNK N   1      21.076  15.641   0.800  0.00  0.00     0.014 C 
HETATM   28  C   UNK N   1      22.541  12.501   0.622  0.00  0.00     0.011 C 
HETATM   29  C   UNK N   1      23.755  11.603   0.868  0.00  0.00    -0.006 C 
HETATM   30  C   UNK N   1      23.919  10.582  -0.241  0.00  0.00     0.011 C 
ENDBRANCH   8  10
ENDBRANCH   7   8
ENDBRANCH   1   7
BRANCH   4  31
HETATM   31  C   UNK N   1      29.742  15.078   4.540  0.00  0.00     0.122 A 
HETATM   32  C   UNK N   1      30.893  15.403   5.242  0.00  0.00     0.097 A 
HETATM   33  C   UNK N   1      31.042  16.697   5.731  0.00  0.00     0.122 A 
HETATM   34  N   UNK N   1      30.077  17.632   5.474  0.00  0.00    -0.177 N 
HETATM   35  C   UNK N   1      28.970  17.304   4.742  0.00  0.00     0.683 A 
ATOM     36  HN  UNK N   1      30.184  18.581   5.832  1.00  0.00     0.186 HD
HETATM   37  N   UNK N   1      28.807  16.031   4.310  0.00  0.00    -0.177 N 
HETATM   38  N   UNK N   1      27.961  18.263   4.465  0.00  0.00    -0.217 N 
ATOM     39  HN  UNK N   1      27.961  15.784   3.798  1.00  0.00     0.186 HD
HETATM   40  C   UNK N   1      27.998  19.603   4.961  0.00  0.00     0.141 C 
HETATM   41  C   UNK N   1      26.809  17.931   3.678  0.00  0.00     0.141 C 
HETATM   42  C   UNK N   1      26.677  20.215   4.525  0.00  0.00     0.022 C 
HETATM   43  C   UNK N   1      26.007  19.214   3.587  0.00  0.00     0.022 C 
BRANCH  33  44
HETATM   44  N   UNK N   1      32.134  16.992   6.593  0.00  0.00    -0.367 N 
HETATM   45  C   UNK N   1      31.943  17.630   7.865  0.00  0.00     0.124 A 
HETATM   46  C   UNK N   1      33.330  18.008   8.340  0.00  0.00     0.021 A 
HETATM   47  C   UNK N   1      34.302  17.600   7.235  0.00  0.00     0.021 A 
HETATM   48  C   UNK N   1      33.494  16.885   6.164  0.00  0.00     0.124 A 
ENDBRANCH  33  44
ENDBRANCH   4  31
TORSDOF 5
ENDMDL
MODEL 5
REMARK VINA RESULT:     -10.0      3.920     11.621
REMARK  5 active torsions:
REMARK  status: ('A' for Active; 'I' for Inactive)
REMARK    1  A    between atoms: C_19  and  C_20 
REMARK    2  A    between atoms: C_20  and  C_22 
REMARK    3  A    between atoms: C_22  and  N_23 
REMARK    4  A    between atoms: N_26  and  C_29 
REMARK    5  A    between atoms: C_31  and  N_42 
REMARK       I    between atoms: C_34  and  N_37 
ROOT
HETATM    1  N   UNK N   1      35.271  13.762   6.445  0.00  0.00     0.098 N 
HETATM    2  C   UNK N   1      34.283  12.782   5.953  0.00  0.00     0.292 C 
HETATM    3  C   UNK N   1      33.283  13.383   4.960  0.00  0.00     0.154 C 
HETATM    4  N   UNK N   1      32.908  14.700   5.427  0.00  0.00    -0.363 N 
HETATM    5  C   UNK N   1      33.930  15.672   5.749  0.00  0.00     0.154 C 
HETATM    6  C   UNK N   1      35.297  15.021   5.688  0.00  0.00     0.292 C 
ENDROOT
BRANCH   1   7
HETATM    7  C   UNK N   1      35.036  14.017   7.866  0.00  0.00     0.350 C 
BRANCH   7   8
HETATM    8  C   UNK N   1      36.327  14.061   8.648  0.00  0.00     0.160 C 
HETATM    9  O   UNK N   1      37.354  13.716   8.085  0.00  0.00    -0.296 OA
BRANCH   8  10
HETATM   10  C   UNK N   1      36.398  14.525  10.098  0.00  0.00     0.069 C 
HETATM   11  C   UNK N   1      36.471  13.466  11.194  0.00  0.00    -0.026 C 
HETATM   12  C   UNK N   1      35.381  12.391  11.013  0.00  0.00     0.038 C 
HETATM   13  C   UNK N   1      36.185  14.272  12.453  0.00  0.00     0.003 C 
HETATM   14  C   UNK N   1      37.873  12.875  11.316  0.00  0.00     0.016 C 
HETATM   15  C   UNK N   1      35.398  11.445  12.159  0.00  0.00    -0.021 C 
HETATM   16  C   UNK N   1      35.544  11.910  13.406  0.00  0.00    -0.063 C 
HETATM   17  C   UNK N   1      35.544  10.928  14.562  0.00  0.00     0.021 C 
HETATM   18  C   UNK N   1      35.654  13.421  13.632  0.00  0.00     0.021 C 
HETATM   19  C   UNK N   1      36.588   9.840  14.369  0.00  0.00    -0.004 C 
HETATM   20  C   UNK N   1      35.723  11.608  15.915  0.00  0.00    -0.060 C 
HETATM   21  C   UNK N   1      34.187  10.227  14.589  0.00  0.00     0.029 C 
HETATM   22  C   UNK N   1      36.970   9.082  15.410  0.00  0.00     0.052 C 
HETATM   23  C   UNK N   1      36.584   9.498  16.774  0.00  0.00     0.172 C 
HETATM   24  C   UNK N   1      36.127  10.891  16.978  0.00  0.00     0.059 C 
HETATM   25  O   UNK N   1      36.770   8.759  17.726  0.00  0.00    -0.289 OA
HETATM   26  C   UNK N   1      35.408  13.063  16.075  0.00  0.00     0.036 C 
HETATM   27  C   UNK N   1      36.156  13.847  15.006  0.00  0.00     0.014 C 
HETATM   28  C   UNK N   1      35.198  15.363  12.035  0.00  0.00     0.011 C 
HETATM   29  C   UNK N   1      35.205  15.374  10.505  0.00  0.00    -0.006 C 
HETATM   30  C   UNK N   1      35.312  16.787   9.965  0.00  0.00     0.011 C 
ENDBRANCH   8  10
ENDBRANCH   7   8
ENDBRANCH   1   7
BRANCH   4  31
HETATM   31  C   UNK N   1      31.554  15.081   5.524  0.00  0.00     0.122 A 
HETATM   32  C   UNK N   1      30.650  14.732   4.533  0.00  0.00     0.097 A 
HETATM   33  C   UNK N   1      29.359  15.252   4.582  0.00  0.00     0.122 A 
HETATM   34  N   UNK N   1      28.997  16.058   5.627  0.00  0.00    -0.177 N 
HETATM   35  C   UNK N   1      29.890  16.355   6.618  0.00  0.00     0.683 A 
ATOM     36  HN  UNK N   1      28.053  16.442   5.665  1.00  0.00     0.186 HD
HETATM   37  N   UNK N   1      31.157  15.885   6.539  0.00  0.00    -0.177 N 
HETATM   38  N   UNK N   1      29.528  17.187   7.709  0.00  0.00    -0.217 N 
ATOM     39  HN  UNK N   1      31.829  16.142   7.262  1.00  0.00     0.186 HD
HETATM   40  C   UNK N   1      28.245  17.808   7.827  0.00  0.00     0.141 C 
HETATM   41  C   UNK N   1      30.453  17.483   8.765  0.00  0.00     0.141 C 
HETATM   42  C   UNK N   1      28.352  18.688   9.063  0.00  0.00     0.022 C 
HETATM   43  C   UNK N   1      29.683  18.358   9.735  0.00  0.00     0.022 C 
BRANCH  33  44
HETATM   44  N   UNK N   1      28.482  15.039   3.485  0.00  0.00    -0.367 N 
HETATM   45  C   UNK N   1      27.429  15.960   3.167  0.00  0.00     0.124 A 
HETATM   46  C   UNK N   1      26.573  15.257   2.135  0.00  0.00     0.021 A 
HETATM   47  C   UNK N   1      27.172  13.866   1.938  0.00  0.00     0.021 A 
HETATM   48  C   UNK N   1      28.441  13.798   2.773  0.00  0.00     0.124 A 
ENDBRANCH  33  44
ENDBRANCH   4  31
TORSDOF 5
ENDMDL
MODEL 6
REMARK VINA RESULT:     -10.0      3.514     12.368
REMARK  5 active torsions:
REMARK  status: ('A' for Active; 'I' for Inactive)
REMARK    1  A    between atoms: C_19  and  C_20 
REMARK    2  A    between atoms: C_20  and  C_22 
REMARK    3  A    between atoms: C_22  and  N_23 
REMARK    4  A    between atoms: N_26  and  C_29 
REMARK    5  A    between atoms: C_31  and  N_42 
REMARK       I    between atoms: C_34  and  N_37 
ROOT
HETATM    1  N   UNK N   1      36.076  14.579  11.050  0.00  0.00     0.098 N 
HETATM    2  C   UNK N   1      36.273  13.960   9.725  0.00  0.00     0.292 C 
HETATM    3  C   UNK N   1      35.872  14.878   8.567  0.00  0.00     0.154 C 
HETATM    4  N   UNK N   1      34.655  15.571   8.929  0.00  0.00    -0.363 N 
HETATM    5  C   UNK N   1      34.578  16.292  10.182  0.00  0.00     0.154 C 
HETATM    6  C   UNK N   1      35.822  16.025  11.005  0.00  0.00     0.292 C 
ENDROOT
BRANCH   1   7
HETATM    7  C   UNK N   1      34.998  13.885  11.755  0.00  0.00     0.350 C 
BRANCH   7   8
HETATM    8  C   UNK N   1      35.492  13.222  13.018  0.00  0.00     0.160 C 
HETATM    9  O   UNK N   1      35.746  13.930  13.980  0.00  0.00    -0.296 OA
BRANCH   8  10
HETATM   10  C   UNK N   1      35.674  11.713  13.141  0.00  0.00     0.069 C 
HETATM   11  C   UNK N   1      35.232  11.034  14.433  0.00  0.00    -0.026 C 
HETATM   12  C   UNK N   1      35.793  11.759  15.673  0.00  0.00     0.038 C 
HETATM   13  C   UNK N   1      35.871   9.657  14.319  0.00  0.00     0.003 C 
HETATM   14  C   UNK N   1      33.718  10.853  14.487  0.00  0.00     0.016 C 
HETATM   15  C   UNK N   1      35.449  11.006  16.908  0.00  0.00    -0.021 C 
HETATM   16  C   UNK N   1      35.555   9.672  16.926  0.00  0.00    -0.063 C 
HETATM   17  C   UNK N   1      35.213   8.925  18.201  0.00  0.00     0.021 C 
HETATM   18  C   UNK N   1      36.068   8.945  15.680  0.00  0.00     0.021 C 
HETATM   19  C   UNK N   1      33.814   9.266  18.688  0.00  0.00    -0.004 C 
HETATM   20  C   UNK N   1      35.379   7.416  18.064  0.00  0.00    -0.060 C 
HETATM   21  C   UNK N   1      36.177   9.385  19.293  0.00  0.00     0.029 C 
HETATM   22  C   UNK N   1      33.207   8.480  19.593  0.00  0.00     0.052 C 
HETATM   23  C   UNK N   1      33.786   7.153  19.887  0.00  0.00     0.172 C 
HETATM   24  C   UNK N   1      34.770   6.592  18.934  0.00  0.00     0.059 C 
HETATM   25  O   UNK N   1      33.361   6.480  20.811  0.00  0.00    -0.289 OA
HETATM   26  C   UNK N   1      36.256   6.848  16.992  0.00  0.00     0.036 C 
HETATM   27  C   UNK N   1      35.839   7.440  15.654  0.00  0.00     0.014 C 
HETATM   28  C   UNK N   1      37.192   9.870  13.579  0.00  0.00     0.011 C 
HETATM   29  C   UNK N   1      37.124  11.281  12.992  0.00  0.00    -0.006 C 
HETATM   30  C   UNK N   1      37.567  11.296  11.541  0.00  0.00     0.011 C 
ENDBRANCH   8  10
ENDBRANCH   7   8
ENDBRANCH   1   7
BRANCH   4  31
HETATM   31  C   UNK N   1      33.548  15.606   8.057  0.00  0.00     0.122 A 
HETATM   32  C   UNK N   1      33.620  15.022   6.802  0.00  0.00     0.097 A 
HETATM   33  C   UNK N   1      32.567  15.207   5.910  0.00  0.00     0.122 A 
HETATM   34  N   UNK N   1      31.468  15.920   6.302  0.00  0.00    -0.177 N 
HETATM   35  C   UNK N   1      31.397  16.451   7.560  0.00  0.00     0.683 A 
ATOM     36  HN  UNK N   1      30.696  16.058   5.651  1.00  0.00     0.186 HD
HETATM   37  N   UNK N   1      32.444  16.309   8.406  0.00  0.00    -0.177 N 
HETATM   38  N   UNK N   1      30.262  17.191   7.982  0.00  0.00    -0.217 N 
ATOM     39  HN  UNK N   1      32.400  16.741   9.328  1.00  0.00     0.186 HD
HETATM   40  C   UNK N   1      29.152  17.477   7.127  0.00  0.00     0.141 C 
HETATM   41  C   UNK N   1      30.171  17.731   9.308  0.00  0.00     0.141 C 
HETATM   42  C   UNK N   1      28.251  18.383   7.951  0.00  0.00     0.022 C 
HETATM   43  C   UNK N   1      28.816  18.409   9.369  0.00  0.00     0.022 C 
BRANCH  33  44
HETATM   44  N   UNK N   1      32.707  14.757   4.568  0.00  0.00    -0.367 N 
HETATM   45  C   UNK N   1      31.911  13.685   4.043  0.00  0.00     0.124 A 
HETATM   46  C   UNK N   1      32.535  13.334   2.709  0.00  0.00     0.021 A 
HETATM   47  C   UNK N   1      33.762  14.229   2.546  0.00  0.00     0.021 A 
HETATM   48  C   UNK N   1      33.790  15.178   3.733  0.00  0.00     0.124 A 
ENDBRANCH  33  44
ENDBRANCH   4  31
TORSDOF 5
ENDMDL
MODEL 7
REMARK VINA RESULT:      -9.9      6.219     12.758
REMARK  5 active torsions:
REMARK  status: ('A' for Active; 'I' for Inactive)
REMARK    1  A    between atoms: C_19  and  C_20 
REMARK    2  A    between atoms: C_20  and  C_22 
REMARK    3  A    between atoms: C_22  and  N_23 
REMARK    4  A    between atoms: N_26  and  C_29 
REMARK    5  A    between atoms: C_31  and  N_42 
REMARK       I    between atoms: C_34  and  N_37 
ROOT
HETATM    1  N   UNK N   1      28.177  15.204   4.475  0.00  0.00     0.098 N 
HETATM    2  C   UNK N   1      27.473  14.202   5.299  0.00  0.00     0.292 C 
HETATM    3  C   UNK N   1      26.087  13.843   4.756  0.00  0.00     0.154 C 
HETATM    4  N   UNK N   1      25.448  15.055   4.290  0.00  0.00    -0.363 N 
HETATM    5  C   UNK N   1      26.136  15.923   3.358  0.00  0.00     0.154 C 
HETATM    6  C   UNK N   1      27.560  15.443   3.163  0.00  0.00     0.292 C 
ENDROOT
BRANCH   1   7
HETATM    7  C   UNK N   1      28.296  16.454   5.227  0.00  0.00     0.350 C 
BRANCH   7   8
HETATM    8  C   UNK N   1      29.666  17.068   5.076  0.00  0.00     0.160 C 
HETATM    9  O   UNK N   1      30.100  17.242   3.948  0.00  0.00    -0.296 OA
BRANCH   8  10
HETATM   10  C   UNK N   1      30.520  17.487   6.268  0.00  0.00     0.069 C 
HETATM   11  C   UNK N   1      31.807  16.716   6.543  0.00  0.00    -0.026 C 
HETATM   12  C   UNK N   1      31.563  15.194   6.548  0.00  0.00     0.038 C 
HETATM   13  C   UNK N   1      32.175  17.176   7.947  0.00  0.00     0.003 C 
HETATM   14  C   UNK N   1      32.929  17.134   5.596  0.00  0.00     0.016 C 
HETATM   15  C   UNK N   1      32.805  14.477   6.939  0.00  0.00    -0.021 C 
HETATM   16  C   UNK N   1      33.555  14.941   7.945  0.00  0.00    -0.063 C 
HETATM   17  C   UNK N   1      34.810  14.186   8.337  0.00  0.00     0.021 C 
HETATM   18  C   UNK N   1      33.096  16.190   8.705  0.00  0.00     0.021 C 
HETATM   19  C   UNK N   1      35.737  13.990   7.148  0.00  0.00    -0.004 C 
HETATM   20  C   UNK N   1      35.557  14.839   9.495  0.00  0.00    -0.060 C 
HETATM   21  C   UNK N   1      34.399  12.790   8.801  0.00  0.00     0.029 C 
HETATM   22  C   UNK N   1      37.020  13.646   7.344  0.00  0.00     0.052 C 
HETATM   23  C   UNK N   1      37.583  13.741   8.707  0.00  0.00     0.172 C 
HETATM   24  C   UNK N   1      36.849  14.542   9.713  0.00  0.00     0.059 C 
HETATM   25  O   UNK N   1      38.687  13.289   8.957  0.00  0.00    -0.289 OA
HETATM   26  C   UNK N   1      34.843  15.777  10.418  0.00  0.00     0.036 C 
HETATM   27  C   UNK N   1      34.149  16.847   9.588  0.00  0.00     0.014 C 
HETATM   28  C   UNK N   1      30.849  17.405   8.672  0.00  0.00     0.011 C 
HETATM   29  C   UNK N   1      29.769  17.405   7.587  0.00  0.00    -0.006 C 
HETATM   30  C   UNK N   1      28.813  18.569   7.762  0.00  0.00     0.011 C 
ENDBRANCH   8  10
ENDBRANCH   7   8
ENDBRANCH   1   7
BRANCH   4  31
HETATM   31  C   UNK N   1      24.136  15.386   4.685  0.00  0.00     0.122 A 
HETATM   32  C   UNK N   1      23.373  16.263   3.929  0.00  0.00     0.097 A 
HETATM   33  C   UNK N   1      22.143  16.688   4.425  0.00  0.00     0.122 A 
HETATM   34  N   UNK N   1      21.695  16.201   5.622  0.00  0.00    -0.177 N 
HETATM   35  C   UNK N   1      22.442  15.303   6.332  0.00  0.00     0.683 A 
ATOM     36  HN  UNK N   1      20.795  16.511   5.989  1.00  0.00     0.186 HD
HETATM   37  N   UNK N   1      23.658  14.931   5.867  0.00  0.00    -0.177 N 
HETATM   38  N   UNK N   1      21.989  14.787   7.573  0.00  0.00    -0.217 N 
ATOM     39  HN  UNK N   1      24.227  14.291   6.420  1.00  0.00     0.186 HD
HETATM   40  C   UNK N   1      20.766  15.196   8.190  0.00  0.00     0.141 C 
HETATM   41  C   UNK N   1      22.758  13.827   8.311  0.00  0.00     0.141 C 
HETATM   42  C   UNK N   1      20.755  14.489   9.537  0.00  0.00     0.022 C 
HETATM   43  C   UNK N   1      21.927  13.511   9.539  0.00  0.00     0.022 C 
BRANCH  33  44
HETATM   44  N   UNK N   1      21.435  17.713   3.741  0.00  0.00    -0.367 N 
HETATM   45  C   UNK N   1      21.792  19.097   3.873  0.00  0.00     0.124 A 
HETATM   46  C   UNK N   1      20.661  19.870   3.228  0.00  0.00     0.021 A 
HETATM   47  C   UNK N   1      19.622  18.843   2.783  0.00  0.00     0.021 A 
HETATM   48  C   UNK N   1      20.197  17.465   3.068  0.00  0.00     0.124 A 
ENDBRANCH  33  44
ENDBRANCH   4  31
TORSDOF 5
ENDMDL
MODEL 8
REMARK VINA RESULT:      -9.7      3.494     12.018
REMARK  5 active torsions:
REMARK  status: ('A' for Active; 'I' for Inactive)
REMARK    1  A    between atoms: C_19  and  C_20 
REMARK    2  A    between atoms: C_20  and  C_22 
REMARK    3  A    between atoms: C_22  and  N_23 
REMARK    4  A    between atoms: N_26  and  C_29 
REMARK    5  A    between atoms: C_31  and  N_42 
REMARK       I    between atoms: C_34  and  N_37 
ROOT
HETATM    1  N   UNK N   1      36.064  14.432  11.054  0.00  0.00     0.098 N 
HETATM    2  C   UNK N   1      36.280  13.889   9.698  0.00  0.00     0.292 C 
HETATM    3  C   UNK N   1      35.983  14.903   8.590  0.00  0.00     0.154 C 
HETATM    4  N   UNK N   1      34.794  15.644   8.950  0.00  0.00    -0.363 N 
HETATM    5  C   UNK N   1      34.706  16.285  10.245  0.00  0.00     0.154 C 
HETATM    6  C   UNK N   1      35.896  15.891  11.096  0.00  0.00     0.292 C 
ENDROOT
BRANCH   1   7
HETATM    7  C   UNK N   1      34.918  13.761  11.669  0.00  0.00     0.350 C 
BRANCH   7   8
HETATM    8  C   UNK N   1      35.287  13.117  12.983  0.00  0.00     0.160 C 
HETATM    9  O   UNK N   1      35.406  13.834  13.963  0.00  0.00    -0.296 OA
BRANCH   8  10
HETATM   10  C   UNK N   1      35.505  11.615  13.134  0.00  0.00     0.069 C 
HETATM   11  C   UNK N   1      35.094  10.953  14.445  0.00  0.00    -0.026 C 
HETATM   12  C   UNK N   1      35.655  11.716  15.662  0.00  0.00     0.038 C 
HETATM   13  C   UNK N   1      35.763   9.588  14.351  0.00  0.00     0.003 C 
HETATM   14  C   UNK N   1      33.585  10.740  14.523  0.00  0.00     0.016 C 
HETATM   15  C   UNK N   1      35.344  10.981  16.917  0.00  0.00    -0.021 C 
HETATM   16  C   UNK N   1      35.479   9.650  16.961  0.00  0.00    -0.063 C 
HETATM   17  C   UNK N   1      35.171   8.923  18.255  0.00  0.00     0.021 C 
HETATM   18  C   UNK N   1      35.993   8.910  15.723  0.00  0.00     0.021 C 
HETATM   19  C   UNK N   1      33.771   9.242  18.754  0.00  0.00    -0.004 C 
HETATM   20  C   UNK N   1      35.369   7.414  18.147  0.00  0.00    -0.060 C 
HETATM   21  C   UNK N   1      36.138   9.425  19.325  0.00  0.00     0.029 C 
HETATM   22  C   UNK N   1      33.193   8.462  19.682  0.00  0.00     0.052 C 
HETATM   23  C   UNK N   1      33.805   7.154  19.995  0.00  0.00     0.172 C 
HETATM   24  C   UNK N   1      34.789   6.595  19.041  0.00  0.00     0.059 C 
HETATM   25  O   UNK N   1      33.407   6.491  20.938  0.00  0.00    -0.289 OA
HETATM   26  C   UNK N   1      36.245   6.844  17.074  0.00  0.00     0.036 C 
HETATM   27  C   UNK N   1      35.797   7.399  15.730  0.00  0.00     0.014 C 
HETATM   28  C   UNK N   1      37.069   9.815  13.589  0.00  0.00     0.011 C 
HETATM   29  C   UNK N   1      36.962  11.213  12.974  0.00  0.00    -0.006 C 
HETATM   30  C   UNK N   1      37.386  11.208  11.518  0.00  0.00     0.011 C 
ENDBRANCH   8  10
ENDBRANCH   7   8
ENDBRANCH   1   7
BRANCH   4  31
HETATM   31  C   UNK N   1      33.729  15.802   8.041  0.00  0.00     0.122 A 
HETATM   32  C   UNK N   1      32.576  16.476   8.415  0.00  0.00     0.097 A 
HETATM   33  C   UNK N   1      31.486  16.481   7.549  0.00  0.00     0.122 A 
HETATM   34  N   UNK N   1      31.588  15.863   6.333  0.00  0.00    -0.177 N 
HETATM   35  C   UNK N   1      32.748  15.241   5.964  0.00  0.00     0.683 A 
ATOM     36  HN  UNK N   1      30.791  15.865   5.697  1.00  0.00     0.186 HD
HETATM   37  N   UNK N   1      33.788  15.198   6.830  0.00  0.00    -0.177 N 
HETATM   38  N   UNK N   1      32.869  14.598   4.705  0.00  0.00    -0.217 N 
ATOM     39  HN  UNK N   1      34.636  14.700   6.564  1.00  0.00     0.186 HD
HETATM   40  C   UNK N   1      31.795  14.508   3.767  0.00  0.00     0.141 C 
HETATM   41  C   UNK N   1      34.092  13.965   4.302  0.00  0.00     0.141 C 
HETATM   42  C   UNK N   1      32.335  13.641   2.640  0.00  0.00     0.022 C 
HETATM   43  C   UNK N   1      33.825  13.437   2.907  0.00  0.00     0.022 C 
BRANCH  33  44
HETATM   44  N   UNK N   1      30.249  17.021   7.994  0.00  0.00    -0.367 N 
HETATM   45  C   UNK N   1      29.231  17.440   7.073  0.00  0.00     0.124 A 
HETATM   46  C   UNK N   1      28.214  18.190   7.908  0.00  0.00     0.021 A 
HETATM   47  C   UNK N   1      28.751  18.220   9.337  0.00  0.00     0.021 A 
HETATM   48  C   UNK N   1      30.026  17.393   9.358  0.00  0.00     0.124 A 
ENDBRANCH  33  44
ENDBRANCH   4  31
TORSDOF 5
ENDMDL
MODEL 9
REMARK VINA RESULT:      -9.7      4.711      9.345
REMARK  5 active torsions:
REMARK  status: ('A' for Active; 'I' for Inactive)
REMARK    1  A    between atoms: C_19  and  C_20 
REMARK    2  A    between atoms: C_20  and  C_22 
REMARK    3  A    between atoms: C_22  and  N_23 
REMARK    4  A    between atoms: N_26  and  C_29 
REMARK    5  A    between atoms: C_31  and  N_42 
REMARK       I    between atoms: C_34  and  N_37 
ROOT
HETATM    1  N   UNK N   1      29.543  16.927   6.002  0.00  0.00     0.098 N 
HETATM    2  C   UNK N   1      30.116  17.018   7.360  0.00  0.00     0.292 C 
HETATM    3  C   UNK N   1      31.582  17.457   7.366  0.00  0.00     0.154 C 
HETATM    4  N   UNK N   1      32.265  16.793   6.277  0.00  0.00    -0.363 N 
HETATM    5  C   UNK N   1      31.731  16.870   4.934  0.00  0.00     0.154 C 
HETATM    6  C   UNK N   1      30.374  17.543   4.958  0.00  0.00     0.292 C 
ENDROOT
BRANCH   1   7
HETATM    7  C   UNK N   1      29.267  15.525   5.685  0.00  0.00     0.350 C 
BRANCH   7   8
HETATM    8  C   UNK N   1      28.113  15.387   4.722  0.00  0.00     0.160 C 
HETATM    9  O   UNK N   1      28.320  14.851   3.645  0.00  0.00    -0.296 OA
BRANCH   8  10
HETATM   10  C   UNK N   1      26.706  15.879   5.045  0.00  0.00     0.069 C 
HETATM   11  C   UNK N   1      25.926  15.170   6.147  0.00  0.00    -0.026 C 
HETATM   12  C   UNK N   1      25.944  13.640   5.956  0.00  0.00     0.038 C 
HETATM   13  C   UNK N   1      24.511  15.690   5.939  0.00  0.00     0.003 C 
HETATM   14  C   UNK N   1      26.392  15.600   7.535  0.00  0.00     0.016 C 
HETATM   15  C   UNK N   1      25.077  12.986   6.972  0.00  0.00    -0.021 C 
HETATM   16  C   UNK N   1      23.883  13.514   7.268  0.00  0.00    -0.063 C 
HETATM   17  C   UNK N   1      23.008  12.822   8.296  0.00  0.00     0.021 C 
HETATM   18  C   UNK N   1      23.414  14.768   6.524  0.00  0.00     0.021 C 
HETATM   19  C   UNK N   1      23.744  12.624   9.611  0.00  0.00    -0.004 C 
HETATM   20  C   UNK N   1      21.685  13.543   8.527  0.00  0.00    -0.060 C 
HETATM   21  C   UNK N   1      22.672  11.428   7.772  0.00  0.00     0.029 C 
HETATM   22  C   UNK N   1      23.058  12.338  10.730  0.00  0.00     0.052 C 
HETATM   23  C   UNK N   1      21.589  12.501  10.726  0.00  0.00     0.172 C 
HETATM   24  C   UNK N   1      20.977  13.305   9.645  0.00  0.00     0.059 C 
HETATM   25  O   UNK N   1      20.917  12.102  11.662  0.00  0.00    -0.289 OA
HETATM   26  C   UNK N   1      21.147  14.483   7.492  0.00  0.00     0.036 C 
HETATM   27  C   UNK N   1      22.228  15.496   7.142  0.00  0.00     0.014 C 
HETATM   28  C   UNK N   1      24.357  15.891   4.431  0.00  0.00     0.011 C 
HETATM   29  C   UNK N   1      25.770  15.811   3.849  0.00  0.00    -0.006 C 
HETATM   30  C   UNK N   1      26.027  16.942   2.871  0.00  0.00     0.011 C 
ENDBRANCH   8  10
ENDBRANCH   7   8
ENDBRANCH   1   7
BRANCH   4  31
HETATM   31  C   UNK N   1      33.481  16.111   6.485  0.00  0.00     0.122 A 
HETATM   32  C   UNK N   1      34.153  15.525   5.423  0.00  0.00     0.097 A 
HETATM   33  C   UNK N   1      35.265  14.730   5.683  0.00  0.00     0.122 A 
HETATM   34  N   UNK N   1      35.699  14.579   6.971  0.00  0.00    -0.177 N 
HETATM   35  C   UNK N   1      35.050  15.200   8.002  0.00  0.00     0.683 A 
ATOM     36  HN  UNK N   1      36.514  13.996   7.165  1.00  0.00     0.186 HD
HETATM   37  N   UNK N   1      33.940  15.932   7.747  0.00  0.00    -0.177 N 
HETATM   38  N   UNK N   1      35.490  15.054   9.343  0.00  0.00    -0.217 N 
ATOM     39  HN  UNK N   1      33.438  16.361   8.524  1.00  0.00     0.186 HD
HETATM   40  C   UNK N   1      36.591  14.224   9.719  0.00  0.00     0.141 C 
HETATM   41  C   UNK N   1      34.827  15.722  10.425  0.00  0.00     0.141 C 
HETATM   42  C   UNK N   1      36.616  14.276  11.238  0.00  0.00     0.022 C 
HETATM   43  C   UNK N   1      35.609  15.342  11.667  0.00  0.00     0.022 C 
BRANCH  33  44
HETATM   44  N   UNK N   1      35.855  13.992   4.621  0.00  0.00    -0.367 N 
HETATM   45  C   UNK N   1      37.260  13.702   4.589  0.00  0.00     0.124 A 
HETATM   46  C   UNK N   1      37.530  13.156   3.203  0.00  0.00     0.021 A 
HETATM   47  C   UNK N   1      36.207  13.213   2.441  0.00  0.00     0.021 A 
HETATM   48  C   UNK N   1      35.144  13.690   3.417  0.00  0.00     0.124 A 
ENDBRANCH  33  44
ENDBRANCH   4  31
TORSDOF 5
ENDMDL
