MODEL 1
REMARK VINA RESULT:      -7.2      0.000      0.000
REMARK  11 active torsions:
REMARK  status: ('A' for Active; 'I' for Inactive)
REMARK    1  A    between atoms: C_13  and  C_5 
REMARK    2  A    between atoms: O_21  and  C_5 
REMARK    3  A    between atoms: C_14  and  C_6 
REMARK    4  A    between atoms: O_22  and  C_6 
REMARK    5  A    between atoms: C_11  and  C_7 
REMARK    6  A    between atoms: S_25  and  C_7 
REMARK    7  A    between atoms: C_12  and  C_8 
REMARK    8  A    between atoms: S_26  and  C_8 
REMARK    9  A    between atoms: O_23  and  C_15 
REMARK   10  A    between atoms: O_24  and  C_16 
REMARK   11  A    between atoms: S_26  and  S_25 
ROOT
HETATM    1  S   UNK N   1      30.448  15.254   5.804  0.00  0.00    -0.093 SA
ENDROOT
BRANCH   1   2
HETATM    2  C   UNK N   1      30.158  16.647   6.940  0.00  0.00     0.127 C 
BRANCH   2   3
HETATM    3  C   UNK N   1      29.260  17.665   6.327  0.00  0.00    -0.021 A 
HETATM    4  C   UNK N   1      29.189  17.743   4.936  0.00  0.00     0.096 A 
HETATM    5  N   UNK N   1      28.372  18.648   4.341  0.00  0.00    -0.367 N 
HETATM    6  C   UNK N   1      27.601  19.497   5.069  0.00  0.00     0.039 A 
ATOM      7  HN  UNK N   1      28.337  18.694   3.323  1.00  0.00     0.165 HD
HETATM    8  C   UNK N   1      26.719  20.466   4.360  0.00  0.00     0.071 C 
HETATM    9  C   UNK N   1      27.631  19.456   6.472  0.00  0.00     0.096 A 
HETATM   10  C   UNK N   1      28.475  18.524   7.120  0.00  0.00     0.009 A 
BRANCH   9  11
HETATM   11  O   UNK N   1      26.854  20.297   7.177  0.00  0.00    -0.358 OA
HETATM   12  H   UNK N   1      25.926  20.174   7.201  0.00  0.00     0.217 HD
ENDBRANCH   9  11
BRANCH  10  13
HETATM   13  C   UNK N   1      28.566  18.401   8.629  0.00  0.00     0.206 C 
BRANCH  13  14
HETATM   14  O   UNK N   1      27.339  18.203   9.262  0.00  0.00    -0.396 OA
HETATM   15  H   UNK N   1      27.299  17.863  10.169  0.00  0.00     0.209 HD
ENDBRANCH  13  14
ENDBRANCH  10  13
ENDBRANCH   2   3
ENDBRANCH   1   2
BRANCH   1  16
HETATM   16  S   UNK N   1      32.536  15.409   6.121  0.00  0.00    -0.093 SA
BRANCH  16  17
HETATM   17  C   UNK N   1      32.257  16.605   7.464  0.00  0.00     0.127 C 
BRANCH  17  18
HETATM   18  C   UNK N   1      33.092  16.286   8.655  0.00  0.00    -0.021 A 
HETATM   19  C   UNK N   1      32.747  15.184   9.436  0.00  0.00     0.096 A 
HETATM   20  N   UNK N   1      33.493  14.853  10.522  0.00  0.00    -0.367 N 
HETATM   21  C   UNK N   1      34.589  15.571  10.878  0.00  0.00     0.039 A 
ATOM     22  HN  UNK N   1      33.222  14.047  11.084  1.00  0.00     0.165 HD
HETATM   23  C   UNK N   1      35.372  15.157  12.076  0.00  0.00     0.071 C 
HETATM   24  C   UNK N   1      34.983  16.685  10.120  0.00  0.00     0.096 A 
HETATM   25  C   UNK N   1      34.224  17.055   8.985  0.00  0.00     0.009 A 
BRANCH  24  26
HETATM   26  O   UNK N   1      36.077  17.379  10.482  0.00  0.00    -0.358 OA
HETATM   27  H   UNK N   1      36.441  18.020   9.903  0.00  0.00     0.217 HD
ENDBRANCH  24  26
BRANCH  25  28
HETATM   28  C   UNK N   1      34.579  18.237   8.102  0.00  0.00     0.206 C 
BRANCH  28  29
HETATM   29  O   UNK N   1      35.347  19.213   8.735  0.00  0.00    -0.396 OA
HETATM   30  H   UNK N   1      35.337  19.305   9.701  0.00  0.00     0.209 HD
ENDBRANCH  28  29
ENDBRANCH  25  28
ENDBRANCH  17  18
ENDBRANCH  16  17
ENDBRANCH   1  16
TORSDOF 11
ENDMDL
MODEL 2
REMARK VINA RESULT:      -6.7      2.040      2.473
REMARK  11 active torsions:
REMARK  status: ('A' for Active; 'I' for Inactive)
REMARK    1  A    between atoms: C_13  and  C_5 
REMARK    2  A    between atoms: O_21  and  C_5 
REMARK    3  A    between atoms: C_14  and  C_6 
REMARK    4  A    between atoms: O_22  and  C_6 
REMARK    5  A    between atoms: C_11  and  C_7 
REMARK    6  A    between atoms: S_25  and  C_7 
REMARK    7  A    between atoms: C_12  and  C_8 
REMARK    8  A    between atoms: S_26  and  C_8 
REMARK    9  A    between atoms: O_23  and  C_15 
REMARK   10  A    between atoms: O_24  and  C_16 
REMARK   11  A    between atoms: S_26  and  S_25 
ROOT
HETATM    1  S   UNK N   1      31.953  16.845   6.338  0.00  0.00    -0.093 SA
ENDROOT
BRANCH   1   2
HETATM    2  C   UNK N   1      30.260  16.664   6.984  0.00  0.00     0.127 C 
BRANCH   2   3
HETATM    3  C   UNK N   1      29.349  17.691   6.405  0.00  0.00    -0.021 A 
HETATM    4  C   UNK N   1      29.289  17.826   5.018  0.00  0.00     0.096 A 
HETATM    5  N   UNK N   1      28.462  18.741   4.454  0.00  0.00    -0.367 N 
HETATM    6  C   UNK N   1      27.670  19.545   5.209  0.00  0.00     0.039 A 
ATOM      7  HN  UNK N   1      28.434  18.829   3.438  1.00  0.00     0.165 HD
HETATM    8  C   UNK N   1      26.777  20.528   4.533  0.00  0.00     0.071 C 
HETATM    9  C   UNK N   1      27.688  19.447   6.610  0.00  0.00     0.096 A 
HETATM   10  C   UNK N   1      28.543  18.503   7.226  0.00  0.00     0.009 A 
BRANCH   9  11
HETATM   11  O   UNK N   1      26.891  20.244   7.342  0.00  0.00    -0.358 OA
HETATM   12  H   UNK N   1      26.462  19.911   8.104  0.00  0.00     0.217 HD
ENDBRANCH   9  11
BRANCH  10  13
HETATM   13  C   UNK N   1      28.623  18.318   8.729  0.00  0.00     0.206 C 
BRANCH  13  14
HETATM   14  O   UNK N   1      27.385  18.172   9.355  0.00  0.00    -0.396 OA
HETATM   15  H   UNK N   1      26.639  18.745   9.120  0.00  0.00     0.209 HD
ENDBRANCH  13  14
ENDBRANCH  10  13
ENDBRANCH   2   3
ENDBRANCH   1   2
BRANCH   1  16
HETATM   16  S   UNK N   1      32.620  17.519   8.231  0.00  0.00    -0.093 SA
BRANCH  16  17
HETATM   17  C   UNK N   1      34.168  16.584   8.034  0.00  0.00     0.127 C 
BRANCH  17  18
HETATM   18  C   UNK N   1      34.579  15.942   9.314  0.00  0.00    -0.021 A 
HETATM   19  C   UNK N   1      35.307  16.694  10.234  0.00  0.00     0.096 A 
HETATM   20  N   UNK N   1      35.688  16.148  11.418  0.00  0.00    -0.367 N 
HETATM   21  C   UNK N   1      35.372  14.868  11.745  0.00  0.00     0.039 A 
ATOM     22  HN  UNK N   1      36.224  16.712  12.076  1.00  0.00     0.165 HD
HETATM   23  C   UNK N   1      35.811  14.325  13.061  0.00  0.00     0.071 C 
HETATM   24  C   UNK N   1      34.634  14.071  10.856  0.00  0.00     0.096 A 
HETATM   25  C   UNK N   1      34.226  14.613   9.614  0.00  0.00     0.009 A 
BRANCH  24  26
HETATM   26  O   UNK N   1      34.322  12.808  11.200  0.00  0.00    -0.358 OA
HETATM   27  H   UNK N   1      34.960  12.264  11.618  0.00  0.00     0.217 HD
ENDBRANCH  24  26
BRANCH  25  28
HETATM   28  C   UNK N   1      33.419  13.829   8.596  0.00  0.00     0.206 C 
BRANCH  28  29
HETATM   29  O   UNK N   1      32.322  13.156   9.131  0.00  0.00    -0.396 OA
HETATM   30  H   UNK N   1      32.445  12.423   9.755  0.00  0.00     0.209 HD
ENDBRANCH  28  29
ENDBRANCH  25  28
ENDBRANCH  17  18
ENDBRANCH  16  17
ENDBRANCH   1  16
TORSDOF 11
ENDMDL
MODEL 3
REMARK VINA RESULT:      -6.6      0.715      7.606
REMARK  11 active torsions:
REMARK  status: ('A' for Active; 'I' for Inactive)
REMARK    1  A    between atoms: C_13  and  C_5 
REMARK    2  A    between atoms: O_21  and  C_5 
REMARK    3  A    between atoms: C_14  and  C_6 
REMARK    4  A    between atoms: O_22  and  C_6 
REMARK    5  A    between atoms: C_11  and  C_7 
REMARK    6  A    between atoms: S_25  and  C_7 
REMARK    7  A    between atoms: C_12  and  C_8 
REMARK    8  A    between atoms: S_26  and  C_8 
REMARK    9  A    between atoms: O_23  and  C_15 
REMARK   10  A    between atoms: O_24  and  C_16 
REMARK   11  A    between atoms: S_26  and  S_25 
ROOT
HETATM    1  S   UNK N   1      31.901  14.481   6.039  0.00  0.00    -0.093 SA
ENDROOT
BRANCH   1   2
HETATM    2  C   UNK N   1      32.540  16.051   6.704  0.00  0.00     0.127 C 
BRANCH   2   3
HETATM    3  C   UNK N   1      33.203  15.849   8.023  0.00  0.00    -0.021 A 
HETATM    4  C   UNK N   1      32.884  14.711   8.764  0.00  0.00     0.096 A 
HETATM    5  N   UNK N   1      33.477  14.486   9.963  0.00  0.00    -0.367 N 
HETATM    6  C   UNK N   1      34.394  15.346  10.476  0.00  0.00     0.039 A 
ATOM      7  HN  UNK N   1      33.227  13.650  10.493  1.00  0.00     0.165 HD
HETATM    8  C   UNK N   1      35.016  15.041  11.795  0.00  0.00     0.071 C 
HETATM    9  C   UNK N   1      34.756  16.503   9.768  0.00  0.00     0.096 A 
HETATM   10  C   UNK N   1      34.152  16.766   8.516  0.00  0.00     0.009 A 
BRANCH   9  11
HETATM   11  O   UNK N   1      35.672  17.339  10.287  0.00  0.00    -0.358 OA
HETATM   12  H   UNK N   1      35.789  18.194   9.924  0.00  0.00     0.217 HD
ENDBRANCH   9  11
BRANCH  10  13
HETATM   13  C   UNK N   1      34.486  17.983   7.676  0.00  0.00     0.206 C 
BRANCH  13  14
HETATM   14  O   UNK N   1      34.881  19.098   8.416  0.00  0.00    -0.396 OA
HETATM   15  H   UNK N   1      34.573  19.986   8.177  0.00  0.00     0.209 HD
ENDBRANCH  13  14
ENDBRANCH  10  13
ENDBRANCH   2   3
ENDBRANCH   1   2
BRANCH   1  16
HETATM   16  S   UNK N   1      30.383  15.524   4.995  0.00  0.00    -0.093 SA
BRANCH  16  17
HETATM   17  C   UNK N   1      29.853  16.327   6.540  0.00  0.00     0.127 C 
BRANCH  17  18
HETATM   18  C   UNK N   1      29.093  17.578   6.266  0.00  0.00    -0.021 A 
HETATM   19  C   UNK N   1      29.111  18.100   4.974  0.00  0.00     0.096 A 
HETATM   20  N   UNK N   1      28.419  19.232   4.682  0.00  0.00    -0.367 N 
HETATM   21  C   UNK N   1      27.691  19.883   5.624  0.00  0.00     0.039 A 
ATOM     22  HN  UNK N   1      28.448  19.601   3.732  1.00  0.00     0.165 HD
HETATM   23  C   UNK N   1      26.947  21.117   5.244  0.00  0.00     0.071 C 
HETATM   24  C   UNK N   1      27.635  19.395   6.939  0.00  0.00     0.096 A 
HETATM   25  C   UNK N   1      28.347  18.219   7.273  0.00  0.00     0.009 A 
BRANCH  24  26
HETATM   26  O   UNK N   1      26.901  20.048   7.858  0.00  0.00    -0.358 OA
HETATM   27  H   UNK N   1      25.972  19.924   7.894  0.00  0.00     0.217 HD
ENDBRANCH  24  26
BRANCH  25  28
HETATM   28  C   UNK N   1      28.337  17.613   8.665  0.00  0.00     0.206 C 
BRANCH  28  29
HETATM   29  O   UNK N   1      28.443  18.546   9.695  0.00  0.00    -0.396 OA
HETATM   30  H   UNK N   1      29.207  19.142   9.750  0.00  0.00     0.209 HD
ENDBRANCH  28  29
ENDBRANCH  25  28
ENDBRANCH  17  18
ENDBRANCH  16  17
ENDBRANCH   1  16
TORSDOF 11
ENDMDL
MODEL 4
REMARK VINA RESULT:      -6.4      3.963      6.048
REMARK  11 active torsions:
REMARK  status: ('A' for Active; 'I' for Inactive)
REMARK    1  A    between atoms: C_13  and  C_5 
REMARK    2  A    between atoms: O_21  and  C_5 
REMARK    3  A    between atoms: C_14  and  C_6 
REMARK    4  A    between atoms: O_22  and  C_6 
REMARK    5  A    between atoms: C_11  and  C_7 
REMARK    6  A    between atoms: S_25  and  C_7 
REMARK    7  A    between atoms: C_12  and  C_8 
REMARK    8  A    between atoms: S_26  and  C_8 
REMARK    9  A    between atoms: O_23  and  C_15 
REMARK   10  A    between atoms: O_24  and  C_16 
REMARK   11  A    between atoms: S_26  and  S_25 
ROOT
HETATM    1  S   UNK N   1      25.947  16.789   3.445  0.00  0.00    -0.093 SA
ENDROOT
BRANCH   1   2
HETATM    2  C   UNK N   1      25.095  17.827   4.675  0.00  0.00     0.127 C 
BRANCH   2   3
HETATM    3  C   UNK N   1      23.771  18.286   4.171  0.00  0.00    -0.021 A 
HETATM    4  C   UNK N   1      22.671  17.442   4.318  0.00  0.00     0.096 A 
HETATM    5  N   UNK N   1      21.446  17.831   3.883  0.00  0.00    -0.367 N 
HETATM    6  C   UNK N   1      21.249  19.041   3.300  0.00  0.00     0.039 A 
ATOM      7  HN  UNK N   1      20.653  17.198   3.996  1.00  0.00     0.165 HD
HETATM    8  C   UNK N   1      19.880  19.416   2.848  0.00  0.00     0.071 C 
HETATM    9  C   UNK N   1      22.322  19.931   3.133  0.00  0.00     0.096 A 
HETATM   10  C   UNK N   1      23.612  19.552   3.575  0.00  0.00     0.009 A 
BRANCH   9  11
HETATM   11  O   UNK N   1      22.108  21.129   2.562  0.00  0.00    -0.358 OA
HETATM   12  H   UNK N   1      22.816  21.732   2.451  0.00  0.00     0.217 HD
ENDBRANCH   9  11
BRANCH  10  13
HETATM   13  C   UNK N   1      24.827  20.449   3.445  0.00  0.00     0.206 C 
BRANCH  13  14
HETATM   14  O   UNK N   1      25.052  20.926   2.154  0.00  0.00    -0.396 OA
HETATM   15  H   UNK N   1      25.474  21.787   2.009  0.00  0.00     0.209 HD
ENDBRANCH  13  14
ENDBRANCH  10  13
ENDBRANCH   2   3
ENDBRANCH   1   2
BRANCH   1  16
HETATM   16  S   UNK N   1      27.794  17.701   3.931  0.00  0.00    -0.093 SA
BRANCH  16  17
HETATM   17  C   UNK N   1      27.491  17.404   5.701  0.00  0.00     0.127 C 
BRANCH  17  18
HETATM   18  C   UNK N   1      28.753  17.067   6.416  0.00  0.00    -0.021 A 
HETATM   19  C   UNK N   1      29.609  16.123   5.851  0.00  0.00     0.096 A 
HETATM   20  N   UNK N   1      30.775  15.799   6.467  0.00  0.00    -0.367 N 
HETATM   21  C   UNK N   1      31.147  16.379   7.637  0.00  0.00     0.039 A 
ATOM     22  HN  UNK N   1      31.386  15.103   6.041  1.00  0.00     0.165 HD
HETATM   23  C   UNK N   1      32.441  15.989   8.263  0.00  0.00     0.071 C 
HETATM   24  C   UNK N   1      30.324  17.341   8.244  0.00  0.00     0.096 A 
HETATM   25  C   UNK N   1      29.101  17.696   7.626  0.00  0.00     0.009 A 
BRANCH  24  26
HETATM   26  O   UNK N   1      30.712  17.912   9.398  0.00  0.00    -0.358 OA
HETATM   27  H   UNK N   1      31.331  17.479   9.953  0.00  0.00     0.217 HD
ENDBRANCH  24  26
BRANCH  25  28
HETATM   28  C   UNK N   1      28.154  18.731   8.204  0.00  0.00     0.206 C 
BRANCH  28  29
HETATM   29  O   UNK N   1      27.501  18.324   9.366  0.00  0.00    -0.396 OA
HETATM   30  H   UNK N   1      27.992  18.201  10.195  0.00  0.00     0.209 HD
ENDBRANCH  28  29
ENDBRANCH  25  28
ENDBRANCH  17  18
ENDBRANCH  16  17
ENDBRANCH   1  16
TORSDOF 11
ENDMDL
MODEL 5
REMARK VINA RESULT:      -6.3     12.671     16.345
REMARK  11 active torsions:
REMARK  status: ('A' for Active; 'I' for Inactive)
REMARK    1  A    between atoms: C_13  and  C_5 
REMARK    2  A    between atoms: O_21  and  C_5 
REMARK    3  A    between atoms: C_14  and  C_6 
REMARK    4  A    between atoms: O_22  and  C_6 
REMARK    5  A    between atoms: C_11  and  C_7 
REMARK    6  A    between atoms: S_25  and  C_7 
REMARK    7  A    between atoms: C_12  and  C_8 
REMARK    8  A    between atoms: S_26  and  C_8 
REMARK    9  A    between atoms: O_23  and  C_15 
REMARK   10  A    between atoms: O_24  and  C_16 
REMARK   11  A    between atoms: S_26  and  S_25 
ROOT
HETATM    1  S   UNK N   1      28.928  23.493  -7.020  0.00  0.00    -0.093 SA
ENDROOT
BRANCH   1   2
HETATM    2  C   UNK N   1      29.039  23.135  -5.239  0.00  0.00     0.127 C 
BRANCH   2   3
HETATM    3  C   UNK N   1      30.319  22.453  -4.903  0.00  0.00    -0.021 A 
HETATM    4  C   UNK N   1      31.155  22.051  -5.946  0.00  0.00     0.096 A 
HETATM    5  N   UNK N   1      32.336  21.438  -5.679  0.00  0.00    -0.367 N 
HETATM    6  C   UNK N   1      32.743  21.201  -4.406  0.00  0.00     0.039 A 
ATOM      7  HN  UNK N   1      32.932  21.147  -6.455  1.00  0.00     0.165 HD
HETATM    8  C   UNK N   1      34.054  20.530  -4.176  0.00  0.00     0.071 C 
HETATM    9  C   UNK N   1      31.943  21.591  -3.321  0.00  0.00     0.096 A 
HETATM   10  C   UNK N   1      30.705  22.230  -3.568  0.00  0.00     0.009 A 
BRANCH   9  11
HETATM   11  O   UNK N   1      32.366  21.357  -2.066  0.00  0.00    -0.358 OA
HETATM   12  H   UNK N   1      33.244  21.567  -1.818  0.00  0.00     0.217 HD
ENDBRANCH   9  11
BRANCH  10  13
HETATM   13  C   UNK N   1      29.779  22.694  -2.460  0.00  0.00     0.206 C 
BRANCH  13  14
HETATM   14  O   UNK N   1      30.433  23.086  -1.293  0.00  0.00    -0.396 OA
HETATM   15  H   UNK N   1      31.397  23.196  -1.277  0.00  0.00     0.209 HD
ENDBRANCH  13  14
ENDBRANCH  10  13
ENDBRANCH   2   3
ENDBRANCH   1   2
BRANCH   1  16
HETATM   16  S   UNK N   1      29.457  25.512  -6.664  0.00  0.00    -0.093 SA
BRANCH  16  17
HETATM   17  C   UNK N   1      27.730  26.025  -6.922  0.00  0.00     0.127 C 
BRANCH  17  18
HETATM   18  C   UNK N   1      27.360  27.150  -6.019  0.00  0.00    -0.021 A 
HETATM   19  C   UNK N   1      27.789  28.436  -6.344  0.00  0.00     0.096 A 
HETATM   20  N   UNK N   1      27.461  29.489  -5.552  0.00  0.00    -0.367 N 
HETATM   21  C   UNK N   1      26.707  29.330  -4.434  0.00  0.00     0.039 A 
ATOM     22  HN  UNK N   1      27.788  30.421  -5.804  1.00  0.00     0.165 HD
HETATM   23  C   UNK N   1      26.373  30.524  -3.607  0.00  0.00     0.071 C 
HETATM   24  C   UNK N   1      26.245  28.057  -4.066  0.00  0.00     0.096 A 
HETATM   25  C   UNK N   1      26.574  26.940  -4.870  0.00  0.00     0.009 A 
BRANCH  24  26
HETATM   26  O   UNK N   1      25.492  27.920  -2.959  0.00  0.00    -0.358 OA
HETATM   27  H   UNK N   1      25.577  27.156  -2.424  0.00  0.00     0.217 HD
ENDBRANCH  24  26
BRANCH  25  28
HETATM   28  C   UNK N   1      26.110  25.530  -4.556  0.00  0.00     0.206 C 
BRANCH  28  29
HETATM   29  O   UNK N   1      26.361  25.123  -3.247  0.00  0.00    -0.396 OA
HETATM   30  H   UNK N   1      27.250  24.841  -2.976  0.00  0.00     0.209 HD
ENDBRANCH  28  29
ENDBRANCH  25  28
ENDBRANCH  17  18
ENDBRANCH  16  17
ENDBRANCH   1  16
TORSDOF 11
ENDMDL
MODEL 6
REMARK VINA RESULT:      -6.3      1.799      2.219
REMARK  11 active torsions:
REMARK  status: ('A' for Active; 'I' for Inactive)
REMARK    1  A    between atoms: C_13  and  C_5 
REMARK    2  A    between atoms: O_21  and  C_5 
REMARK    3  A    between atoms: C_14  and  C_6 
REMARK    4  A    between atoms: O_22  and  C_6 
REMARK    5  A    between atoms: C_11  and  C_7 
REMARK    6  A    between atoms: S_25  and  C_7 
REMARK    7  A    between atoms: C_12  and  C_8 
REMARK    8  A    between atoms: S_26  and  C_8 
REMARK    9  A    between atoms: O_23  and  C_15 
REMARK   10  A    between atoms: O_24  and  C_16 
REMARK   11  A    between atoms: S_26  and  S_25 
ROOT
HETATM    1  S   UNK N   1      32.088  17.053   6.314  0.00  0.00    -0.093 SA
ENDROOT
BRANCH   1   2
HETATM    2  C   UNK N   1      30.380  16.689   6.831  0.00  0.00     0.127 C 
BRANCH   2   3
HETATM    3  C   UNK N   1      29.430  17.713   6.314  0.00  0.00    -0.021 A 
HETATM    4  C   UNK N   1      29.349  17.915   4.936  0.00  0.00     0.096 A 
HETATM    5  N   UNK N   1      28.486  18.830   4.428  0.00  0.00    -0.367 N 
HETATM    6  C   UNK N   1      27.678  19.569   5.231  0.00  0.00     0.039 A 
ATOM      7  HN  UNK N   1      28.444  18.967   3.418  1.00  0.00     0.165 HD
HETATM    8  C   UNK N   1      26.745  20.554   4.614  0.00  0.00     0.071 C 
HETATM    9  C   UNK N   1      27.716  19.400   6.624  0.00  0.00     0.096 A 
HETATM   10  C   UNK N   1      28.608  18.455   7.183  0.00  0.00     0.009 A 
BRANCH   9  11
HETATM   11  O   UNK N   1      26.902  20.133   7.403  0.00  0.00    -0.358 OA
HETATM   12  H   UNK N   1      26.945  20.056   8.335  0.00  0.00     0.217 HD
ENDBRANCH   9  11
BRANCH  10  13
HETATM   13  C   UNK N   1      28.711  18.198   8.674  0.00  0.00     0.206 C 
BRANCH  13  14
HETATM   14  O   UNK N   1      27.485  18.168   9.337  0.00  0.00    -0.396 OA
HETATM   15  H   UNK N   1      26.855  17.447   9.182  0.00  0.00     0.209 HD
ENDBRANCH  13  14
ENDBRANCH  10  13
ENDBRANCH   2   3
ENDBRANCH   1   2
BRANCH   1  16
HETATM   16  S   UNK N   1      32.637  17.415   8.326  0.00  0.00    -0.093 SA
BRANCH  16  17
HETATM   17  C   UNK N   1      34.245  16.610   8.047  0.00  0.00     0.127 C 
BRANCH  17  18
HETATM   18  C   UNK N   1      34.304  15.277   8.710  0.00  0.00    -0.021 A 
HETATM   19  C   UNK N   1      33.732  14.183   8.063  0.00  0.00     0.096 A 
HETATM   20  N   UNK N   1      33.778  12.950   8.630  0.00  0.00    -0.367 N 
HETATM   21  C   UNK N   1      34.380  12.740   9.829  0.00  0.00     0.039 A 
ATOM     22  HN  UNK N   1      33.350  12.163   8.144  1.00  0.00     0.165 HD
HETATM   23  C   UNK N   1      34.405  11.364  10.399  0.00  0.00     0.071 C 
HETATM   24  C   UNK N   1      34.976  13.807  10.519  0.00  0.00     0.096 A 
HETATM   25  C   UNK N   1      34.942  15.104   9.954  0.00  0.00     0.009 A 
BRANCH  24  26
HETATM   26  O   UNK N   1      35.576  13.579  11.701  0.00  0.00    -0.358 OA
HETATM   27  H   UNK N   1      35.857  12.715  11.928  0.00  0.00     0.217 HD
ENDBRANCH  24  26
BRANCH  25  28
HETATM   28  C   UNK N   1      35.568  16.314  10.622  0.00  0.00     0.206 C 
BRANCH  28  29
HETATM   29  O   UNK N   1      36.925  16.171  10.908  0.00  0.00    -0.396 OA
HETATM   30  H   UNK N   1      37.222  15.596  11.631  0.00  0.00     0.209 HD
ENDBRANCH  28  29
ENDBRANCH  25  28
ENDBRANCH  17  18
ENDBRANCH  16  17
ENDBRANCH   1  16
TORSDOF 11
ENDMDL
MODEL 7
REMARK VINA RESULT:      -6.3     12.627     14.426
REMARK  11 active torsions:
REMARK  status: ('A' for Active; 'I' for Inactive)
REMARK    1  A    between atoms: C_13  and  C_5 
REMARK    2  A    between atoms: O_21  and  C_5 
REMARK    3  A    between atoms: C_14  and  C_6 
REMARK    4  A    between atoms: O_22  and  C_6 
REMARK    5  A    between atoms: C_11  and  C_7 
REMARK    6  A    between atoms: S_25  and  C_7 
REMARK    7  A    between atoms: C_12  and  C_8 
REMARK    8  A    between atoms: S_26  and  C_8 
REMARK    9  A    between atoms: O_23  and  C_15 
REMARK   10  A    between atoms: O_24  and  C_16 
REMARK   11  A    between atoms: S_26  and  S_25 
ROOT
HETATM    1  S   UNK N   1      29.527  24.963  -7.042  0.00  0.00    -0.093 SA
ENDROOT
BRANCH   1   2
HETATM    2  C   UNK N   1      27.818  24.856  -6.422  0.00  0.00     0.127 C 
BRANCH   2   3
HETATM    3  C   UNK N   1      27.467  26.048  -5.601  0.00  0.00    -0.021 A 
HETATM    4  C   UNK N   1      27.767  27.316  -6.099  0.00  0.00     0.096 A 
HETATM    5  N   UNK N   1      27.450  28.425  -5.385  0.00  0.00    -0.367 N 
HETATM    6  C   UNK N   1      26.834  28.343  -4.178  0.00  0.00     0.039 A 
ATOM      7  HN  UNK N   1      27.681  29.344  -5.764  1.00  0.00     0.165 HD
HETATM    8  C   UNK N   1      26.505  29.597  -3.443  0.00  0.00     0.071 C 
HETATM    9  C   UNK N   1      26.505  27.091  -3.633  0.00  0.00     0.096 A 
HETATM   10  C   UNK N   1      26.826  25.916  -4.354  0.00  0.00     0.009 A 
BRANCH   9  11
HETATM   11  O   UNK N   1      25.888  27.028  -2.441  0.00  0.00    -0.358 OA
HETATM   12  H   UNK N   1      26.336  26.684  -1.695  0.00  0.00     0.217 HD
ENDBRANCH   9  11
BRANCH  10  13
HETATM   13  C   UNK N   1      26.501  24.524  -3.850  0.00  0.00     0.206 C 
BRANCH  13  14
HETATM   14  O   UNK N   1      26.865  24.295  -2.523  0.00  0.00    -0.396 OA
HETATM   15  H   UNK N   1      26.954  23.392  -2.182  0.00  0.00     0.209 HD
ENDBRANCH  13  14
ENDBRANCH  10  13
ENDBRANCH   2   3
ENDBRANCH   1   2
BRANCH   1  16
HETATM   16  S   UNK N   1      29.553  22.873  -7.377  0.00  0.00    -0.093 SA
BRANCH  16  17
HETATM   17  C   UNK N   1      29.467  22.571  -5.584  0.00  0.00     0.127 C 
BRANCH  17  18
HETATM   18  C   UNK N   1      30.736  21.981  -5.074  0.00  0.00    -0.021 A 
HETATM   19  C   UNK N   1      31.665  21.498  -5.993  0.00  0.00     0.096 A 
HETATM   20  N   UNK N   1      32.839  20.965  -5.567  0.00  0.00    -0.367 N 
HETATM   21  C   UNK N   1      33.148  20.891  -4.247  0.00  0.00     0.039 A 
ATOM     22  HN  UNK N   1      33.504  20.612  -6.255  1.00  0.00     0.165 HD
HETATM   23  C   UNK N   1      34.455  20.302  -3.839  0.00  0.00     0.071 C 
HETATM   24  C   UNK N   1      32.250  21.369  -3.280  0.00  0.00     0.096 A 
HETATM   25  C   UNK N   1      31.018  21.927  -3.695  0.00  0.00     0.009 A 
BRANCH  24  26
HETATM   26  O   UNK N   1      32.577  21.295  -1.978  0.00  0.00    -0.358 OA
HETATM   27  H   UNK N   1      33.465  21.138  -1.723  0.00  0.00     0.217 HD
ENDBRANCH  24  26
BRANCH  25  28
HETATM   28  C   UNK N   1      29.991  22.478  -2.723  0.00  0.00     0.206 C 
BRANCH  28  29
HETATM   29  O   UNK N   1      30.537  23.027  -1.564  0.00  0.00    -0.396 OA
HETATM   30  H   UNK N   1      31.226  23.709  -1.615  0.00  0.00     0.209 HD
ENDBRANCH  28  29
ENDBRANCH  25  28
ENDBRANCH  17  18
ENDBRANCH  16  17
ENDBRANCH   1  16
TORSDOF 11
ENDMDL
MODEL 8
REMARK VINA RESULT:      -6.2      8.540     10.873
REMARK  11 active torsions:
REMARK  status: ('A' for Active; 'I' for Inactive)
REMARK    1  A    between atoms: C_13  and  C_5 
REMARK    2  A    between atoms: O_21  and  C_5 
REMARK    3  A    between atoms: C_14  and  C_6 
REMARK    4  A    between atoms: O_22  and  C_6 
REMARK    5  A    between atoms: C_11  and  C_7 
REMARK    6  A    between atoms: S_25  and  C_7 
REMARK    7  A    between atoms: C_12  and  C_8 
REMARK    8  A    between atoms: S_26  and  C_8 
REMARK    9  A    between atoms: O_23  and  C_15 
REMARK   10  A    between atoms: O_24  and  C_16 
REMARK   11  A    between atoms: S_26  and  S_25 
ROOT
HETATM    1  S   UNK N   1      20.966  16.796   3.391  0.00  0.00    -0.093 SA
ENDROOT
BRANCH   1   2
HETATM    2  C   UNK N   1      21.262  18.276   4.410  0.00  0.00     0.127 C 
BRANCH   2   3
HETATM    3  C   UNK N   1      22.659  18.769   4.253  0.00  0.00    -0.021 A 
HETATM    4  C   UNK N   1      23.662  18.193   5.034  0.00  0.00     0.096 A 
HETATM    5  N   UNK N   1      24.948  18.607   4.910  0.00  0.00    -0.367 N 
HETATM    6  C   UNK N   1      25.302  19.579   4.030  0.00  0.00     0.039 A 
ATOM      7  HN  UNK N   1      25.668  18.177   5.492  1.00  0.00     0.165 HD
HETATM    8  C   UNK N   1      26.732  19.987   3.934  0.00  0.00     0.071 C 
HETATM    9  C   UNK N   1      24.332  20.187   3.217  0.00  0.00     0.096 A 
HETATM   10  C   UNK N   1      22.982  19.778   3.327  0.00  0.00     0.009 A 
BRANCH   9  11
HETATM   11  O   UNK N   1      24.701  21.142   2.346  0.00  0.00    -0.358 OA
HETATM   12  H   UNK N   1      25.502  21.060   1.868  0.00  0.00     0.217 HD
ENDBRANCH   9  11
BRANCH  10  13
HETATM   13  C   UNK N   1      21.869  20.370   2.484  0.00  0.00     0.206 C 
BRANCH  13  14
HETATM   14  O   UNK N   1      21.709  21.748   2.632  0.00  0.00    -0.396 OA
HETATM   15  H   UNK N   1      22.188  22.367   2.060  0.00  0.00     0.209 HD
ENDBRANCH  13  14
ENDBRANCH  10  13
ENDBRANCH   2   3
ENDBRANCH   1   2
BRANCH   1  16
HETATM   16  S   UNK N   1      19.448  16.163   4.724  0.00  0.00    -0.093 SA
BRANCH  16  17
HETATM   17  C   UNK N   1      20.459  16.686   6.145  0.00  0.00     0.127 C 
BRANCH  17  18
HETATM   18  C   UNK N   1      20.925  15.515   6.937  0.00  0.00    -0.021 A 
HETATM   19  C   UNK N   1      21.883  14.669   6.378  0.00  0.00     0.096 A 
HETATM   20  N   UNK N   1      22.342  13.598   7.075  0.00  0.00    -0.367 N 
HETATM   21  C   UNK N   1      21.896  13.319   8.326  0.00  0.00     0.039 A 
ATOM     22  HN  UNK N   1      23.039  12.989   6.648  1.00  0.00     0.165 HD
HETATM   23  C   UNK N   1      22.441  12.133   9.045  0.00  0.00     0.071 C 
HETATM   24  C   UNK N   1      20.936  14.142   8.937  0.00  0.00     0.096 A 
HETATM   25  C   UNK N   1      20.437  15.264   8.234  0.00  0.00     0.009 A 
BRANCH  24  26
HETATM   26  O   UNK N   1      20.511  13.855  10.181  0.00  0.00    -0.358 OA
HETATM   27  H   UNK N   1      19.599  13.721  10.347  0.00  0.00     0.217 HD
ENDBRANCH  24  26
BRANCH  25  28
HETATM   28  C   UNK N   1      19.407  16.214   8.816  0.00  0.00     0.206 C 
BRANCH  28  29
HETATM   29  O   UNK N   1      18.360  15.582   9.485  0.00  0.00    -0.396 OA
HETATM   30  H   UNK N   1      18.475  14.696   9.864  0.00  0.00     0.209 HD
ENDBRANCH  28  29
ENDBRANCH  25  28
ENDBRANCH  17  18
ENDBRANCH  16  17
ENDBRANCH   1  16
TORSDOF 11
ENDMDL
MODEL 9
REMARK VINA RESULT:      -6.1      9.043     10.671
REMARK  11 active torsions:
REMARK  status: ('A' for Active; 'I' for Inactive)
REMARK    1  A    between atoms: C_13  and  C_5 
REMARK    2  A    between atoms: O_21  and  C_5 
REMARK    3  A    between atoms: C_14  and  C_6 
REMARK    4  A    between atoms: O_22  and  C_6 
REMARK    5  A    between atoms: C_11  and  C_7 
REMARK    6  A    between atoms: S_25  and  C_7 
REMARK    7  A    between atoms: C_12  and  C_8 
REMARK    8  A    between atoms: S_26  and  C_8 
REMARK    9  A    between atoms: O_23  and  C_15 
REMARK   10  A    between atoms: O_24  and  C_16 
REMARK   11  A    between atoms: S_26  and  S_25 
ROOT
HETATM    1  S   UNK N   1      22.961  15.606   6.245  0.00  0.00    -0.093 SA
ENDROOT
BRANCH   1   2
HETATM    2  C   UNK N   1      21.891  15.378   4.790  0.00  0.00     0.127 C 
BRANCH   2   3
HETATM    3  C   UNK N   1      21.486  16.688   4.207  0.00  0.00    -0.021 A 
HETATM    4  C   UNK N   1      22.248  17.817   4.506  0.00  0.00     0.096 A 
HETATM    5  N   UNK N   1      21.918  19.024   3.983  0.00  0.00    -0.367 N 
HETATM    6  C   UNK N   1      20.851  19.175   3.158  0.00  0.00     0.039 A 
ATOM      7  HN  UNK N   1      22.486  19.840   4.217  1.00  0.00     0.165 HD
HETATM    8  C   UNK N   1      20.541  20.526   2.609  0.00  0.00     0.071 C 
HETATM    9  C   UNK N   1      20.053  18.070   2.821  0.00  0.00     0.096 A 
HETATM   10  C   UNK N   1      20.372  16.798   3.353  0.00  0.00     0.009 A 
BRANCH   9  11
HETATM   11  O   UNK N   1      19.005  18.235   1.995  0.00  0.00    -0.358 OA
HETATM   12  H   UNK N   1      19.136  18.560   1.127  0.00  0.00     0.217 HD
ENDBRANCH   9  11
BRANCH  10  13
HETATM   13  C   UNK N   1      19.575  15.547   3.038  0.00  0.00     0.206 C 
BRANCH  13  14
HETATM   14  O   UNK N   1      19.324  15.355   1.679  0.00  0.00    -0.396 OA
HETATM   15  H   UNK N   1      19.040  14.490   1.345  0.00  0.00     0.209 HD
ENDBRANCH  13  14
ENDBRANCH  10  13
ENDBRANCH   2   3
ENDBRANCH   1   2
BRANCH   1  16
HETATM   16  S   UNK N   1      23.229  13.512   6.396  0.00  0.00    -0.093 SA
BRANCH  16  17
HETATM   17  C   UNK N   1      23.899  13.705   8.077  0.00  0.00     0.127 C 
BRANCH  17  18
HETATM   18  C   UNK N   1      22.917  13.260   9.105  0.00  0.00    -0.021 A 
HETATM   19  C   UNK N   1      21.564  13.517   8.891  0.00  0.00     0.096 A 
HETATM   20  N   UNK N   1      20.638  13.115   9.799  0.00  0.00    -0.367 N 
HETATM   21  C   UNK N   1      20.991  12.453  10.930  0.00  0.00     0.039 A 
ATOM     22  HN  UNK N   1      19.653  13.316   9.627  1.00  0.00     0.165 HD
HETATM   23  C   UNK N   1      19.931  12.031  11.887  0.00  0.00     0.071 C 
HETATM   24  C   UNK N   1      22.341  12.164  11.190  0.00  0.00     0.096 A 
HETATM   25  C   UNK N   1      23.328  12.573  10.263  0.00  0.00     0.009 A 
BRANCH  24  26
HETATM   26  O   UNK N   1      22.672  11.499  12.312  0.00  0.00    -0.358 OA
HETATM   27  H   UNK N   1      22.027  11.340  12.973  0.00  0.00     0.217 HD
ENDBRANCH  24  26
BRANCH  25  28
HETATM   28  C   UNK N   1      24.808  12.296  10.455  0.00  0.00     0.206 C 
BRANCH  28  29
HETATM   29  O   UNK N   1      25.222  12.298  11.787  0.00  0.00    -0.396 OA
HETATM   30  H   UNK N   1      26.161  12.210  12.015  0.00  0.00     0.209 HD
ENDBRANCH  28  29
ENDBRANCH  25  28
ENDBRANCH  17  18
ENDBRANCH  16  17
ENDBRANCH   1  16
TORSDOF 11
ENDMDL
