MODEL 1
REMARK VINA RESULT:      -7.7      0.000      0.000
REMARK  14 active torsions:
REMARK  status: ('A' for Active; 'I' for Inactive)
REMARK    1  A    between atoms: C_2  and  O_3 
REMARK    2  A    between atoms: O_3  and  C_4 
REMARK       I    between atoms: C_4  and  N_6 
REMARK       I    between atoms: N_9  and  C_12 
REMARK    3  A    between atoms: C_12  and  C_14 
REMARK    4  A    between atoms: C_14  and  C_15 
REMARK    5  A    between atoms: C_14  and  N_27 
REMARK    6  A    between atoms: C_15  and  C_16 
REMARK    7  A    between atoms: C_20  and  C_22 
REMARK    8  A    between atoms: C_22  and  N_26 
REMARK    9  A    between atoms: N_23  and  O_25 
REMARK   10  A    between atoms: N_27  and  S_28 
REMARK   11  A    between atoms: S_28  and  C_31 
REMARK   12  A    between atoms: C_32  and  C_43 
REMARK   13  A    between atoms: C_34  and  C_40 
REMARK   14  A    between atoms: C_36  and  C_37 
ROOT
HETATM    1  C   UNK N   1      20.820  15.478   2.861  0.00  0.00     0.189 C 
ENDROOT
BRANCH   1   2
HETATM    2  C   UNK N   1      21.012  17.011   2.958  0.00  0.00     0.243 C 
HETATM    3  N   UNK N   1      21.897  17.637   3.797  0.00  0.00    -0.347 N 
HETATM    4  C   UNK N   1      22.887  16.929   4.557  0.00  0.00     0.146 C 
HETATM    5  C   UNK N   1      21.939  19.087   3.875  0.00  0.00     0.146 C 
HETATM    6  C   UNK N   1      24.226  17.331   3.961  0.00  0.00     0.148 C 
HETATM    7  N   UNK N   1      24.376  18.766   4.040  0.00  0.00    -0.325 N 
HETATM    8  C   UNK N   1      25.468  19.333   4.644  0.00  0.00     0.362 C 
HETATM    9  C   UNK N   1      23.326  19.594   3.468  0.00  0.00     0.148 C 
HETATM   10  O   UNK N   1      25.501  20.546   4.806  0.00  0.00    -0.238 OA
HETATM   11  O   UNK N   1      20.333  17.704   2.214  0.00  0.00    -0.271 OA
BRANCH   8  12
HETATM   12  O   UNK N   1      26.541  18.598   5.062  0.00  0.00    -0.304 OA
BRANCH  12  13
HETATM   13  C   UNK N   1      27.766  19.133   5.404  0.00  0.00     0.176 C 
HETATM   14  C   UNK N   1      27.968  19.088   6.901  0.00  0.00     0.034 C 
ENDBRANCH  12  13
ENDBRANCH   8  12
ENDBRANCH   1   2
BRANCH   1  15
HETATM   15  C   UNK N   1      20.914  14.924   1.417  0.00  0.00     0.074 C 
BRANCH  15  16
HETATM   16  C   UNK N   1      22.144  14.135   1.114  0.00  0.00    -0.055 A 
HETATM   17  C   UNK N   1      22.075  12.954   0.373  0.00  0.00     0.007 A 
HETATM   18  C   UNK N   1      23.232  12.191   0.180  0.00  0.00     0.002 A 
HETATM   19  C   UNK N   1      24.445  12.595   0.755  0.00  0.00     0.015 A 
HETATM   20  C   UNK N   1      24.521  13.788   1.493  0.00  0.00     0.010 A 
HETATM   21  C   UNK N   1      23.365  14.557   1.638  0.00  0.00     0.022 A 
BRANCH  20  22
HETATM   22  C   UNK N   1      25.799  14.172   2.167  0.00  0.00     0.129 C 
HETATM   23  N   UNK N   1      26.310  13.506   3.153  0.00  0.00    -0.253 N 
ATOM     24  HN  UNK N   1      27.197  13.823   3.546  1.00  0.00     0.196 HD
BRANCH  23  25
HETATM   25  O   UNK N   1      25.741  12.437   3.671  0.00  0.00    -0.288 OA
HETATM   26  H   UNK N   1      25.513  12.229   4.556  0.00  0.00     0.244 HD
ENDBRANCH  23  25
BRANCH  22  27
HETATM   27  N   UNK N   1      26.509  15.292   1.680  0.00  0.00    -0.383 N 
HETATM   28  H   UNK N   1      26.608  16.203   2.043  0.00  0.00     0.157 HD
HETATM   29  H   UNK N   1      26.985  15.137   0.833  0.00  0.00     0.157 HD
ENDBRANCH  22  27
ENDBRANCH  20  22
ENDBRANCH  15  16
ENDBRANCH   1  15
BRANCH   1  30
HETATM   30  N   UNK N   1      19.568  14.973   3.405  0.00  0.00    -0.301 N 
HETATM   31  H   UNK N   1      18.878  14.439   2.876  0.00  0.00     0.173 HD
BRANCH  30  32
HETATM   32  S   UNK N   1      19.403  15.415   5.112  0.00  0.00     0.260 S 
HETATM   33  O   UNK N   1      18.510  14.169   5.202  0.00  0.00    -0.200 OA
HETATM   34  O   UNK N   1      18.138  16.261   5.302  0.00  0.00    -0.200 OA
BRANCH  32  35
HETATM   35  C   UNK N   1      20.169  14.710   6.593  0.00  0.00     0.092 A 
HETATM   36  C   UNK N   1      20.065  15.381   7.839  0.00  0.00    -0.030 A 
HETATM   37  C   UNK N   1      20.619  14.802   8.986  0.00  0.00     0.016 A 
HETATM   38  C   UNK N   1      21.281  13.572   8.924  0.00  0.00    -0.054 A 
HETATM   39  C   UNK N   1      21.404  12.926   7.691  0.00  0.00     0.016 A 
HETATM   40  C   UNK N   1      20.858  13.480   6.526  0.00  0.00    -0.030 A 
BRANCH  36  41
HETATM   41  C   UNK N   1      19.355  16.702   7.957  0.00  0.00     0.012 C 
HETATM   42  C   UNK N   1      20.334  17.858   8.038  0.00  0.00     0.015 C 
HETATM   43  C   UNK N   1      18.415  16.725   9.148  0.00  0.00     0.015 C 
ENDBRANCH  36  41
BRANCH  38  44
HETATM   44  C   UNK N   1      21.856  12.926  10.158  0.00  0.00     0.010 C 
HETATM   45  C   UNK N   1      20.802  12.365  11.102  0.00  0.00     0.015 C 
HETATM   46  C   UNK N   1      22.805  11.805   9.771  0.00  0.00     0.015 C 
ENDBRANCH  38  44
BRANCH  40  47
HETATM   47  C   UNK N   1      20.999  12.750   5.223  0.00  0.00     0.012 C 
HETATM   48  C   UNK N   1      20.501  11.321   5.335  0.00  0.00     0.015 C 
HETATM   49  C   UNK N   1      22.438  12.764   4.737  0.00  0.00     0.015 C 
ENDBRANCH  40  47
ENDBRANCH  32  35
ENDBRANCH  30  32
ENDBRANCH   1  30
TORSDOF 14
ENDMDL
MODEL 2
REMARK VINA RESULT:      -7.7      0.704      2.650
REMARK  14 active torsions:
REMARK  status: ('A' for Active; 'I' for Inactive)
REMARK    1  A    between atoms: C_2  and  O_3 
REMARK    2  A    between atoms: O_3  and  C_4 
REMARK       I    between atoms: C_4  and  N_6 
REMARK       I    between atoms: N_9  and  C_12 
REMARK    3  A    between atoms: C_12  and  C_14 
REMARK    4  A    between atoms: C_14  and  C_15 
REMARK    5  A    between atoms: C_14  and  N_27 
REMARK    6  A    between atoms: C_15  and  C_16 
REMARK    7  A    between atoms: C_20  and  C_22 
REMARK    8  A    between atoms: C_22  and  N_26 
REMARK    9  A    between atoms: N_23  and  O_25 
REMARK   10  A    between atoms: N_27  and  S_28 
REMARK   11  A    between atoms: S_28  and  C_31 
REMARK   12  A    between atoms: C_32  and  C_43 
REMARK   13  A    between atoms: C_34  and  C_40 
REMARK   14  A    between atoms: C_36  and  C_37 
ROOT
HETATM    1  C   UNK N   1      21.169  15.302   2.851  0.00  0.00     0.189 C 
ENDROOT
BRANCH   1   2
HETATM    2  C   UNK N   1      21.297  16.837   2.992  0.00  0.00     0.243 C 
HETATM    3  N   UNK N   1      22.155  17.476   3.849  0.00  0.00    -0.347 N 
HETATM    4  C   UNK N   1      23.172  16.788   4.591  0.00  0.00     0.146 C 
HETATM    5  C   UNK N   1      22.138  18.924   3.968  0.00  0.00     0.146 C 
HETATM    6  C   UNK N   1      24.495  17.261   4.010  0.00  0.00     0.148 C 
HETATM    7  N   UNK N   1      24.585  18.698   4.129  0.00  0.00    -0.325 N 
HETATM    8  C   UNK N   1      25.653  19.292   4.750  0.00  0.00     0.362 C 
HETATM    9  C   UNK N   1      23.503  19.498   3.577  0.00  0.00     0.148 C 
HETATM   10  O   UNK N   1      25.636  20.501   4.946  0.00  0.00    -0.238 OA
HETATM   11  O   UNK N   1      20.592  17.523   2.266  0.00  0.00    -0.271 OA
BRANCH   8  12
HETATM   12  O   UNK N   1      26.754  18.590   5.150  0.00  0.00    -0.304 OA
BRANCH  12  13
HETATM   13  C   UNK N   1      27.932  19.168   5.581  0.00  0.00     0.176 C 
HETATM   14  C   UNK N   1      28.000  19.177   7.090  0.00  0.00     0.034 C 
ENDBRANCH  12  13
ENDBRANCH   8  12
ENDBRANCH   1   2
BRANCH   1  15
HETATM   15  C   UNK N   1      21.326  14.788   1.398  0.00  0.00     0.074 C 
BRANCH  15  16
HETATM   16  C   UNK N   1      22.543  13.965   1.140  0.00  0.00    -0.055 A 
HETATM   17  C   UNK N   1      22.534  12.949   0.183  0.00  0.00     0.007 A 
HETATM   18  C   UNK N   1      23.663  12.137   0.026  0.00  0.00     0.002 A 
HETATM   19  C   UNK N   1      24.783  12.323   0.847  0.00  0.00     0.015 A 
HETATM   20  C   UNK N   1      24.801  13.351   1.804  0.00  0.00     0.010 A 
HETATM   21  C   UNK N   1      23.682  14.177   1.917  0.00  0.00     0.022 A 
BRANCH  20  22
HETATM   22  C   UNK N   1      25.968  13.493   2.728  0.00  0.00     0.129 C 
HETATM   23  N   UNK N   1      26.844  14.442   2.626  0.00  0.00    -0.253 N 
ATOM     24  HN  UNK N   1      27.601  14.480   3.308  1.00  0.00     0.196 HD
BRANCH  23  25
HETATM   25  O   UNK N   1      26.803  15.360   1.682  0.00  0.00    -0.288 OA
HETATM   26  H   UNK N   1      26.309  16.153   1.615  0.00  0.00     0.244 HD
ENDBRANCH  23  25
BRANCH  22  27
HETATM   27  N   UNK N   1      26.102  12.575   3.793  0.00  0.00    -0.383 N 
HETATM   28  H   UNK N   1      25.474  11.909   4.156  0.00  0.00     0.157 HD
HETATM   29  H   UNK N   1      26.972  12.606   4.252  0.00  0.00     0.157 HD
ENDBRANCH  22  27
ENDBRANCH  20  22
ENDBRANCH  15  16
ENDBRANCH   1  15
BRANCH   1  30
HETATM   30  N   UNK N   1      19.921  14.736   3.345  0.00  0.00    -0.301 N 
HETATM   31  H   UNK N   1      19.293  14.148   2.795  0.00  0.00     0.173 HD
BRANCH  30  32
HETATM   32  S   UNK N   1      19.641  15.208   5.028  0.00  0.00     0.260 S 
HETATM   33  O   UNK N   1      18.688  14.004   5.059  0.00  0.00    -0.200 OA
HETATM   34  O   UNK N   1      18.405  16.112   5.108  0.00  0.00    -0.200 OA
BRANCH  32  35
HETATM   35  C   UNK N   1      20.254  14.489   6.573  0.00  0.00     0.092 A 
HETATM   36  C   UNK N   1      20.881  13.216   6.570  0.00  0.00    -0.030 A 
HETATM   37  C   UNK N   1      21.394  12.694   7.761  0.00  0.00     0.016 A 
HETATM   38  C   UNK N   1      21.296  13.405   8.961  0.00  0.00    -0.054 A 
HETATM   39  C   UNK N   1      20.657  14.648   8.967  0.00  0.00     0.016 A 
HETATM   40  C   UNK N   1      20.134  15.197   7.788  0.00  0.00    -0.030 A 
BRANCH  36  41
HETATM   41  C   UNK N   1      21.017  12.417   5.302  0.00  0.00     0.012 C 
HETATM   42  C   UNK N   1      20.473  11.010   5.466  0.00  0.00     0.015 C 
HETATM   43  C   UNK N   1      22.456  12.371   4.824  0.00  0.00     0.015 C 
ENDBRANCH  36  41
BRANCH  38  44
HETATM   44  C   UNK N   1      21.872  12.864  10.245  0.00  0.00     0.010 C 
HETATM   45  C   UNK N   1      20.821  12.330  11.207  0.00  0.00     0.015 C 
HETATM   46  C   UNK N   1      22.865  11.754   9.948  0.00  0.00     0.015 C 
ENDBRANCH  38  44
BRANCH  40  47
HETATM   47  C   UNK N   1      19.467  16.540   7.832  0.00  0.00     0.012 C 
HETATM   48  C   UNK N   1      20.477  17.663   7.692  0.00  0.00     0.015 C 
HETATM   49  C   UNK N   1      18.664  16.716   9.109  0.00  0.00     0.015 C 
ENDBRANCH  40  47
ENDBRANCH  32  35
ENDBRANCH  30  32
ENDBRANCH   1  30
TORSDOF 14
ENDMDL
MODEL 3
REMARK VINA RESULT:      -7.4      9.198     13.268
REMARK  14 active torsions:
REMARK  status: ('A' for Active; 'I' for Inactive)
REMARK    1  A    between atoms: C_2  and  O_3 
REMARK    2  A    between atoms: O_3  and  C_4 
REMARK       I    between atoms: C_4  and  N_6 
REMARK       I    between atoms: N_9  and  C_12 
REMARK    3  A    between atoms: C_12  and  C_14 
REMARK    4  A    between atoms: C_14  and  C_15 
REMARK    5  A    between atoms: C_14  and  N_27 
REMARK    6  A    between atoms: C_15  and  C_16 
REMARK    7  A    between atoms: C_20  and  C_22 
REMARK    8  A    between atoms: C_22  and  N_26 
REMARK    9  A    between atoms: N_23  and  O_25 
REMARK   10  A    between atoms: N_27  and  S_28 
REMARK   11  A    between atoms: S_28  and  C_31 
REMARK   12  A    between atoms: C_32  and  C_43 
REMARK   13  A    between atoms: C_34  and  C_40 
REMARK   14  A    between atoms: C_36  and  C_37 
ROOT
HETATM    1  C   UNK N   1      33.893  15.045   7.692  0.00  0.00     0.189 C 
ENDROOT
BRANCH   1   2
HETATM    2  C   UNK N   1      34.643  15.799   8.816  0.00  0.00     0.243 C 
HETATM    3  N   UNK N   1      34.550  15.506  10.152  0.00  0.00    -0.347 N 
HETATM    4  C   UNK N   1      33.881  14.339  10.651  0.00  0.00     0.146 C 
HETATM    5  C   UNK N   1      35.229  16.331  11.137  0.00  0.00     0.146 C 
HETATM    6  C   UNK N   1      34.973  13.459  11.237  0.00  0.00     0.148 C 
HETATM    7  N   UNK N   1      35.677  14.188  12.266  0.00  0.00    -0.325 N 
HETATM    8  C   UNK N   1      35.807  13.679  13.532  0.00  0.00     0.362 C 
HETATM    9  C   UNK N   1      36.236  15.486  11.923  0.00  0.00     0.148 C 
HETATM   10  O   UNK N   1      36.296  14.376  14.412  0.00  0.00    -0.238 OA
HETATM   11  O   UNK N   1      35.386  16.708   8.476  0.00  0.00    -0.271 OA
BRANCH   8  12
HETATM   12  O   UNK N   1      35.426  12.407  13.856  0.00  0.00    -0.304 OA
BRANCH  12  13
HETATM   13  C   UNK N   1      34.574  12.090  14.894  0.00  0.00     0.176 C 
HETATM   14  C   UNK N   1      33.746  10.874  14.551  0.00  0.00     0.034 C 
ENDBRANCH  12  13
ENDBRANCH   8  12
ENDBRANCH   1   2
BRANCH   1  15
HETATM   15  C   UNK N   1      34.809  14.160   6.810  0.00  0.00     0.074 C 
BRANCH  15  16
HETATM   16  C   UNK N   1      35.522  13.064   7.529  0.00  0.00    -0.055 A 
HETATM   17  C   UNK N   1      34.890  11.847   7.792  0.00  0.00     0.007 A 
HETATM   18  C   UNK N   1      35.554  10.872   8.544  0.00  0.00     0.002 A 
HETATM   19  C   UNK N   1      36.833  11.129   9.056  0.00  0.00     0.015 A 
HETATM   20  C   UNK N   1      37.477  12.348   8.785  0.00  0.00     0.010 A 
HETATM   21  C   UNK N   1      36.815  13.291   7.998  0.00  0.00     0.022 A 
BRANCH  20  22
HETATM   22  C   UNK N   1      38.808  12.645   9.399  0.00  0.00     0.129 C 
HETATM   23  N   UNK N   1      39.934  12.340   8.837  0.00  0.00    -0.253 N 
ATOM     24  HN  UNK N   1      40.799  12.594   9.313  1.00  0.00     0.196 HD
BRANCH  23  25
HETATM   25  O   UNK N   1      40.015  11.717   7.678  0.00  0.00    -0.288 OA
HETATM   26  H   UNK N   1      39.725  11.968   6.823  0.00  0.00     0.244 HD
ENDBRANCH  23  25
BRANCH  22  27
HETATM   27  N   UNK N   1      38.843  13.329  10.634  0.00  0.00    -0.383 N 
HETATM   28  H   UNK N   1      39.367  14.111  10.926  0.00  0.00     0.157 HD
HETATM   29  H   UNK N   1      38.243  12.962  11.322  0.00  0.00     0.157 HD
ENDBRANCH  22  27
ENDBRANCH  20  22
ENDBRANCH  15  16
ENDBRANCH   1  15
BRANCH   1  30
HETATM   30  N   UNK N   1      33.142  15.889   6.773  0.00  0.00    -0.301 N 
HETATM   31  H   UNK N   1      33.501  16.243   5.886  0.00  0.00     0.173 HD
BRANCH  30  32
HETATM   32  S   UNK N   1      31.522  16.219   7.406  0.00  0.00     0.260 S 
HETATM   33  O   UNK N   1      32.109  17.582   7.803  0.00  0.00    -0.200 OA
HETATM   34  O   UNK N   1      31.474  15.872   8.899  0.00  0.00    -0.200 OA
BRANCH  32  35
HETATM   35  C   UNK N   1      30.178  17.232   6.739  0.00  0.00     0.092 A 
HETATM   36  C   UNK N   1      29.232  17.829   7.612  0.00  0.00    -0.030 A 
HETATM   37  C   UNK N   1      28.227  18.650   7.089  0.00  0.00     0.016 A 
HETATM   38  C   UNK N   1      28.136  18.889   5.714  0.00  0.00    -0.054 A 
HETATM   39  C   UNK N   1      29.052  18.279   4.853  0.00  0.00     0.016 A 
HETATM   40  C   UNK N   1      30.071  17.454   5.349  0.00  0.00    -0.030 A 
BRANCH  36  41
HETATM   41  C   UNK N   1      29.295  17.609   9.098  0.00  0.00     0.012 C 
HETATM   42  C   UNK N   1      27.976  17.095   9.645  0.00  0.00     0.015 C 
HETATM   43  C   UNK N   1      29.711  18.870   9.832  0.00  0.00     0.015 C 
ENDBRANCH  36  41
BRANCH  38  44
HETATM   44  C   UNK N   1      27.074  19.794   5.143  0.00  0.00     0.010 C 
HETATM   45  C   UNK N   1      27.086  21.197   5.733  0.00  0.00     0.015 C 
HETATM   46  C   UNK N   1      27.230  19.901   3.636  0.00  0.00     0.015 C 
ENDBRANCH  38  44
BRANCH  40  47
HETATM   47  C   UNK N   1      31.045  16.828   4.395  0.00  0.00     0.012 C 
HETATM   48  C   UNK N   1      32.150  17.798   4.020  0.00  0.00     0.015 C 
HETATM   49  C   UNK N   1      30.346  16.326   3.144  0.00  0.00     0.015 C 
ENDBRANCH  40  47
ENDBRANCH  32  35
ENDBRANCH  30  32
ENDBRANCH   1  30
TORSDOF 14
ENDMDL
MODEL 4
REMARK VINA RESULT:      -7.4      4.005      8.795
REMARK  14 active torsions:
REMARK  status: ('A' for Active; 'I' for Inactive)
REMARK    1  A    between atoms: C_2  and  O_3 
REMARK    2  A    between atoms: O_3  and  C_4 
REMARK       I    between atoms: C_4  and  N_6 
REMARK       I    between atoms: N_9  and  C_12 
REMARK    3  A    between atoms: C_12  and  C_14 
REMARK    4  A    between atoms: C_14  and  C_15 
REMARK    5  A    between atoms: C_14  and  N_27 
REMARK    6  A    between atoms: C_15  and  C_16 
REMARK    7  A    between atoms: C_20  and  C_22 
REMARK    8  A    between atoms: C_22  and  N_26 
REMARK    9  A    between atoms: N_23  and  O_25 
REMARK   10  A    between atoms: N_27  and  S_28 
REMARK   11  A    between atoms: S_28  and  C_31 
REMARK   12  A    between atoms: C_32  and  C_43 
REMARK   13  A    between atoms: C_34  and  C_40 
REMARK   14  A    between atoms: C_36  and  C_37 
ROOT
HETATM    1  C   UNK N   1      24.755  15.294   6.164  0.00  0.00     0.189 C 
ENDROOT
BRANCH   1   2
HETATM    2  C   UNK N   1      23.333  15.843   6.430  0.00  0.00     0.243 C 
HETATM    3  N   UNK N   1      22.667  16.718   5.611  0.00  0.00    -0.347 N 
HETATM    4  C   UNK N   1      23.143  17.087   4.309  0.00  0.00     0.146 C 
HETATM    5  C   UNK N   1      21.367  17.243   5.995  0.00  0.00     0.146 C 
HETATM    6  C   UNK N   1      22.153  16.485   3.325  0.00  0.00     0.148 C 
HETATM    7  N   UNK N   1      20.830  16.991   3.604  0.00  0.00    -0.325 N 
HETATM    8  C   UNK N   1      20.083  17.600   2.629  0.00  0.00     0.362 C 
HETATM    9  C   UNK N   1      20.314  16.844   4.956  0.00  0.00     0.148 C 
HETATM   10  O   UNK N   1      19.022  18.130   2.930  0.00  0.00    -0.238 OA
HETATM   11  O   UNK N   1      22.763  15.446   7.435  0.00  0.00    -0.271 OA
BRANCH   8  12
HETATM   12  O   UNK N   1      20.468  17.628   1.319  0.00  0.00    -0.304 OA
BRANCH  12  13
HETATM   13  C   UNK N   1      19.825  16.950   0.303  0.00  0.00     0.176 C 
HETATM   14  C   UNK N   1      19.742  15.474   0.616  0.00  0.00     0.034 C 
ENDBRANCH  12  13
ENDBRANCH   8  12
ENDBRANCH   1   2
BRANCH   1  15
HETATM   15  C   UNK N   1      25.395  14.588   7.386  0.00  0.00     0.074 C 
BRANCH  15  16
HETATM   16  C   UNK N   1      24.740  13.313   7.802  0.00  0.00    -0.055 A 
HETATM   17  C   UNK N   1      24.497  12.296   6.877  0.00  0.00     0.007 A 
HETATM   18  C   UNK N   1      23.804  11.149   7.279  0.00  0.00     0.002 A 
HETATM   19  C   UNK N   1      23.329  11.038   8.593  0.00  0.00     0.015 A 
HETATM   20  C   UNK N   1      23.580  12.054   9.529  0.00  0.00     0.010 A 
HETATM   21  C   UNK N   1      24.310  13.171   9.121  0.00  0.00     0.022 A 
BRANCH  20  22
HETATM   22  C   UNK N   1      23.004  11.963  10.906  0.00  0.00     0.129 C 
HETATM   23  N   UNK N   1      23.718  12.054  11.982  0.00  0.00    -0.253 N 
ATOM     24  HN  UNK N   1      23.246  12.001  12.885  1.00  0.00     0.196 HD
BRANCH  23  25
HETATM   25  O   UNK N   1      25.026  12.213  11.967  0.00  0.00    -0.288 OA
HETATM   26  H   UNK N   1      25.594  12.582  11.320  0.00  0.00     0.244 HD
ENDBRANCH  23  25
BRANCH  22  27
HETATM   27  N   UNK N   1      21.606  11.813  11.044  0.00  0.00    -0.383 N 
HETATM   28  H   UNK N   1      20.859  12.300  10.626  0.00  0.00     0.157 HD
HETATM   29  H   UNK N   1      21.331  11.101  11.665  0.00  0.00     0.157 HD
ENDBRANCH  22  27
ENDBRANCH  20  22
ENDBRANCH  15  16
ENDBRANCH   1  15
BRANCH   1  30
HETATM   30  N   UNK N   1      25.727  16.280   5.714  0.00  0.00    -0.301 N 
HETATM   31  H   UNK N   1      25.530  17.273   5.587  0.00  0.00     0.173 HD
BRANCH  30  32
HETATM   32  S   UNK N   1      27.298  15.520   5.413  0.00  0.00     0.260 S 
HETATM   33  O   UNK N   1      27.434  16.571   4.301  0.00  0.00    -0.200 OA
HETATM   34  O   UNK N   1      27.153  14.462   4.313  0.00  0.00    -0.200 OA
BRANCH  32  35
HETATM   35  C   UNK N   1      28.972  16.064   5.838  0.00  0.00     0.092 A 
HETATM   36  C   UNK N   1      30.098  15.448   5.232  0.00  0.00    -0.030 A 
HETATM   37  C   UNK N   1      31.384  15.909   5.531  0.00  0.00     0.016 A 
HETATM   38  C   UNK N   1      31.581  16.968   6.423  0.00  0.00    -0.054 A 
HETATM   39  C   UNK N   1      30.472  17.556   7.038  0.00  0.00     0.016 A 
HETATM   40  C   UNK N   1      29.171  17.116   6.756  0.00  0.00    -0.030 A 
BRANCH  36  41
HETATM   41  C   UNK N   1      29.937  14.312   4.259  0.00  0.00     0.012 C 
HETATM   42  C   UNK N   1      30.715  13.085   4.697  0.00  0.00     0.015 C 
HETATM   43  C   UNK N   1      30.343  14.718   2.855  0.00  0.00     0.015 C 
ENDBRANCH  36  41
BRANCH  38  44
HETATM   44  C   UNK N   1      32.961  17.491   6.730  0.00  0.00     0.010 C 
HETATM   45  C   UNK N   1      33.123  17.981   8.162  0.00  0.00     0.015 C 
HETATM   46  C   UNK N   1      34.001  16.417   6.465  0.00  0.00     0.015 C 
ENDBRANCH  38  44
BRANCH  40  47
HETATM   47  C   UNK N   1      28.006  17.782   7.426  0.00  0.00     0.012 C 
HETATM   48  C   UNK N   1      27.855  19.221   6.969  0.00  0.00     0.015 C 
HETATM   49  C   UNK N   1      28.132  17.725   8.938  0.00  0.00     0.015 C 
ENDBRANCH  40  47
ENDBRANCH  32  35
ENDBRANCH  30  32
ENDBRANCH   1  30
TORSDOF 14
ENDMDL
MODEL 5
REMARK VINA RESULT:      -7.3      8.711     12.762
REMARK  14 active torsions:
REMARK  status: ('A' for Active; 'I' for Inactive)
REMARK    1  A    between atoms: C_2  and  O_3 
REMARK    2  A    between atoms: O_3  and  C_4 
REMARK       I    between atoms: C_4  and  N_6 
REMARK       I    between atoms: N_9  and  C_12 
REMARK    3  A    between atoms: C_12  and  C_14 
REMARK    4  A    between atoms: C_14  and  C_15 
REMARK    5  A    between atoms: C_14  and  N_27 
REMARK    6  A    between atoms: C_15  and  C_16 
REMARK    7  A    between atoms: C_20  and  C_22 
REMARK    8  A    between atoms: C_22  and  N_26 
REMARK    9  A    between atoms: N_23  and  O_25 
REMARK   10  A    between atoms: N_27  and  S_28 
REMARK   11  A    between atoms: S_28  and  C_31 
REMARK   12  A    between atoms: C_32  and  C_43 
REMARK   13  A    between atoms: C_34  and  C_40 
REMARK   14  A    between atoms: C_36  and  C_37 
ROOT
HETATM    1  C   UNK N   1      33.902  14.533   7.726  0.00  0.00     0.189 C 
ENDROOT
BRANCH   1   2
HETATM    2  C   UNK N   1      35.244  14.587   8.495  0.00  0.00     0.243 C 
HETATM    3  N   UNK N   1      35.363  14.770   9.848  0.00  0.00    -0.347 N 
HETATM    4  C   UNK N   1      34.241  14.751  10.741  0.00  0.00     0.146 C 
HETATM    5  C   UNK N   1      36.674  14.893  10.462  0.00  0.00     0.146 C 
HETATM    6  C   UNK N   1      34.412  13.501  11.589  0.00  0.00     0.148 C 
HETATM    7  N   UNK N   1      35.680  13.559  12.279  0.00  0.00    -0.325 N 
HETATM    8  C   UNK N   1      35.752  13.427  13.641  0.00  0.00     0.362 C 
HETATM    9  C   UNK N   1      36.881  13.772  11.485  0.00  0.00     0.148 C 
HETATM   10  O   UNK N   1      36.823  13.609  14.205  0.00  0.00    -0.238 OA
HETATM   11  O   UNK N   1      36.265  14.434   7.841  0.00  0.00    -0.271 OA
BRANCH   8  12
HETATM   12  O   UNK N   1      34.673  13.083  14.404  0.00  0.00    -0.304 OA
BRANCH  12  13
HETATM   13  C   UNK N   1      34.571  11.911  15.126  0.00  0.00     0.176 C 
HETATM   14  C   UNK N   1      33.773  10.881  14.361  0.00  0.00     0.034 C 
ENDBRANCH  12  13
ENDBRANCH   8  12
ENDBRANCH   1   2
BRANCH   1  15
HETATM   15  C   UNK N   1      33.869  13.476   6.593  0.00  0.00     0.074 C 
BRANCH  15  16
HETATM   16  C   UNK N   1      34.116  12.070   7.025  0.00  0.00    -0.055 A 
HETATM   17  C   UNK N   1      35.047  11.268   6.362  0.00  0.00     0.007 A 
HETATM   18  C   UNK N   1      35.194   9.928   6.734  0.00  0.00     0.002 A 
HETATM   19  C   UNK N   1      34.388   9.386   7.745  0.00  0.00     0.015 A 
HETATM   20  C   UNK N   1      33.458  10.192   8.422  0.00  0.00     0.010 A 
HETATM   21  C   UNK N   1      33.356  11.536   8.065  0.00  0.00     0.022 A 
BRANCH  20  22
HETATM   22  C   UNK N   1      32.548   9.588   9.445  0.00  0.00     0.129 C 
HETATM   23  N   UNK N   1      31.361   9.150   9.170  0.00  0.00    -0.253 N 
ATOM     24  HN  UNK N   1      30.810   8.735   9.921  1.00  0.00     0.196 HD
BRANCH  23  25
HETATM   25  O   UNK N   1      30.831   9.214   7.966  0.00  0.00    -0.288 OA
HETATM   26  H   UNK N   1      30.828   9.903   7.331  0.00  0.00     0.244 HD
ENDBRANCH  23  25
BRANCH  22  27
HETATM   27  N   UNK N   1      33.021   9.449  10.769  0.00  0.00    -0.383 N 
HETATM   28  H   UNK N   1      32.890   8.731  11.430  0.00  0.00     0.157 HD
HETATM   29  H   UNK N   1      33.574  10.199  11.086  0.00  0.00     0.157 HD
ENDBRANCH  22  27
ENDBRANCH  20  22
ENDBRANCH  15  16
ENDBRANCH   1  15
BRANCH   1  30
HETATM   30  N   UNK N   1      33.484  15.789   7.118  0.00  0.00    -0.301 N 
HETATM   31  H   UNK N   1      34.075  16.369   6.521  0.00  0.00     0.173 HD
BRANCH  30  32
HETATM   32  S   UNK N   1      31.812  16.172   7.556  0.00  0.00     0.260 S 
HETATM   33  O   UNK N   1      32.362  17.575   7.856  0.00  0.00    -0.200 OA
HETATM   34  O   UNK N   1      31.624  15.989   9.067  0.00  0.00    -0.200 OA
BRANCH  32  35
HETATM   35  C   UNK N   1      30.539  17.096   6.660  0.00  0.00     0.092 A 
HETATM   36  C   UNK N   1      29.472  17.709   7.365  0.00  0.00    -0.030 A 
HETATM   37  C   UNK N   1      28.521  18.461   6.667  0.00  0.00     0.016 A 
HETATM   38  C   UNK N   1      28.603  18.616   5.280  0.00  0.00    -0.054 A 
HETATM   39  C   UNK N   1      29.641  17.991   4.584  0.00  0.00     0.016 A 
HETATM   40  C   UNK N   1      30.609  17.232   5.257  0.00  0.00    -0.030 A 
BRANCH  36  41
HETATM   41  C   UNK N   1      29.347  17.579   8.859  0.00  0.00     0.012 C 
HETATM   42  C   UNK N   1      27.940  17.187   9.271  0.00  0.00     0.015 C 
HETATM   43  C   UNK N   1      29.766  18.853   9.567  0.00  0.00     0.015 C 
ENDBRANCH  36  41
BRANCH  38  44
HETATM   44  C   UNK N   1      27.601  19.448   4.521  0.00  0.00     0.010 C 
HETATM   45  C   UNK N   1      26.422  18.647   3.987  0.00  0.00     0.015 C 
HETATM   46  C   UNK N   1      27.067  20.563   5.404  0.00  0.00     0.015 C 
ENDBRANCH  38  44
BRANCH  40  47
HETATM   47  C   UNK N   1      31.715  16.587   4.477  0.00  0.00     0.012 C 
HETATM   48  C   UNK N   1      32.763  17.603   4.062  0.00  0.00     0.015 C 
HETATM   49  C   UNK N   1      31.179  15.862   3.255  0.00  0.00     0.015 C 
ENDBRANCH  40  47
ENDBRANCH  32  35
ENDBRANCH  30  32
ENDBRANCH   1  30
TORSDOF 14
ENDMDL
MODEL 6
REMARK VINA RESULT:      -7.3      9.185     13.385
REMARK  14 active torsions:
REMARK  status: ('A' for Active; 'I' for Inactive)
REMARK    1  A    between atoms: C_2  and  O_3 
REMARK    2  A    between atoms: O_3  and  C_4 
REMARK       I    between atoms: C_4  and  N_6 
REMARK       I    between atoms: N_9  and  C_12 
REMARK    3  A    between atoms: C_12  and  C_14 
REMARK    4  A    between atoms: C_14  and  C_15 
REMARK    5  A    between atoms: C_14  and  N_27 
REMARK    6  A    between atoms: C_15  and  C_16 
REMARK    7  A    between atoms: C_20  and  C_22 
REMARK    8  A    between atoms: C_22  and  N_26 
REMARK    9  A    between atoms: N_23  and  O_25 
REMARK   10  A    between atoms: N_27  and  S_28 
REMARK   11  A    between atoms: S_28  and  C_31 
REMARK   12  A    between atoms: C_32  and  C_43 
REMARK   13  A    between atoms: C_34  and  C_40 
REMARK   14  A    between atoms: C_36  and  C_37 
ROOT
HETATM    1  C   UNK N   1      33.837  14.935   7.657  0.00  0.00     0.189 C 
ENDROOT
BRANCH   1   2
HETATM    2  C   UNK N   1      34.612  15.721   8.741  0.00  0.00     0.243 C 
HETATM    3  N   UNK N   1      34.537  15.477  10.088  0.00  0.00    -0.347 N 
HETATM    4  C   UNK N   1      33.865  14.336  10.639  0.00  0.00     0.146 C 
HETATM    5  C   UNK N   1      35.239  16.330  11.032  0.00  0.00     0.146 C 
HETATM    6  C   UNK N   1      34.958  13.466  11.239  0.00  0.00     0.148 C 
HETATM    7  N   UNK N   1      35.684  14.224  12.231  0.00  0.00    -0.325 N 
HETATM    8  C   UNK N   1      35.829  13.760  13.512  0.00  0.00     0.362 C 
HETATM    9  C   UNK N   1      36.251  15.504  11.833  0.00  0.00     0.148 C 
HETATM   10  O   UNK N   1      36.339  14.484  14.358  0.00  0.00    -0.238 OA
HETATM   11  O   UNK N   1      35.359  16.609   8.357  0.00  0.00    -0.271 OA
BRANCH   8  12
HETATM   12  O   UNK N   1      35.441  12.505  13.887  0.00  0.00    -0.304 OA
BRANCH  12  13
HETATM   13  C   UNK N   1      34.560  12.237  14.916  0.00  0.00     0.176 C 
HETATM   14  C   UNK N   1      33.797  10.961  14.644  0.00  0.00     0.034 C 
ENDBRANCH  12  13
ENDBRANCH   8  12
ENDBRANCH   1   2
BRANCH   1  15
HETATM   15  C   UNK N   1      34.728  13.996   6.804  0.00  0.00     0.074 C 
BRANCH  15  16
HETATM   16  C   UNK N   1      35.458  12.943   7.568  0.00  0.00    -0.055 A 
HETATM   17  C   UNK N   1      34.838  11.737   7.902  0.00  0.00     0.007 A 
HETATM   18  C   UNK N   1      35.520  10.806   8.693  0.00  0.00     0.002 A 
HETATM   19  C   UNK N   1      36.804  11.096   9.172  0.00  0.00     0.015 A 
HETATM   20  C   UNK N   1      37.436  12.303   8.830  0.00  0.00     0.010 A 
HETATM   21  C   UNK N   1      36.757  13.201   8.006  0.00  0.00     0.022 A 
BRANCH  20  22
HETATM   22  C   UNK N   1      38.774  12.639   9.409  0.00  0.00     0.129 C 
HETATM   23  N   UNK N   1      39.892  12.388   8.806  0.00  0.00    -0.253 N 
ATOM     24  HN  UNK N   1      40.762  12.665   9.260  1.00  0.00     0.196 HD
BRANCH  23  25
HETATM   25  O   UNK N   1      39.959  11.790   7.634  0.00  0.00    -0.288 OA
HETATM   26  H   UNK N   1      40.018  12.140   6.767  0.00  0.00     0.244 HD
ENDBRANCH  23  25
BRANCH  22  27
HETATM   27  N   UNK N   1      38.822  13.302  10.656  0.00  0.00    -0.383 N 
HETATM   28  H   UNK N   1      38.113  13.509  11.306  0.00  0.00     0.157 HD
HETATM   29  H   UNK N   1      39.719  13.610  10.919  0.00  0.00     0.157 HD
ENDBRANCH  22  27
ENDBRANCH  20  22
ENDBRANCH  15  16
ENDBRANCH   1  15
BRANCH   1  30
HETATM   30  N   UNK N   1      33.093  15.754   6.710  0.00  0.00    -0.301 N 
HETATM   31  H   UNK N   1      33.447  16.058   5.802  0.00  0.00     0.173 HD
BRANCH  30  32
HETATM   32  S   UNK N   1      31.490  16.151   7.348  0.00  0.00     0.260 S 
HETATM   33  O   UNK N   1      32.140  17.480   7.762  0.00  0.00    -0.200 OA
HETATM   34  O   UNK N   1      31.427  15.788   8.836  0.00  0.00    -0.200 OA
BRANCH  32  35
HETATM   35  C   UNK N   1      30.195  17.235   6.695  0.00  0.00     0.092 A 
HETATM   36  C   UNK N   1      30.093  17.464   5.298  0.00  0.00    -0.030 A 
HETATM   37  C   UNK N   1      29.059  18.264   4.801  0.00  0.00     0.016 A 
HETATM   38  C   UNK N   1      28.122  18.847   5.661  0.00  0.00    -0.054 A 
HETATM   39  C   UNK N   1      28.240  18.641   7.038  0.00  0.00     0.016 A 
HETATM   40  C   UNK N   1      29.265  17.843   7.565  0.00  0.00    -0.030 A 
BRANCH  36  41
HETATM   41  C   UNK N   1      31.070  16.851   4.333  0.00  0.00     0.012 C 
HETATM   42  C   UNK N   1      32.199  17.808   3.997  0.00  0.00     0.015 C 
HETATM   43  C   UNK N   1      30.383  16.383   3.064  0.00  0.00     0.015 C 
ENDBRANCH  36  41
BRANCH  38  44
HETATM   44  C   UNK N   1      26.987  19.687   5.134  0.00  0.00     0.010 C 
HETATM   45  C   UNK N   1      26.836  21.024   5.845  0.00  0.00     0.015 C 
HETATM   46  C   UNK N   1      27.171  19.947   3.649  0.00  0.00     0.015 C 
ENDBRANCH  38  44
BRANCH  40  47
HETATM   47  C   UNK N   1      29.350  17.634   9.048  0.00  0.00     0.012 C 
HETATM   48  C   UNK N   1      28.031  17.141   9.612  0.00  0.00     0.015 C 
HETATM   49  C   UNK N   1      29.781  18.904   9.760  0.00  0.00     0.015 C 
ENDBRANCH  40  47
ENDBRANCH  32  35
ENDBRANCH  30  32
ENDBRANCH   1  30
TORSDOF 14
ENDMDL
MODEL 7
REMARK VINA RESULT:      -7.3      8.563     12.779
REMARK  14 active torsions:
REMARK  status: ('A' for Active; 'I' for Inactive)
REMARK    1  A    between atoms: C_2  and  O_3 
REMARK    2  A    between atoms: O_3  and  C_4 
REMARK       I    between atoms: C_4  and  N_6 
REMARK       I    between atoms: N_9  and  C_12 
REMARK    3  A    between atoms: C_12  and  C_14 
REMARK    4  A    between atoms: C_14  and  C_15 
REMARK    5  A    between atoms: C_14  and  N_27 
REMARK    6  A    between atoms: C_15  and  C_16 
REMARK    7  A    between atoms: C_20  and  C_22 
REMARK    8  A    between atoms: C_22  and  N_26 
REMARK    9  A    between atoms: N_23  and  O_25 
REMARK   10  A    between atoms: N_27  and  S_28 
REMARK   11  A    between atoms: S_28  and  C_31 
REMARK   12  A    between atoms: C_32  and  C_43 
REMARK   13  A    between atoms: C_34  and  C_40 
REMARK   14  A    between atoms: C_36  and  C_37 
ROOT
HETATM    1  C   UNK N   1      34.282  14.722   7.571  0.00  0.00     0.189 C 
ENDROOT
BRANCH   1   2
HETATM    2  C   UNK N   1      35.596  14.537   8.368  0.00  0.00     0.243 C 
HETATM    3  N   UNK N   1      35.715  14.682   9.726  0.00  0.00    -0.347 N 
HETATM    4  C   UNK N   1      34.586  14.845  10.596  0.00  0.00     0.146 C 
HETATM    5  C   UNK N   1      37.014  14.571  10.368  0.00  0.00     0.146 C 
HETATM    6  C   UNK N   1      34.522  13.575  11.428  0.00  0.00     0.148 C 
HETATM    7  N   UNK N   1      35.765  13.407  12.144  0.00  0.00    -0.325 N 
HETATM    8  C   UNK N   1      35.784  13.250  13.506  0.00  0.00     0.362 C 
HETATM    9  C   UNK N   1      37.002  13.419  11.378  0.00  0.00     0.148 C 
HETATM   10  O   UNK N   1      36.858  13.239  14.094  0.00  0.00    -0.238 OA
HETATM   11  O   UNK N   1      36.590  14.217   7.732  0.00  0.00    -0.271 OA
BRANCH   8  12
HETATM   12  O   UNK N   1      34.645  13.088  14.242  0.00  0.00    -0.304 OA
BRANCH  12  13
HETATM   13  C   UNK N   1      34.407  12.020  15.084  0.00  0.00     0.176 C 
HETATM   14  C   UNK N   1      33.824  10.856  14.317  0.00  0.00     0.034 C 
ENDBRANCH  12  13
ENDBRANCH   8  12
ENDBRANCH   1   2
BRANCH   1  15
HETATM   15  C   UNK N   1      34.317  14.110   6.148  0.00  0.00     0.074 C 
BRANCH  15  16
HETATM   16  C   UNK N   1      33.663  12.776   6.011  0.00  0.00    -0.055 A 
HETATM   17  C   UNK N   1      32.826  12.495   4.929  0.00  0.00     0.007 A 
HETATM   18  C   UNK N   1      32.159  11.267   4.873  0.00  0.00     0.002 A 
HETATM   19  C   UNK N   1      32.304  10.339   5.913  0.00  0.00     0.015 A 
HETATM   20  C   UNK N   1      33.153  10.613   6.998  0.00  0.00     0.010 A 
HETATM   21  C   UNK N   1      33.843  11.826   7.015  0.00  0.00     0.022 A 
BRANCH  20  22
HETATM   22  C   UNK N   1      33.242   9.652   8.141  0.00  0.00     0.129 C 
HETATM   23  N   UNK N   1      32.666   9.851   9.283  0.00  0.00    -0.253 N 
ATOM     24  HN  UNK N   1      32.761   9.138  10.006  1.00  0.00     0.196 HD
BRANCH  23  25
HETATM   25  O   UNK N   1      31.964  10.932   9.557  0.00  0.00    -0.288 OA
HETATM   26  H   UNK N   1      31.541  11.550   8.994  0.00  0.00     0.244 HD
ENDBRANCH  23  25
BRANCH  22  27
HETATM   27  N   UNK N   1      33.955   8.447   7.954  0.00  0.00    -0.383 N 
HETATM   28  H   UNK N   1      34.846   8.167   8.268  0.00  0.00     0.157 HD
HETATM   29  H   UNK N   1      33.481   7.771   7.418  0.00  0.00     0.157 HD
ENDBRANCH  22  27
ENDBRANCH  20  22
ENDBRANCH  15  16
ENDBRANCH   1  15
BRANCH   1  30
HETATM   30  N   UNK N   1      33.846  16.102   7.406  0.00  0.00    -0.301 N 
HETATM   31  H   UNK N   1      34.458  16.875   7.142  0.00  0.00     0.173 HD
BRANCH  30  32
HETATM   32  S   UNK N   1      32.112  16.255   7.727  0.00  0.00     0.260 S 
HETATM   33  O   UNK N   1      32.452  17.708   8.091  0.00  0.00    -0.200 OA
HETATM   34  O   UNK N   1      31.843  16.008   9.216  0.00  0.00    -0.200 OA
BRANCH  32  35
HETATM   35  C   UNK N   1      30.796  17.032   6.755  0.00  0.00     0.092 A 
HETATM   36  C   UNK N   1      30.887  17.081   5.340  0.00  0.00    -0.030 A 
HETATM   37  C   UNK N   1      29.841  17.639   4.598  0.00  0.00     0.016 A 
HETATM   38  C   UNK N   1      28.705  18.156   5.229  0.00  0.00    -0.054 A 
HETATM   39  C   UNK N   1      28.629  18.129   6.624  0.00  0.00     0.016 A 
HETATM   40  C   UNK N   1      29.661  17.575   7.394  0.00  0.00    -0.030 A 
BRANCH  36  41
HETATM   41  C   UNK N   1      32.084  16.529   4.616  0.00  0.00     0.012 C 
HETATM   42  C   UNK N   1      33.055  17.627   4.223  0.00  0.00     0.015 C 
HETATM   43  C   UNK N   1      31.677  15.727   3.394  0.00  0.00     0.015 C 
ENDBRANCH  36  41
BRANCH  38  44
HETATM   44  C   UNK N   1      27.560  18.734   4.437  0.00  0.00     0.010 C 
HETATM   45  C   UNK N   1      26.208  18.133   4.793  0.00  0.00     0.015 C 
HETATM   46  C   UNK N   1      27.490  20.238   4.636  0.00  0.00     0.015 C 
ENDBRANCH  38  44
BRANCH  40  47
HETATM   47  C   UNK N   1      29.537  17.552   8.889  0.00  0.00     0.012 C 
HETATM   48  C   UNK N   1      28.142  17.140   9.321  0.00  0.00     0.015 C 
HETATM   49  C   UNK N   1      29.893  18.900   9.492  0.00  0.00     0.015 C 
ENDBRANCH  40  47
ENDBRANCH  32  35
ENDBRANCH  30  32
ENDBRANCH   1  30
TORSDOF 14
ENDMDL
MODEL 8
REMARK VINA RESULT:      -7.2      3.055      8.213
REMARK  14 active torsions:
REMARK  status: ('A' for Active; 'I' for Inactive)
REMARK    1  A    between atoms: C_2  and  O_3 
REMARK    2  A    between atoms: O_3  and  C_4 
REMARK       I    between atoms: C_4  and  N_6 
REMARK       I    between atoms: N_9  and  C_12 
REMARK    3  A    between atoms: C_12  and  C_14 
REMARK    4  A    between atoms: C_14  and  C_15 
REMARK    5  A    between atoms: C_14  and  N_27 
REMARK    6  A    between atoms: C_15  and  C_16 
REMARK    7  A    between atoms: C_20  and  C_22 
REMARK    8  A    between atoms: C_22  and  N_26 
REMARK    9  A    between atoms: N_23  and  O_25 
REMARK   10  A    between atoms: N_27  and  S_28 
REMARK   11  A    between atoms: S_28  and  C_31 
REMARK   12  A    between atoms: C_32  and  C_43 
REMARK   13  A    between atoms: C_34  and  C_40 
REMARK   14  A    between atoms: C_36  and  C_37 
ROOT
HETATM    1  C   UNK N   1      24.053  14.536   3.757  0.00  0.00     0.189 C 
ENDROOT
BRANCH   1   2
HETATM    2  C   UNK N   1      23.175  13.662   4.684  0.00  0.00     0.243 C 
HETATM    3  N   UNK N   1      22.829  13.988   5.970  0.00  0.00    -0.347 N 
HETATM    4  C   UNK N   1      23.092  15.275   6.547  0.00  0.00     0.146 C 
HETATM    5  C   UNK N   1      22.071  13.057   6.788  0.00  0.00     0.146 C 
HETATM    6  C   UNK N   1      21.731  15.922   6.746  0.00  0.00     0.148 C 
HETATM    7  N   UNK N   1      20.919  15.080   7.593  0.00  0.00    -0.325 N 
HETATM    8  C   UNK N   1      20.341  15.571   8.736  0.00  0.00     0.362 C 
HETATM    9  C   UNK N   1      20.739  13.690   7.205  0.00  0.00     0.148 C 
HETATM   10  O   UNK N   1      19.767  14.802   9.495  0.00  0.00    -0.238 OA
HETATM   11  O   UNK N   1      22.747  12.615   4.219  0.00  0.00    -0.271 OA
BRANCH   8  12
HETATM   12  O   UNK N   1      20.364  16.898   9.058  0.00  0.00    -0.304 OA
BRANCH  12  13
HETATM   13  C   UNK N   1      19.324  17.775   8.823  0.00  0.00     0.176 C 
HETATM   14  C   UNK N   1      17.997  17.054   8.876  0.00  0.00     0.034 C 
ENDBRANCH  12  13
ENDBRANCH   8  12
ENDBRANCH   1   2
BRANCH   1  15
HETATM   15  C   UNK N   1      23.774  14.327   2.247  0.00  0.00     0.074 C 
BRANCH  15  16
HETATM   16  C   UNK N   1      22.368  14.582   1.817  0.00  0.00    -0.055 A 
HETATM   17  C   UNK N   1      21.666  13.641   1.061  0.00  0.00     0.007 A 
HETATM   18  C   UNK N   1      20.381  13.945   0.600  0.00  0.00     0.002 A 
HETATM   19  C   UNK N   1      19.815  15.199   0.869  0.00  0.00     0.015 A 
HETATM   20  C   UNK N   1      20.513  16.145   1.638  0.00  0.00     0.010 A 
HETATM   21  C   UNK N   1      21.776  15.807   2.125  0.00  0.00     0.022 A 
BRANCH  20  22
HETATM   22  C   UNK N   1      19.935  17.507   1.855  0.00  0.00     0.129 C 
HETATM   23  N   UNK N   1      19.244  17.827   2.902  0.00  0.00    -0.253 N 
ATOM     24  HN  UNK N   1      18.901  18.784   2.984  1.00  0.00     0.196 HD
BRANCH  23  25
HETATM   25  O   UNK N   1      18.964  16.976   3.868  0.00  0.00    -0.288 OA
HETATM   26  H   UNK N   1      18.930  16.039   3.872  0.00  0.00     0.244 HD
ENDBRANCH  23  25
BRANCH  22  27
HETATM   27  N   UNK N   1      20.190  18.509   0.893  0.00  0.00    -0.383 N 
HETATM   28  H   UNK N   1      20.951  19.125   0.786  0.00  0.00     0.157 HD
HETATM   29  H   UNK N   1      19.487  18.610   0.212  0.00  0.00     0.157 HD
ENDBRANCH  22  27
ENDBRANCH  20  22
ENDBRANCH  15  16
ENDBRANCH   1  15
BRANCH   1  30
HETATM   30  N   UNK N   1      25.490  14.371   3.927  0.00  0.00    -0.301 N 
HETATM   31  H   UNK N   1      25.969  13.471   3.971  0.00  0.00     0.173 HD
BRANCH  30  32
HETATM   32  S   UNK N   1      26.292  15.945   4.049  0.00  0.00     0.260 S 
HETATM   33  O   UNK N   1      26.499  15.566   5.523  0.00  0.00    -0.200 OA
HETATM   34  O   UNK N   1      25.283  16.998   4.524  0.00  0.00    -0.200 OA
BRANCH  32  35
HETATM   35  C   UNK N   1      28.050  16.371   4.133  0.00  0.00     0.092 A 
HETATM   36  C   UNK N   1      29.033  15.425   3.742  0.00  0.00    -0.030 A 
HETATM   37  C   UNK N   1      30.385  15.783   3.764  0.00  0.00     0.016 A 
HETATM   38  C   UNK N   1      30.786  17.059   4.171  0.00  0.00    -0.054 A 
HETATM   39  C   UNK N   1      29.818  17.980   4.580  0.00  0.00     0.016 A 
HETATM   40  C   UNK N   1      28.455  17.651   4.566  0.00  0.00    -0.030 A 
BRANCH  36  41
HETATM   41  C   UNK N   1      28.650  14.043   3.288  0.00  0.00     0.012 C 
HETATM   42  C   UNK N   1      28.922  13.006   4.362  0.00  0.00     0.015 C 
HETATM   43  C   UNK N   1      29.355  13.663   2.000  0.00  0.00     0.015 C 
ENDBRANCH  36  41
BRANCH  38  44
HETATM   44  C   UNK N   1      32.238  17.464   4.172  0.00  0.00     0.010 C 
HETATM   45  C   UNK N   1      32.907  17.336   5.533  0.00  0.00     0.015 C 
HETATM   46  C   UNK N   1      33.017  16.629   3.170  0.00  0.00     0.015 C 
ENDBRANCH  38  44
BRANCH  40  47
HETATM   47  C   UNK N   1      27.445  18.671   4.999  0.00  0.00     0.012 C 
HETATM   48  C   UNK N   1      27.379  19.831   4.023  0.00  0.00     0.015 C 
HETATM   49  C   UNK N   1      27.741  19.182   6.398  0.00  0.00     0.015 C 
ENDBRANCH  40  47
ENDBRANCH  32  35
ENDBRANCH  30  32
ENDBRANCH   1  30
TORSDOF 14
ENDMDL
MODEL 9
REMARK VINA RESULT:      -7.2      1.750      3.368
REMARK  14 active torsions:
REMARK  status: ('A' for Active; 'I' for Inactive)
REMARK    1  A    between atoms: C_2  and  O_3 
REMARK    2  A    between atoms: O_3  and  C_4 
REMARK       I    between atoms: C_4  and  N_6 
REMARK       I    between atoms: N_9  and  C_12 
REMARK    3  A    between atoms: C_12  and  C_14 
REMARK    4  A    between atoms: C_14  and  C_15 
REMARK    5  A    between atoms: C_14  and  N_27 
REMARK    6  A    between atoms: C_15  and  C_16 
REMARK    7  A    between atoms: C_20  and  C_22 
REMARK    8  A    between atoms: C_22  and  N_26 
REMARK    9  A    between atoms: N_23  and  O_25 
REMARK   10  A    between atoms: N_27  and  S_28 
REMARK   11  A    between atoms: S_28  and  C_31 
REMARK   12  A    between atoms: C_32  and  C_43 
REMARK   13  A    between atoms: C_34  and  C_40 
REMARK   14  A    between atoms: C_36  and  C_37 
ROOT
HETATM    1  C   UNK N   1      20.644  15.385   2.617  0.00  0.00     0.189 C 
ENDROOT
BRANCH   1   2
HETATM    2  C   UNK N   1      20.913  16.879   2.918  0.00  0.00     0.243 C 
HETATM    3  N   UNK N   1      21.842  17.342   3.814  0.00  0.00    -0.347 N 
HETATM    4  C   UNK N   1      22.808  16.492   4.447  0.00  0.00     0.146 C 
HETATM    5  C   UNK N   1      21.957  18.765   4.088  0.00  0.00     0.146 C 
HETATM    6  C   UNK N   1      24.156  16.908   3.881  0.00  0.00     0.148 C 
HETATM    7  N   UNK N   1      24.377  18.310   4.151  0.00  0.00    -0.325 N 
HETATM    8  C   UNK N   1      25.506  18.737   4.801  0.00  0.00     0.362 C 
HETATM    9  C   UNK N   1      23.360  19.257   3.721  0.00  0.00     0.148 C 
HETATM   10  O   UNK N   1      25.602  19.913   5.126  0.00  0.00    -0.238 OA
HETATM   11  O   UNK N   1      20.257  17.699   2.292  0.00  0.00    -0.271 OA
BRANCH   8  12
HETATM   12  O   UNK N   1      26.548  17.902   5.090  0.00  0.00    -0.304 OA
BRANCH  12  13
HETATM   13  C   UNK N   1      27.838  18.324   5.342  0.00  0.00     0.176 C 
HETATM   14  C   UNK N   1      28.186  18.130   6.799  0.00  0.00     0.034 C 
ENDBRANCH  12  13
ENDBRANCH   8  12
ENDBRANCH   1   2
BRANCH   1  15
HETATM   15  C   UNK N   1      20.507  15.064   1.108  0.00  0.00     0.074 C 
BRANCH  15  16
HETATM   16  C   UNK N   1      20.298  13.623   0.779  0.00  0.00    -0.055 A 
HETATM   17  C   UNK N   1      19.051  13.156   0.358  0.00  0.00     0.007 A 
HETATM   18  C   UNK N   1      18.864  11.787   0.141  0.00  0.00     0.002 A 
HETATM   19  C   UNK N   1      19.914  10.888   0.375  0.00  0.00     0.015 A 
HETATM   20  C   UNK N   1      21.172  11.354   0.788  0.00  0.00     0.010 A 
HETATM   21  C   UNK N   1      21.351  12.727   0.959  0.00  0.00     0.022 A 
BRANCH  20  22
HETATM   22  C   UNK N   1      22.263  10.383   1.111  0.00  0.00     0.129 C 
HETATM   23  N   UNK N   1      23.281  10.175   0.338  0.00  0.00    -0.253 N 
ATOM     24  HN  UNK N   1      23.992   9.509   0.639  1.00  0.00     0.196 HD
BRANCH  23  25
HETATM   25  O   UNK N   1      23.442  10.784  -0.820  0.00  0.00    -0.288 OA
HETATM   26  H   UNK N   1      24.218  11.040  -1.278  0.00  0.00     0.244 HD
ENDBRANCH  23  25
BRANCH  22  27
HETATM   27  N   UNK N   1      22.205   9.686   2.338  0.00  0.00    -0.383 N 
HETATM   28  H   UNK N   1      22.601   9.889   3.217  0.00  0.00     0.157 HD
HETATM   29  H   UNK N   1      21.679   8.855   2.312  0.00  0.00     0.157 HD
ENDBRANCH  22  27
ENDBRANCH  20  22
ENDBRANCH  15  16
ENDBRANCH   1  15
BRANCH   1  30
HETATM   30  N   UNK N   1      19.462  14.826   3.258  0.00  0.00    -0.301 N 
HETATM   31  H   UNK N   1      18.774  14.236   2.790  0.00  0.00     0.173 HD
BRANCH  30  32
HETATM   32  S   UNK N   1      19.380  15.314   4.958  0.00  0.00     0.260 S 
HETATM   33  O   UNK N   1      18.376  14.159   5.093  0.00  0.00    -0.200 OA
HETATM   34  O   UNK N   1      18.205  16.279   5.158  0.00  0.00    -0.200 OA
BRANCH  32  35
HETATM   35  C   UNK N   1      20.112  14.567   6.436  0.00  0.00     0.092 A 
HETATM   36  C   UNK N   1      20.745  13.300   6.358  0.00  0.00    -0.030 A 
HETATM   37  C   UNK N   1      21.350  12.756   7.495  0.00  0.00     0.016 A 
HETATM   38  C   UNK N   1      21.336  13.441   8.715  0.00  0.00    -0.054 A 
HETATM   39  C   UNK N   1      20.690  14.676   8.796  0.00  0.00     0.016 A 
HETATM   40  C   UNK N   1      20.077  15.247   7.672  0.00  0.00    -0.030 A 
BRANCH  36  41
HETATM   41  C   UNK N   1      20.793  12.531   5.066  0.00  0.00     0.012 C 
HETATM   42  C   UNK N   1      20.267  11.117   5.237  0.00  0.00     0.015 C 
HETATM   43  C   UNK N   1      22.194  12.503   4.485  0.00  0.00     0.015 C 
ENDBRANCH  36  41
BRANCH  38  44
HETATM   44  C   UNK N   1      22.010  12.876   9.940  0.00  0.00     0.010 C 
HETATM   45  C   UNK N   1      21.035  12.389  11.003  0.00  0.00     0.015 C 
HETATM   46  C   UNK N   1      22.921  11.724   9.555  0.00  0.00     0.015 C 
ENDBRANCH  38  44
BRANCH  40  47
HETATM   47  C   UNK N   1      19.405  16.583   7.796  0.00  0.00     0.012 C 
HETATM   48  C   UNK N   1      20.412  17.715   7.733  0.00  0.00     0.015 C 
HETATM   49  C   UNK N   1      18.594  16.676   9.077  0.00  0.00     0.015 C 
ENDBRANCH  40  47
ENDBRANCH  32  35
ENDBRANCH  30  32
ENDBRANCH   1  30
TORSDOF 14
ENDMDL
