MODEL 1
REMARK VINA RESULT:      -8.6      0.000      0.000
REMARK  8 active torsions:
REMARK  status: ('A' for Active; 'I' for Inactive)
REMARK    1  A    between atoms: C_2  and  O_4 
REMARK    2  A    between atoms: O_4  and  C_5 
REMARK    3  A    between atoms: C_7  and  O_29 
REMARK    4  A    between atoms: C_11  and  N_17 
REMARK    5  A    between atoms: N_17  and  C_18 
REMARK    6  A    between atoms: O_29  and  C_30 
REMARK    7  A    between atoms: C_30  and  C_31 
REMARK    8  A    between atoms: C_31  and  N_32 
REMARK       I    between atoms: N_35  and  C_38 
ROOT
HETATM    1  C   UNK N   1      31.389  17.165   7.775  0.00  0.00     0.088 A 
HETATM    2  C   UNK N   1      32.444  17.268   8.709  0.00  0.00     0.074 A 
HETATM    3  C   UNK N   1      33.775  17.459   8.281  0.00  0.00     0.073 A 
HETATM    4  C   UNK N   1      34.047  17.553   6.922  0.00  0.00     0.067 A 
HETATM    5  C   UNK N   1      33.027  17.465   5.983  0.00  0.00     0.052 A 
HETATM    6  C   UNK N   1      31.686  17.260   6.390  0.00  0.00     0.068 A 
HETATM    7  C   UNK N   1      30.695  17.193   5.375  0.00  0.00     0.122 A 
HETATM    8  N   UNK N   1      31.072  17.353   4.084  0.00  0.00    -0.338 N 
ATOM      9  HN  UNK N   1      30.359  17.323   3.355  1.00  0.00     0.168 HD
HETATM   10  C   UNK N   1      32.363  17.552   3.726  0.00  0.00     0.182 A 
HETATM   11  N   UNK N   1      33.330  17.602   4.671  0.00  0.00    -0.351 N 
ATOM     12  HN  UNK N   1      34.300  17.746   4.390  1.00  0.00     0.166 HD
ENDROOT
BRANCH   7  13
HETATM   13  N   UNK N   1      29.318  17.007   5.714  0.00  0.00    -0.338 N 
HETATM   14  H   UNK N   1      29.157  16.337   6.416  0.00  0.00     0.167 HD
BRANCH  13  15
HETATM   15  C   UNK N   1      28.133  17.631   5.204  0.00  0.00     0.095 A 
HETATM   16  C   UNK N   1      27.458  17.016   4.118  0.00  0.00     0.079 A 
HETATM   17  C   UNK N   1      26.272  17.587   3.609  0.00  0.00     0.116 A 
HETATM   18 Cl   UNK N   1      28.059  15.539   3.388  0.00  0.00    -0.080 Cl
HETATM   19  N   UNK N   1      25.768  18.732   4.149  0.00  0.00    -0.343 N 
HETATM   20  C   UNK N   1      26.429  19.317   5.175  0.00  0.00     0.181 A 
ATOM     21  HN  UNK N   1      24.907  19.142   3.787  1.00  0.00     0.167 HD
HETATM   22  C   UNK N   1      27.559  18.822   5.698  0.00  0.00     0.151 A 
HETATM   23  O   UNK N   1      26.083  20.434   5.805  0.00  0.00    -0.307 OA
HETATM   24  O   UNK N   1      27.954  19.639   6.674  0.00  0.00    -0.319 OA
HETATM   25  C   UNK N   1      27.039  20.691   6.789  0.00  0.00     0.354 A 
ENDBRANCH  13  15
ENDBRANCH   7  13
BRANCH   1  26
HETATM   26  O   UNK N   1      30.092  17.002   8.166  0.00  0.00    -0.345 OA
BRANCH  26  27
HETATM   27  C   UNK N   1      29.414  17.468   9.286  0.00  0.00     0.120 C 
HETATM   28  C   UNK N   1      29.801  18.895   9.617  0.00  0.00     0.040 C 
HETATM   29  C   UNK N   1      27.911  17.268   9.305  0.00  0.00     0.040 C 
ENDBRANCH  26  27
ENDBRANCH   1  26
BRANCH   3  30
HETATM   30  O   UNK N   1      34.809  17.577   9.149  0.00  0.00    -0.349 OA
BRANCH  30  31
HETATM   31  C   UNK N   1      35.028  16.720  10.200  0.00  0.00     0.206 C 
BRANCH  31  32
HETATM   32  C   UNK N   1      35.609  15.395   9.698  0.00  0.00     0.299 C 
BRANCH  32  33
HETATM   33  N   UNK N   1      35.833  14.430  10.778  0.00  0.00     0.093 N 
HETATM   34  C   UNK N   1      37.144  13.817  10.622  0.00  0.00     0.292 C 
HETATM   35  C   UNK N   1      37.357  12.726  11.667  0.00  0.00     0.156 C 
HETATM   36  N   UNK N   1      36.814  13.041  12.987  0.00  0.00    -0.349 N 
HETATM   37  C   UNK N   1      35.950  14.192  13.223  0.00  0.00     0.156 C 
HETATM   38  C   UNK N   1      37.082  12.198  14.027  0.00  0.00     0.215 C 
HETATM   39  C   UNK N   1      35.838  15.145  12.044  0.00  0.00     0.292 C 
HETATM   40  O   UNK N   1      37.777  11.209  13.857  0.00  0.00    -0.274 OA
HETATM   41  C   UNK N   1      36.540  12.466  15.399  0.00  0.00     0.117 C 
ENDBRANCH  32  33
ENDBRANCH  31  32
ENDBRANCH  30  31
ENDBRANCH   3  30
TORSDOF 8
ENDMDL
MODEL 2
REMARK VINA RESULT:      -8.3      3.575      6.294
REMARK  8 active torsions:
REMARK  status: ('A' for Active; 'I' for Inactive)
REMARK    1  A    between atoms: C_2  and  O_4 
REMARK    2  A    between atoms: O_4  and  C_5 
REMARK    3  A    between atoms: C_7  and  O_29 
REMARK    4  A    between atoms: C_11  and  N_17 
REMARK    5  A    between atoms: N_17  and  C_18 
REMARK    6  A    between atoms: O_29  and  C_30 
REMARK    7  A    between atoms: C_30  and  C_31 
REMARK    8  A    between atoms: C_31  and  N_32 
REMARK       I    between atoms: N_35  and  C_38 
ROOT
HETATM    1  C   UNK N   1      26.206  17.025   5.371  0.00  0.00     0.088 A 
HETATM    2  C   UNK N   1      27.515  16.871   5.879  0.00  0.00     0.074 A 
HETATM    3  C   UNK N   1      28.527  17.805   5.573  0.00  0.00     0.073 A 
HETATM    4  C   UNK N   1      28.227  18.893   4.764  0.00  0.00     0.067 A 
HETATM    5  C   UNK N   1      26.945  19.074   4.258  0.00  0.00     0.052 A 
HETATM    6  C   UNK N   1      25.919  18.142   4.543  0.00  0.00     0.068 A 
HETATM    7  C   UNK N   1      24.630  18.399   4.004  0.00  0.00     0.122 A 
HETATM    8  N   UNK N   1      24.442  19.524   3.273  0.00  0.00    -0.338 N 
ATOM      9  HN  UNK N   1      23.513  19.719   2.899  1.00  0.00     0.168 HD
HETATM   10  C   UNK N   1      25.444  20.400   3.021  0.00  0.00     0.182 A 
HETATM   11  N   UNK N   1      26.685  20.171   3.507  0.00  0.00    -0.351 N 
ATOM     12  HN  UNK N   1      27.434  20.833   3.307  1.00  0.00     0.166 HD
ENDROOT
BRANCH   7  13
HETATM   13  N   UNK N   1      23.541  17.510   4.266  0.00  0.00    -0.338 N 
HETATM   14  H   UNK N   1      23.712  16.852   4.977  0.00  0.00     0.167 HD
BRANCH  13  15
HETATM   15  C   UNK N   1      22.242  17.415   3.668  0.00  0.00     0.095 A 
HETATM   16  C   UNK N   1      21.785  16.142   3.241  0.00  0.00     0.079 A 
HETATM   17  C   UNK N   1      20.500  16.006   2.674  0.00  0.00     0.116 A 
HETATM   18 Cl   UNK N   1      22.782  14.709   3.412  0.00  0.00    -0.080 Cl
HETATM   19  N   UNK N   1      19.690  17.092   2.526  0.00  0.00    -0.343 N 
HETATM   20  C   UNK N   1      20.144  18.304   2.924  0.00  0.00     0.181 A 
ATOM     21  HN  UNK N   1      18.758  16.994   2.124  1.00  0.00     0.167 HD
HETATM   22  C   UNK N   1      21.354  18.494   3.467  0.00  0.00     0.151 A 
HETATM   23  O   UNK N   1      19.492  19.458   2.842  0.00  0.00    -0.307 OA
HETATM   24  O   UNK N   1      21.488  19.793   3.728  0.00  0.00    -0.319 OA
HETATM   25  C   UNK N   1      20.319  20.461   3.351  0.00  0.00     0.354 A 
ENDBRANCH  13  15
ENDBRANCH   7  13
BRANCH   1  26
HETATM   26  O   UNK N   1      25.206  16.147   5.672  0.00  0.00    -0.345 OA
BRANCH  26  27
HETATM   27  C   UNK N   1      25.212  14.992   6.445  0.00  0.00     0.120 C 
HETATM   28  C   UNK N   1      23.860  14.740   7.079  0.00  0.00     0.040 C 
HETATM   29  C   UNK N   1      25.778  13.742   5.797  0.00  0.00     0.040 C 
ENDBRANCH  26  27
ENDBRANCH   1  26
BRANCH   3  30
HETATM   30  O   UNK N   1      29.789  17.696   6.055  0.00  0.00    -0.349 OA
BRANCH  30  31
HETATM   31  C   UNK N   1      30.477  16.510   6.141  0.00  0.00     0.206 C 
BRANCH  31  32
HETATM   32  C   UNK N   1      31.923  16.695   5.674  0.00  0.00     0.299 C 
BRANCH  32  33
HETATM   33  N   UNK N   1      32.892  16.560   6.767  0.00  0.00     0.093 N 
HETATM   34  C   UNK N   1      33.297  17.880   7.226  0.00  0.00     0.292 C 
HETATM   35  C   UNK N   1      34.390  17.770   8.285  0.00  0.00     0.156 C 
HETATM   36  N   UNK N   1      34.217  16.657   9.217  0.00  0.00    -0.349 N 
HETATM   37  C   UNK N   1      33.217  15.615   9.014  0.00  0.00     0.156 C 
HETATM   38  C   UNK N   1      35.055  16.560  10.290  0.00  0.00     0.215 C 
HETATM   39  C   UNK N   1      32.240  15.894   7.883  0.00  0.00     0.292 C 
HETATM   40  O   UNK N   1      35.923  17.400  10.473  0.00  0.00    -0.274 OA
HETATM   41  C   UNK N   1      34.931  15.433  11.270  0.00  0.00     0.117 C 
ENDBRANCH  32  33
ENDBRANCH  31  32
ENDBRANCH  30  31
ENDBRANCH   3  30
TORSDOF 8
ENDMDL
MODEL 3
REMARK VINA RESULT:      -8.3      3.159     10.225
REMARK  8 active torsions:
REMARK  status: ('A' for Active; 'I' for Inactive)
REMARK    1  A    between atoms: C_2  and  O_4 
REMARK    2  A    between atoms: O_4  and  C_5 
REMARK    3  A    between atoms: C_7  and  O_29 
REMARK    4  A    between atoms: C_11  and  N_17 
REMARK    5  A    between atoms: N_17  and  C_18 
REMARK    6  A    between atoms: O_29  and  C_30 
REMARK    7  A    between atoms: C_30  and  C_31 
REMARK    8  A    between atoms: C_31  and  N_32 
REMARK       I    between atoms: N_35  and  C_38 
ROOT
HETATM    1  C   UNK N   1      29.706  17.644   5.905  0.00  0.00     0.088 A 
HETATM    2  C   UNK N   1      28.841  18.426   5.109  0.00  0.00     0.074 A 
HETATM    3  C   UNK N   1      27.847  19.236   5.698  0.00  0.00     0.073 A 
HETATM    4  C   UNK N   1      27.725  19.268   7.081  0.00  0.00     0.067 A 
HETATM    5  C   UNK N   1      28.569  18.516   7.889  0.00  0.00     0.052 A 
HETATM    6  C   UNK N   1      29.565  17.686   7.317  0.00  0.00     0.068 A 
HETATM    7  C   UNK N   1      30.401  16.957   8.206  0.00  0.00     0.122 A 
HETATM    8  N   UNK N   1      30.223  17.109   9.540  0.00  0.00    -0.338 N 
ATOM      9  HN  UNK N   1      30.834  16.599  10.178  1.00  0.00     0.168 HD
HETATM   10  C   UNK N   1      29.264  17.913  10.057  0.00  0.00     0.182 A 
HETATM   11  N   UNK N   1      28.443  18.606   9.234  0.00  0.00    -0.351 N 
ATOM     12  HN  UNK N   1      27.720  19.204   9.632  1.00  0.00     0.166 HD
ENDROOT
BRANCH   7  13
HETATM   13  N   UNK N   1      31.439  16.114   7.700  0.00  0.00    -0.338 N 
HETATM   14  H   UNK N   1      31.252  15.719   6.818  0.00  0.00     0.167 HD
BRANCH  13  15
HETATM   15  C   UNK N   1      32.706  15.746   8.260  0.00  0.00     0.095 A 
HETATM   16  C   UNK N   1      33.660  16.766   8.504  0.00  0.00     0.079 A 
HETATM   17  C   UNK N   1      34.907  16.443   9.081  0.00  0.00     0.116 A 
HETATM   18 Cl   UNK N   1      33.324  18.443   8.115  0.00  0.00    -0.080 Cl
HETATM   19  N   UNK N   1      35.208  15.154   9.403  0.00  0.00    -0.343 N 
HETATM   20  C   UNK N   1      34.294  14.187   9.151  0.00  0.00     0.181 A 
ATOM     21  HN  UNK N   1      36.106  14.920   9.827  1.00  0.00     0.167 HD
HETATM   22  C   UNK N   1      33.096  14.434   8.604  0.00  0.00     0.151 A 
HETATM   23  O   UNK N   1      34.430  12.888   9.391  0.00  0.00    -0.307 OA
HETATM   24  O   UNK N   1      32.454  13.272   8.480  0.00  0.00    -0.319 OA
HETATM   25  C   UNK N   1      33.264  12.245   8.974  0.00  0.00     0.354 A 
ENDBRANCH  13  15
ENDBRANCH   7  13
BRANCH   1  26
HETATM   26  O   UNK N   1      30.689  16.871   5.360  0.00  0.00    -0.345 OA
BRANCH  26  27
HETATM   27  C   UNK N   1      31.492  17.074   4.244  0.00  0.00     0.120 C 
HETATM   28  C   UNK N   1      32.876  17.548   4.634  0.00  0.00     0.040 C 
HETATM   29  C   UNK N   1      31.541  15.950   3.227  0.00  0.00     0.040 C 
ENDBRANCH  26  27
ENDBRANCH   1  26
BRANCH   3  30
HETATM   30  O   UNK N   1      27.009  20.010   4.965  0.00  0.00    -0.349 OA
BRANCH  30  31
HETATM   31  C   UNK N   1      26.885  19.925   3.600  0.00  0.00     0.206 C 
BRANCH  31  32
HETATM   32  C   UNK N   1      25.470  19.482   3.218  0.00  0.00     0.299 C 
BRANCH  32  33
HETATM   33  N   UNK N   1      24.844  18.641   4.242  0.00  0.00     0.093 N 
HETATM   34  C   UNK N   1      23.400  18.815   4.201  0.00  0.00     0.292 C 
HETATM   35  C   UNK N   1      22.731  18.039   5.333  0.00  0.00     0.156 C 
HETATM   36  N   UNK N   1      23.336  16.737   5.610  0.00  0.00    -0.349 N 
HETATM   37  C   UNK N   1      24.600  16.319   5.014  0.00  0.00     0.156 C 
HETATM   38  C   UNK N   1      22.722  15.902   6.498  0.00  0.00     0.215 C 
HETATM   39  C   UNK N   1      25.121  17.248   3.930  0.00  0.00     0.292 C 
HETATM   40  O   UNK N   1      21.678  16.235   7.038  0.00  0.00    -0.274 OA
HETATM   41  C   UNK N   1      23.305  14.561   6.829  0.00  0.00     0.117 C 
ENDBRANCH  32  33
ENDBRANCH  31  32
ENDBRANCH  30  31
ENDBRANCH   3  30
TORSDOF 8
ENDMDL
MODEL 4
REMARK VINA RESULT:      -8.2      2.034      2.433
REMARK  8 active torsions:
REMARK  status: ('A' for Active; 'I' for Inactive)
REMARK    1  A    between atoms: C_2  and  O_4 
REMARK    2  A    between atoms: O_4  and  C_5 
REMARK    3  A    between atoms: C_7  and  O_29 
REMARK    4  A    between atoms: C_11  and  N_17 
REMARK    5  A    between atoms: N_17  and  C_18 
REMARK    6  A    between atoms: O_29  and  C_30 
REMARK    7  A    between atoms: C_30  and  C_31 
REMARK    8  A    between atoms: C_31  and  N_32 
REMARK       I    between atoms: N_35  and  C_38 
ROOT
HETATM    1  C   UNK N   1      31.492  16.843   7.803  0.00  0.00     0.088 A 
HETATM    2  C   UNK N   1      32.592  16.633   8.663  0.00  0.00     0.074 A 
HETATM    3  C   UNK N   1      33.915  16.692   8.177  0.00  0.00     0.073 A 
HETATM    4  C   UNK N   1      34.135  16.967   6.833  0.00  0.00     0.067 A 
HETATM    5  C   UNK N   1      33.071  17.187   5.966  0.00  0.00     0.052 A 
HETATM    6  C   UNK N   1      31.736  17.120   6.432  0.00  0.00     0.068 A 
HETATM    7  C   UNK N   1      30.700  17.370   5.492  0.00  0.00     0.122 A 
HETATM    8  N   UNK N   1      31.037  17.683   4.218  0.00  0.00    -0.338 N 
ATOM      9  HN  UNK N   1      30.295  17.879   3.547  1.00  0.00     0.168 HD
HETATM   10  C   UNK N   1      32.325  17.744   3.803  0.00  0.00     0.182 A 
HETATM   11  N   UNK N   1      33.331  17.492   4.673  0.00  0.00    -0.351 N 
ATOM     12  HN  UNK N   1      34.298  17.534   4.350  1.00  0.00     0.166 HD
ENDROOT
BRANCH   7  13
HETATM   13  N   UNK N   1      29.329  17.337   5.895  0.00  0.00    -0.338 N 
HETATM   14  H   UNK N   1      29.186  17.110   6.842  0.00  0.00     0.167 HD
BRANCH  13  15
HETATM   15  C   UNK N   1      28.126  17.579   5.154  0.00  0.00     0.095 A 
HETATM   16  C   UNK N   1      27.345  18.716   5.484  0.00  0.00     0.079 A 
HETATM   17  C   UNK N   1      26.170  19.001   4.756  0.00  0.00     0.116 A 
HETATM   18 Cl   UNK N   1      27.813  19.801   6.781  0.00  0.00    -0.080 Cl
HETATM   19  N   UNK N   1      25.771  18.188   3.738  0.00  0.00    -0.343 N 
HETATM   20  C   UNK N   1      26.518  17.097   3.443  0.00  0.00     0.181 A 
ATOM     21  HN  UNK N   1      24.926  18.396   3.206  1.00  0.00     0.167 HD
HETATM   22  C   UNK N   1      27.641  16.776   4.100  0.00  0.00     0.151 A 
HETATM   23  O   UNK N   1      26.268  16.200   2.496  0.00  0.00    -0.307 OA
HETATM   24  O   UNK N   1      28.116  15.648   3.574  0.00  0.00    -0.319 OA
HETATM   25  C   UNK N   1      27.275  15.235   2.536  0.00  0.00     0.354 A 
ENDBRANCH  13  15
ENDBRANCH   7  13
BRANCH   1  26
HETATM   26  O   UNK N   1      30.205  16.813   8.255  0.00  0.00    -0.345 OA
BRANCH  26  27
HETATM   27  C   UNK N   1      29.603  17.461   9.326  0.00  0.00     0.120 C 
HETATM   28  C   UNK N   1      30.063  18.900   9.436  0.00  0.00     0.040 C 
HETATM   29  C   UNK N   1      28.095  17.336   9.437  0.00  0.00     0.040 C 
ENDBRANCH  26  27
ENDBRANCH   1  26
BRANCH   3  30
HETATM   30  O   UNK N   1      34.995  16.510   8.976  0.00  0.00    -0.349 OA
BRANCH  30  31
HETATM   31  C   UNK N   1      34.970  16.659  10.341  0.00  0.00     0.206 C 
BRANCH  31  32
HETATM   32  C   UNK N   1      35.952  15.687  11.003  0.00  0.00     0.299 C 
BRANCH  32  33
HETATM   33  N   UNK N   1      35.291  14.494  11.540  0.00  0.00     0.093 N 
HETATM   34  C   UNK N   1      35.698  13.325  10.775  0.00  0.00     0.292 C 
HETATM   35  C   UNK N   1      34.937  12.085  11.239  0.00  0.00     0.156 C 
HETATM   36  N   UNK N   1      34.723  12.016  12.683  0.00  0.00    -0.349 N 
HETATM   37  C   UNK N   1      35.010  13.136  13.572  0.00  0.00     0.156 C 
HETATM   38  C   UNK N   1      34.187  10.878  13.215  0.00  0.00     0.215 C 
HETATM   39  C   UNK N   1      35.741  14.292  12.909  0.00  0.00     0.292 C 
HETATM   40  O   UNK N   1      33.908   9.932  12.494  0.00  0.00    -0.274 OA
HETATM   41  C   UNK N   1      33.935  10.757  14.688  0.00  0.00     0.117 C 
ENDBRANCH  32  33
ENDBRANCH  31  32
ENDBRANCH  30  31
ENDBRANCH   3  30
TORSDOF 8
ENDMDL
MODEL 5
REMARK VINA RESULT:      -8.2      6.755     11.291
REMARK  8 active torsions:
REMARK  status: ('A' for Active; 'I' for Inactive)
REMARK    1  A    between atoms: C_2  and  O_4 
REMARK    2  A    between atoms: O_4  and  C_5 
REMARK    3  A    between atoms: C_7  and  O_29 
REMARK    4  A    between atoms: C_11  and  N_17 
REMARK    5  A    between atoms: N_17  and  C_18 
REMARK    6  A    between atoms: O_29  and  C_30 
REMARK    7  A    between atoms: C_30  and  C_31 
REMARK    8  A    between atoms: C_31  and  N_32 
REMARK       I    between atoms: N_35  and  C_38 
ROOT
HETATM    1  C   UNK N   1      22.764  15.590   5.566  0.00  0.00     0.088 A 
HETATM    2  C   UNK N   1      22.942  16.444   4.456  0.00  0.00     0.074 A 
HETATM    3  C   UNK N   1      22.246  17.668   4.363  0.00  0.00     0.073 A 
HETATM    4  C   UNK N   1      21.378  18.037   5.383  0.00  0.00     0.067 A 
HETATM    5  C   UNK N   1      21.191  17.219   6.491  0.00  0.00     0.052 A 
HETATM    6  C   UNK N   1      21.871  15.981   6.597  0.00  0.00     0.068 A 
HETATM    7  C   UNK N   1      21.642  15.205   7.765  0.00  0.00     0.122 A 
HETATM    8  N   UNK N   1      20.814  15.693   8.720  0.00  0.00    -0.338 N 
ATOM      9  HN  UNK N   1      20.662  15.144   9.566  1.00  0.00     0.168 HD
HETATM   10  C   UNK N   1      20.181  16.883   8.591  0.00  0.00     0.182 A 
HETATM   11  N   UNK N   1      20.367  17.635   7.481  0.00  0.00    -0.351 N 
ATOM     12  HN  UNK N   1      19.881  18.527   7.390  1.00  0.00     0.166 HD
ENDROOT
BRANCH   7  13
HETATM   13  N   UNK N   1      22.308  13.953   7.948  0.00  0.00    -0.338 N 
HETATM   14  H   UNK N   1      22.464  13.448   7.118  0.00  0.00     0.167 HD
BRANCH  13  15
HETATM   15  C   UNK N   1      22.786  13.309   9.136  0.00  0.00     0.095 A 
HETATM   16  C   UNK N   1      24.186  13.151   9.304  0.00  0.00     0.079 A 
HETATM   17  C   UNK N   1      24.693  12.548  10.474  0.00  0.00     0.116 A 
HETATM   18 Cl   UNK N   1      25.319  13.704   8.085  0.00  0.00    -0.080 Cl
HETATM   19  N   UNK N   1      23.848  12.107  11.448  0.00  0.00    -0.343 N 
HETATM   20  C   UNK N   1      22.514  12.251  11.269  0.00  0.00     0.181 A 
ATOM     21  HN  UNK N   1      24.214  11.678  12.298  1.00  0.00     0.167 HD
HETATM   22  C   UNK N   1      21.975  12.814  10.180  0.00  0.00     0.151 A 
HETATM   23  O   UNK N   1      21.558  11.870  12.109  0.00  0.00    -0.307 OA
HETATM   24  O   UNK N   1      20.649  12.786  10.315  0.00  0.00    -0.319 OA
HETATM   25  C   UNK N   1      20.326  12.193  11.539  0.00  0.00     0.354 A 
ENDBRANCH  13  15
ENDBRANCH   7  13
BRANCH   1  26
HETATM   26  O   UNK N   1      23.444  14.413   5.688  0.00  0.00    -0.345 OA
BRANCH  26  27
HETATM   27  C   UNK N   1      23.787  13.458   4.739  0.00  0.00     0.120 C 
HETATM   28  C   UNK N   1      25.219  13.624   4.275  0.00  0.00     0.040 C 
HETATM   29  C   UNK N   1      23.462  12.015   5.075  0.00  0.00     0.040 C 
ENDBRANCH  26  27
ENDBRANCH   1  26
BRANCH   3  30
HETATM   30  O   UNK N   1      22.403  18.519   3.319  0.00  0.00    -0.349 OA
BRANCH  30  31
HETATM   31  C   UNK N   1      22.751  19.841   3.455  0.00  0.00     0.206 C 
BRANCH  31  32
HETATM   32  C   UNK N   1      24.250  20.028   3.202  0.00  0.00     0.299 C 
BRANCH  32  33
HETATM   33  N   UNK N   1      25.080  19.432   4.253  0.00  0.00     0.093 N 
HETATM   34  C   UNK N   1      25.924  18.395   3.679  0.00  0.00     0.292 C 
HETATM   35  C   UNK N   1      26.716  17.679   4.770  0.00  0.00     0.156 C 
HETATM   36  N   UNK N   1      27.200  18.555   5.836  0.00  0.00    -0.349 N 
HETATM   37  C   UNK N   1      26.772  19.943   5.963  0.00  0.00     0.156 C 
HETATM   38  C   UNK N   1      28.043  18.040   6.778  0.00  0.00     0.215 C 
HETATM   39  C   UNK N   1      25.960  20.460   4.787  0.00  0.00     0.292 C 
HETATM   40  O   UNK N   1      28.397  16.873   6.718  0.00  0.00    -0.274 OA
HETATM   41  C   UNK N   1      28.560  18.889   7.901  0.00  0.00     0.117 C 
ENDBRANCH  32  33
ENDBRANCH  31  32
ENDBRANCH  30  31
ENDBRANCH   3  30
TORSDOF 8
ENDMDL
MODEL 6
REMARK VINA RESULT:      -8.2      2.928      5.400
REMARK  8 active torsions:
REMARK  status: ('A' for Active; 'I' for Inactive)
REMARK    1  A    between atoms: C_2  and  O_4 
REMARK    2  A    between atoms: O_4  and  C_5 
REMARK    3  A    between atoms: C_7  and  O_29 
REMARK    4  A    between atoms: C_11  and  N_17 
REMARK    5  A    between atoms: N_17  and  C_18 
REMARK    6  A    between atoms: O_29  and  C_30 
REMARK    7  A    between atoms: C_30  and  C_31 
REMARK    8  A    between atoms: C_31  and  N_32 
REMARK       I    between atoms: N_35  and  C_38 
ROOT
HETATM    1  C   UNK N   1      28.163  17.925   4.722  0.00  0.00     0.088 A 
HETATM    2  C   UNK N   1      29.568  17.853   4.840  0.00  0.00     0.074 A 
HETATM    3  C   UNK N   1      30.312  16.913   4.095  0.00  0.00     0.073 A 
HETATM    4  C   UNK N   1      29.649  16.051   3.231  0.00  0.00     0.067 A 
HETATM    5  C   UNK N   1      28.267  16.106   3.088  0.00  0.00     0.052 A 
HETATM    6  C   UNK N   1      27.502  17.034   3.836  0.00  0.00     0.068 A 
HETATM    7  C   UNK N   1      26.096  17.042   3.629  0.00  0.00     0.122 A 
HETATM    8  N   UNK N   1      25.566  16.191   2.718  0.00  0.00    -0.338 N 
ATOM      9  HN  UNK N   1      24.560  16.208   2.555  1.00  0.00     0.168 HD
HETATM   10  C   UNK N   1      26.326  15.318   2.014  0.00  0.00     0.182 A 
HETATM   11  N   UNK N   1      27.665  15.276   2.205  0.00  0.00    -0.351 N 
ATOM     12  HN  UNK N   1      28.228  14.610   1.676  1.00  0.00     0.166 HD
ENDROOT
BRANCH   7  13
HETATM   13  N   UNK N   1      25.262  17.964   4.335  0.00  0.00    -0.338 N 
HETATM   14  H   UNK N   1      25.478  18.061   5.290  0.00  0.00     0.167 HD
BRANCH  13  15
HETATM   15  C   UNK N   1      24.165  18.771   3.888  0.00  0.00     0.095 A 
HETATM   16  C   UNK N   1      24.449  19.992   3.225  0.00  0.00     0.079 A 
HETATM   17  C   UNK N   1      23.395  20.798   2.746  0.00  0.00     0.116 A 
HETATM   18 Cl   UNK N   1      26.099  20.530   2.969  0.00  0.00    -0.080 Cl
HETATM   19  N   UNK N   1      22.098  20.416   2.919  0.00  0.00    -0.343 N 
HETATM   20  C   UNK N   1      21.840  19.256   3.567  0.00  0.00     0.181 A 
ATOM     21  HN  UNK N   1      21.334  20.994   2.567  1.00  0.00     0.167 HD
HETATM   22  C   UNK N   1      22.799  18.452   4.045  0.00  0.00     0.151 A 
HETATM   23  O   UNK N   1      20.642  18.745   3.829  0.00  0.00    -0.307 OA
HETATM   24  O   UNK N   1      22.210  17.412   4.633  0.00  0.00    -0.319 OA
HETATM   25  C   UNK N   1      20.822  17.547   4.520  0.00  0.00     0.354 A 
ENDBRANCH  13  15
ENDBRANCH   7  13
BRANCH   1  26
HETATM   26  O   UNK N   1      27.425  18.840   5.415  0.00  0.00    -0.345 OA
BRANCH  26  27
HETATM   27  C   UNK N   1      27.780  19.700   6.447  0.00  0.00     0.120 C 
HETATM   28  C   UNK N   1      26.863  20.904   6.508  0.00  0.00     0.040 C 
HETATM   29  C   UNK N   1      27.988  19.074   7.814  0.00  0.00     0.040 C 
ENDBRANCH  26  27
ENDBRANCH   1  26
BRANCH   3  30
HETATM   30  O   UNK N   1      31.662  16.826   4.172  0.00  0.00    -0.349 OA
BRANCH  30  31
HETATM   31  C   UNK N   1      32.327  15.904   4.943  0.00  0.00     0.206 C 
BRANCH  31  32
HETATM   32  C   UNK N   1      33.837  16.156   4.895  0.00  0.00     0.299 C 
BRANCH  32  33
HETATM   33  N   UNK N   1      34.434  16.280   6.228  0.00  0.00     0.093 N 
HETATM   34  C   UNK N   1      33.625  17.175   7.043  0.00  0.00     0.292 C 
HETATM   35  C   UNK N   1      34.285  17.413   8.399  0.00  0.00     0.156 C 
HETATM   36  N   UNK N   1      34.930  16.232   8.970  0.00  0.00    -0.349 N 
HETATM   37  C   UNK N   1      35.122  15.001   8.212  0.00  0.00     0.156 C 
HETATM   38  C   UNK N   1      35.417  16.300  10.244  0.00  0.00     0.215 C 
HETATM   39  C   UNK N   1      34.413  14.974   6.868  0.00  0.00     0.292 C 
HETATM   40  O   UNK N   1      35.300  17.327  10.895  0.00  0.00    -0.274 OA
HETATM   41  C   UNK N   1      36.099  15.124  10.876  0.00  0.00     0.117 C 
ENDBRANCH  32  33
ENDBRANCH  31  32
ENDBRANCH  30  31
ENDBRANCH   3  30
TORSDOF 8
ENDMDL
MODEL 7
REMARK VINA RESULT:      -8.1      1.905      3.186
REMARK  8 active torsions:
REMARK  status: ('A' for Active; 'I' for Inactive)
REMARK    1  A    between atoms: C_2  and  O_4 
REMARK    2  A    between atoms: O_4  and  C_5 
REMARK    3  A    between atoms: C_7  and  O_29 
REMARK    4  A    between atoms: C_11  and  N_17 
REMARK    5  A    between atoms: N_17  and  C_18 
REMARK    6  A    between atoms: O_29  and  C_30 
REMARK    7  A    between atoms: C_30  and  C_31 
REMARK    8  A    between atoms: C_31  and  N_32 
REMARK       I    between atoms: N_35  and  C_38 
ROOT
HETATM    1  C   UNK N   1      30.681  16.797   6.225  0.00  0.00     0.088 A 
HETATM    2  C   UNK N   1      32.091  16.854   6.253  0.00  0.00     0.074 A 
HETATM    3  C   UNK N   1      32.773  17.385   7.369  0.00  0.00     0.073 A 
HETATM    4  C   UNK N   1      32.044  17.851   8.455  0.00  0.00     0.067 A 
HETATM    5  C   UNK N   1      30.655  17.798   8.457  0.00  0.00     0.052 A 
HETATM    6  C   UNK N   1      29.951  17.282   7.342  0.00  0.00     0.068 A 
HETATM    7  C   UNK N   1      28.533  17.245   7.421  0.00  0.00     0.122 A 
HETATM    8  N   UNK N   1      27.932  17.678   8.555  0.00  0.00    -0.338 N 
ATOM      9  HN  UNK N   1      26.915  17.637   8.619  1.00  0.00     0.168 HD
HETATM   10  C   UNK N   1      28.633  18.164   9.607  0.00  0.00     0.182 A 
HETATM   11  N   UNK N   1      29.984  18.226   9.552  0.00  0.00    -0.351 N 
ATOM     12  HN  UNK N   1      30.503  18.599  10.346  1.00  0.00     0.166 HD
ENDROOT
BRANCH   7  13
HETATM   13  N   UNK N   1      27.758  16.720   6.341  0.00  0.00    -0.338 N 
HETATM   14  H   UNK N   1      27.787  15.740   6.255  0.00  0.00     0.167 HD
BRANCH  13  15
HETATM   15  C   UNK N   1      26.945  17.378   5.360  0.00  0.00     0.095 A 
HETATM   16  C   UNK N   1      26.401  16.605   4.303  0.00  0.00     0.079 A 
HETATM   17  C   UNK N   1      25.573  17.214   3.336  0.00  0.00     0.116 A 
HETATM   18 Cl   UNK N   1      26.723  14.886   4.169  0.00  0.00    -0.080 Cl
HETATM   19  N   UNK N   1      25.293  18.546   3.405  0.00  0.00    -0.343 N 
HETATM   20  C   UNK N   1      25.830  19.275   4.411  0.00  0.00     0.181 A 
ATOM     21  HN  UNK N   1      24.688  18.986   2.711  1.00  0.00     0.167 HD
HETATM   22  C   UNK N   1      26.624  18.752   5.355  0.00  0.00     0.151 A 
HETATM   23  O   UNK N   1      25.669  20.578   4.617  0.00  0.00    -0.307 OA
HETATM   24  O   UNK N   1      26.989  19.736   6.177  0.00  0.00    -0.319 OA
HETATM   25  C   UNK N   1      26.401  20.931   5.752  0.00  0.00     0.354 A 
ENDBRANCH  13  15
ENDBRANCH   7  13
BRANCH   1  26
HETATM   26  O   UNK N   1      30.000  16.268   5.167  0.00  0.00    -0.345 OA
BRANCH  26  27
HETATM   27  C   UNK N   1      30.457  15.712   3.978  0.00  0.00     0.120 C 
HETATM   28  C   UNK N   1      30.514  14.201   4.056  0.00  0.00     0.040 C 
HETATM   29  C   UNK N   1      29.790  16.190   2.702  0.00  0.00     0.040 C 
ENDBRANCH  26  27
ENDBRANCH   1  26
BRANCH   3  30
HETATM   30  O   UNK N   1      34.126  17.442   7.436  0.00  0.00    -0.349 OA
BRANCH  30  31
HETATM   31  C   UNK N   1      34.856  17.039   8.528  0.00  0.00     0.206 C 
BRANCH  31  32
HETATM   32  C   UNK N   1      34.961  15.511   8.566  0.00  0.00     0.299 C 
BRANCH  32  33
HETATM   33  N   UNK N   1      35.453  15.010   9.854  0.00  0.00     0.093 N 
HETATM   34  C   UNK N   1      35.437  16.085  10.834  0.00  0.00     0.292 C 
HETATM   35  C   UNK N   1      36.051  15.622  12.152  0.00  0.00     0.156 C 
HETATM   36  N   UNK N   1      35.718  14.247  12.521  0.00  0.00    -0.349 N 
HETATM   37  C   UNK N   1      35.049  13.331  11.604  0.00  0.00     0.156 C 
HETATM   38  C   UNK N   1      36.092  13.786  13.751  0.00  0.00     0.215 C 
HETATM   39  C   UNK N   1      34.542  13.980  10.327  0.00  0.00     0.292 C 
HETATM   40  O   UNK N   1      36.680  14.519  14.531  0.00  0.00    -0.274 OA
HETATM   41  C   UNK N   1      35.788  12.381  14.177  0.00  0.00     0.117 C 
ENDBRANCH  32  33
ENDBRANCH  31  32
ENDBRANCH  30  31
ENDBRANCH   3  30
TORSDOF 8
ENDMDL
MODEL 8
REMARK VINA RESULT:      -7.9      2.314      3.580
REMARK  8 active torsions:
REMARK  status: ('A' for Active; 'I' for Inactive)
REMARK    1  A    between atoms: C_2  and  O_4 
REMARK    2  A    between atoms: O_4  and  C_5 
REMARK    3  A    between atoms: C_7  and  O_29 
REMARK    4  A    between atoms: C_11  and  N_17 
REMARK    5  A    between atoms: N_17  and  C_18 
REMARK    6  A    between atoms: O_29  and  C_30 
REMARK    7  A    between atoms: C_30  and  C_31 
REMARK    8  A    between atoms: C_31  and  N_32 
REMARK       I    between atoms: N_35  and  C_38 
ROOT
HETATM    1  C   UNK N   1      30.601  17.207   5.988  0.00  0.00     0.088 A 
HETATM    2  C   UNK N   1      32.000  17.256   6.168  0.00  0.00     0.074 A 
HETATM    3  C   UNK N   1      32.560  17.537   7.432  0.00  0.00     0.073 A 
HETATM    4  C   UNK N   1      31.719  17.761   8.515  0.00  0.00     0.067 A 
HETATM    5  C   UNK N   1      30.338  17.710   8.367  0.00  0.00     0.052 A 
HETATM    6  C   UNK N   1      29.756  17.442   7.104  0.00  0.00     0.068 A 
HETATM    7  C   UNK N   1      28.338  17.391   7.032  0.00  0.00     0.122 A 
HETATM    8  N   UNK N   1      27.621  17.573   8.167  0.00  0.00    -0.338 N 
ATOM      9  HN  UNK N   1      26.604  17.519   8.120  1.00  0.00     0.168 HD
HETATM   10  C   UNK N   1      28.207  17.823   9.362  0.00  0.00     0.182 A 
HETATM   11  N   UNK N   1      29.555  17.895   9.456  0.00  0.00    -0.351 N 
ATOM     12  HN  UNK N   1      29.986  18.090  10.359  1.00  0.00     0.166 HD
ENDROOT
BRANCH   7  13
HETATM   13  N   UNK N   1      27.683  17.107   5.794  0.00  0.00    -0.338 N 
HETATM   14  H   UNK N   1      28.133  16.431   5.239  0.00  0.00     0.167 HD
BRANCH  13  15
HETATM   15  C   UNK N   1      26.481  17.641   5.223  0.00  0.00     0.095 A 
HETATM   16  C   UNK N   1      26.548  18.887   4.548  0.00  0.00     0.079 A 
HETATM   17  C   UNK N   1      25.391  19.428   3.949  0.00  0.00     0.116 A 
HETATM   18 Cl   UNK N   1      28.053  19.778   4.423  0.00  0.00    -0.080 Cl
HETATM   19  N   UNK N   1      24.201  18.767   4.019  0.00  0.00    -0.343 N 
HETATM   20  C   UNK N   1      24.147  17.586   4.679  0.00  0.00     0.181 A 
ATOM     21  HN  UNK N   1      23.365  19.154   3.580  1.00  0.00     0.167 HD
HETATM   22  C   UNK N   1      25.212  17.025   5.267  0.00  0.00     0.151 A 
HETATM   23  O   UNK N   1      23.074  16.823   4.849  0.00  0.00    -0.307 OA
HETATM   24  O   UNK N   1      24.815  15.886   5.835  0.00  0.00    -0.319 OA
HETATM   25  C   UNK N   1      23.450  15.705   5.594  0.00  0.00     0.354 A 
ENDBRANCH  13  15
ENDBRANCH   7  13
BRANCH   1  26
HETATM   26  O   UNK N   1      30.037  16.915   4.780  0.00  0.00    -0.345 OA
BRANCH  26  27
HETATM   27  C   UNK N   1      30.185  15.809   3.951  0.00  0.00     0.120 C 
HETATM   28  C   UNK N   1      30.021  14.513   4.718  0.00  0.00     0.040 C 
HETATM   29  C   UNK N   1      29.384  15.812   2.663  0.00  0.00     0.040 C 
ENDBRANCH  26  27
ENDBRANCH   1  26
BRANCH   3  30
HETATM   30  O   UNK N   1      33.898  17.577   7.645  0.00  0.00    -0.349 OA
BRANCH  30  31
HETATM   31  C   UNK N   1      34.496  17.232   8.832  0.00  0.00     0.206 C 
BRANCH  31  32
HETATM   32  C   UNK N   1      34.881  15.750   8.827  0.00  0.00     0.299 C 
BRANCH  32  33
HETATM   33  N   UNK N   1      34.911  15.169  10.172  0.00  0.00     0.093 N 
HETATM   34  C   UNK N   1      35.032  13.722  10.076  0.00  0.00     0.292 C 
HETATM   35  C   UNK N   1      34.951  13.081  11.459  0.00  0.00     0.156 C 
HETATM   36  N   UNK N   1      35.627  13.835  12.513  0.00  0.00    -0.349 N 
HETATM   37  C   UNK N   1      36.135  15.187  12.305  0.00  0.00     0.156 C 
HETATM   38  C   UNK N   1      35.741  13.276  13.753  0.00  0.00     0.215 C 
HETATM   39  C   UNK N   1      36.096  15.657  10.861  0.00  0.00     0.292 C 
HETATM   40  O   UNK N   1      35.299  12.158  13.969  0.00  0.00    -0.274 OA
HETATM   41  C   UNK N   1      36.413  14.009  14.875  0.00  0.00     0.117 C 
ENDBRANCH  32  33
ENDBRANCH  31  32
ENDBRANCH  30  31
ENDBRANCH   3  30
TORSDOF 8
ENDMDL
MODEL 9
REMARK VINA RESULT:      -7.7      1.828      3.202
REMARK  8 active torsions:
REMARK  status: ('A' for Active; 'I' for Inactive)
REMARK    1  A    between atoms: C_2  and  O_4 
REMARK    2  A    between atoms: O_4  and  C_5 
REMARK    3  A    between atoms: C_7  and  O_29 
REMARK    4  A    between atoms: C_11  and  N_17 
REMARK    5  A    between atoms: N_17  and  C_18 
REMARK    6  A    between atoms: O_29  and  C_30 
REMARK    7  A    between atoms: C_30  and  C_31 
REMARK    8  A    between atoms: C_31  and  N_32 
REMARK       I    between atoms: N_35  and  C_38 
ROOT
HETATM    1  C   UNK N   1      32.495  16.453   6.277  0.00  0.00     0.088 A 
HETATM    2  C   UNK N   1      33.764  16.181   6.832  0.00  0.00     0.074 A 
HETATM    3  C   UNK N   1      34.071  16.552   8.158  0.00  0.00     0.073 A 
HETATM    4  C   UNK N   1      33.106  17.190   8.927  0.00  0.00     0.067 A 
HETATM    5  C   UNK N   1      31.846  17.462   8.409  0.00  0.00     0.052 A 
HETATM    6  C   UNK N   1      31.522  17.109   7.076  0.00  0.00     0.068 A 
HETATM    7  C   UNK N   1      30.210  17.405   6.619  0.00  0.00     0.122 A 
HETATM    8  N   UNK N   1      29.335  17.980   7.478  0.00  0.00    -0.338 N 
ATOM      9  HN  UNK N   1      28.388  18.178   7.156  1.00  0.00     0.168 HD
HETATM   10  C   UNK N   1      29.673  18.303   8.749  0.00  0.00     0.182 A 
HETATM   11  N   UNK N   1      30.921  18.048   9.205  0.00  0.00    -0.351 N 
ATOM     12  HN  UNK N   1      31.168  18.301  10.162  1.00  0.00     0.166 HD
ENDROOT
BRANCH   7  13
HETATM   13  N   UNK N   1      29.807  17.060   5.291  0.00  0.00    -0.338 N 
HETATM   14  H   UNK N   1      30.515  16.651   4.743  0.00  0.00     0.167 HD
BRANCH  13  15
HETATM   15  C   UNK N   1      28.548  17.209   4.623  0.00  0.00     0.095 A 
HETATM   16  C   UNK N   1      27.982  16.076   3.985  0.00  0.00     0.079 A 
HETATM   17  C   UNK N   1      26.730  16.179   3.342  0.00  0.00     0.116 A 
HETATM   18 Cl   UNK N   1      28.800  14.525   3.984  0.00  0.00    -0.080 Cl
HETATM   19  N   UNK N   1      26.057  17.364   3.322  0.00  0.00    -0.343 N 
HETATM   20  C   UNK N   1      26.616  18.442   3.922  0.00  0.00     0.181 A 
ATOM     21  HN  UNK N   1      25.149  17.438   2.865  1.00  0.00     0.167 HD
HETATM   22  C   UNK N   1      27.801  18.404   4.546  0.00  0.00     0.151 A 
HETATM   23  O   UNK N   1      26.103  19.666   3.986  0.00  0.00    -0.307 OA
HETATM   24  O   UNK N   1      28.061  19.626   5.009  0.00  0.00    -0.319 OA
HETATM   25  C   UNK N   1      27.001  20.477   4.681  0.00  0.00     0.354 A 
ENDBRANCH  13  15
ENDBRANCH   7  13
BRANCH   1  26
HETATM   26  O   UNK N   1      32.168  16.083   5.005  0.00  0.00    -0.345 OA
BRANCH  26  27
HETATM   27  C   UNK N   1      32.874  16.202   3.813  0.00  0.00     0.120 C 
HETATM   28  C   UNK N   1      33.332  14.853   3.301  0.00  0.00     0.040 C 
HETATM   29  C   UNK N   1      32.231  17.037   2.721  0.00  0.00     0.040 C 
ENDBRANCH  26  27
ENDBRANCH   1  26
BRANCH   3  30
HETATM   30  O   UNK N   1      35.274  16.294   8.728  0.00  0.00    -0.349 OA
BRANCH  30  31
HETATM   31  C   UNK N   1      35.436  15.940  10.045  0.00  0.00     0.206 C 
BRANCH  31  32
HETATM   32  C   UNK N   1      36.447  14.797  10.172  0.00  0.00     0.299 C 
BRANCH  32  33
HETATM   33  N   UNK N   1      36.187  13.938  11.331  0.00  0.00     0.093 N 
HETATM   34  C   UNK N   1      35.863  14.760  12.486  0.00  0.00     0.292 C 
HETATM   35  C   UNK N   1      35.700  13.897  13.734  0.00  0.00     0.156 C 
HETATM   36  N   UNK N   1      35.037  12.616  13.499  0.00  0.00    -0.349 N 
HETATM   37  C   UNK N   1      34.761  12.113  12.158  0.00  0.00     0.156 C 
HETATM   38  C   UNK N   1      34.709  11.838  14.571  0.00  0.00     0.215 C 
HETATM   39  C   UNK N   1      35.023  13.114  11.045  0.00  0.00     0.292 C 
HETATM   40  O   UNK N   1      34.953  12.216  15.706  0.00  0.00    -0.274 OA
HETATM   41  C   UNK N   1      34.039  10.509  14.387  0.00  0.00     0.117 C 
ENDBRANCH  32  33
ENDBRANCH  31  32
ENDBRANCH  30  31
ENDBRANCH   3  30
TORSDOF 8
ENDMDL
