MODEL 1
REMARK VINA RESULT:      -8.3      0.000      0.000
REMARK  10 active torsions:
REMARK  status: ('A' for Active; 'I' for Inactive)
REMARK    1  A    between atoms: C_3  and  O_34 
REMARK    2  A    between atoms: C_6  and  C_7 
REMARK    3  A    between atoms: C_10  and  C_14 
REMARK    4  A    between atoms: C_14  and  C_15 
REMARK    5  A    between atoms: C_15  and  C_16 
REMARK    6  A    between atoms: C_15  and  C_23 
REMARK    7  A    between atoms: C_15  and  O_31 
REMARK    8  A    between atoms: C_16  and  N_17 
REMARK    9  A    between atoms: O_34  and  C_35 
REMARK   10  A    between atoms: C_35  and  C_36 
ROOT
HETATM    1  C   UNK N   1      33.552  17.351   7.966  0.00  0.00     0.322 C 
HETATM    2  F   UNK N   1      33.820  18.688   8.216  0.00  0.00    -0.195 F 
HETATM    3  F   UNK N   1      33.906  17.087   6.650  0.00  0.00    -0.195 F 
ENDROOT
BRANCH   1   4
HETATM    4  C   UNK N   1      34.465  16.555   8.862  0.00  0.00     0.085 A 
HETATM    5  C   UNK N   1      35.040  17.155   9.994  0.00  0.00     0.032 A 
HETATM    6  C   UNK N   1      35.635  16.347  10.967  0.00  0.00     0.016 A 
HETATM    7  C   UNK N   1      35.577  14.956  10.824  0.00  0.00    -0.011 A 
HETATM    8  C   UNK N   1      35.060  14.411   9.656  0.00  0.00     0.100 A 
HETATM    9  N   UNK N   1      34.558  15.213   8.698  0.00  0.00    -0.363 N 
ATOM     10  HN  UNK N   1      34.236  14.798   7.823  1.00  0.00     0.165 HD
BRANCH   7  11
HETATM   11  C   UNK N   1      35.949  14.050  11.906  0.00  0.00    -0.025 A 
HETATM   12  C   UNK N   1      36.191  12.698  11.669  0.00  0.00     0.015 A 
HETATM   13  C   UNK N   1      36.483  11.859  12.740  0.00  0.00     0.037 A 
HETATM   14  C   UNK N   1      36.600  12.371  14.043  0.00  0.00     0.069 A 
HETATM   15  C   UNK N   1      36.437  13.736  14.263  0.00  0.00     0.037 A 
HETATM   16  C   UNK N   1      36.085  14.566  13.206  0.00  0.00     0.015 A 
BRANCH  14  17
HETATM   17  O   UNK N   1      36.824  11.565  15.101  0.00  0.00    -0.342 OA
BRANCH  17  18
HETATM   18  C   UNK N   1      36.067  10.437  15.350  0.00  0.00     0.293 C 
BRANCH  18  19
HETATM   19  C   UNK N   1      34.706  10.725  15.966  0.00  0.00     0.408 C 
HETATM   20  F   UNK N   1      34.794  11.920  16.649  0.00  0.00    -0.169 F 
HETATM   21  F   UNK N   1      33.728  10.856  15.000  0.00  0.00    -0.169 F 
HETATM   22  F   UNK N   1      34.359   9.717  16.844  0.00  0.00    -0.169 F 
ENDBRANCH  18  19
ENDBRANCH  17  18
ENDBRANCH  14  17
ENDBRANCH   7  11
ENDBRANCH   1   4
BRANCH   1  23
HETATM   23  C   UNK N   1      32.013  17.091   8.161  0.00  0.00     0.177 C 
BRANCH  23  24
HETATM   24  C   UNK N   1      31.172  18.310   8.663  0.00  0.00     0.197 C 
BRANCH  24  25
HETATM   25  N   UNK N   1      29.772  18.148   9.062  0.00  0.00    -0.269 N 
HETATM   26  C   UNK N   1      28.733  18.806   8.521  0.00  0.00     0.212 A 
HETATM   27  N   UNK N   1      27.588  18.249   8.962  0.00  0.00    -0.281 N 
HETATM   28  N   UNK N   1      27.948  17.240   9.745  0.00  0.00    -0.008 NA
ATOM     29  HN  UNK N   1      26.638  18.544   8.740  1.00  0.00     0.184 HD
HETATM   30  N   UNK N   1      29.266  17.169   9.791  0.00  0.00    -0.005 NA
ENDBRANCH  24  25
ENDBRANCH  23  24
BRANCH  23  31
HETATM   31  C   UNK N   1      31.445  16.421   6.901  0.00  0.00     0.023 A 
HETATM   32  C   UNK N   1      30.866  17.256   5.925  0.00  0.00     0.017 A 
HETATM   33  C   UNK N   1      30.351  16.738   4.739  0.00  0.00     0.043 A 
HETATM   34  C   UNK N   1      30.403  15.368   4.500  0.00  0.00     0.119 A 
HETATM   35  C   UNK N   1      30.965  14.517   5.449  0.00  0.00     0.085 A 
HETATM   36  F   UNK N   1      29.913  14.863   3.344  0.00  0.00    -0.206 F 
HETATM   37  C   UNK N   1      31.486  15.025   6.641  0.00  0.00     0.128 A 
HETATM   38  F   UNK N   1      32.019  14.143   7.511  0.00  0.00    -0.205 F 
ENDBRANCH  23  31
BRANCH  23  39
HETATM   39  O   UNK N   1      31.891  16.160   9.197  0.00  0.00    -0.377 OA
HETATM   40  H   UNK N   1      31.850  16.031  10.157  0.00  0.00     0.211 HD
ENDBRANCH  23  39
ENDBRANCH   1  23
TORSDOF 10
ENDMDL
MODEL 2
REMARK VINA RESULT:      -8.2      3.773     10.167
REMARK  10 active torsions:
REMARK  status: ('A' for Active; 'I' for Inactive)
REMARK    1  A    between atoms: C_3  and  O_34 
REMARK    2  A    between atoms: C_6  and  C_7 
REMARK    3  A    between atoms: C_10  and  C_14 
REMARK    4  A    between atoms: C_14  and  C_15 
REMARK    5  A    between atoms: C_15  and  C_16 
REMARK    6  A    between atoms: C_15  and  C_23 
REMARK    7  A    between atoms: C_15  and  O_31 
REMARK    8  A    between atoms: C_16  and  N_17 
REMARK    9  A    between atoms: O_34  and  C_35 
REMARK   10  A    between atoms: C_35  and  C_36 
ROOT
HETATM    1  C   UNK N   1      36.755  12.098  14.042  0.00  0.00     0.322 C 
HETATM    2  F   UNK N   1      37.398  10.935  13.647  0.00  0.00    -0.195 F 
HETATM    3  F   UNK N   1      37.526  12.694  15.029  0.00  0.00    -0.195 F 
ENDROOT
BRANCH   1   4
HETATM    4  C   UNK N   1      36.744  13.010  12.844  0.00  0.00     0.085 A 
HETATM    5  C   UNK N   1      36.855  12.477  11.550  0.00  0.00     0.032 A 
HETATM    6  C   UNK N   1      36.550  13.283  10.450  0.00  0.00     0.016 A 
HETATM    7  C   UNK N   1      36.072  14.581  10.670  0.00  0.00    -0.011 A 
HETATM    8  C   UNK N   1      36.046  15.088  11.963  0.00  0.00     0.100 A 
HETATM    9  N   UNK N   1      36.413  14.315  13.002  0.00  0.00    -0.363 N 
ATOM     10  HN  UNK N   1      36.443  14.724  13.937  1.00  0.00     0.165 HD
BRANCH   7  11
HETATM   11  C   UNK N   1      35.502  15.389   9.596  0.00  0.00    -0.025 A 
HETATM   12  C   UNK N   1      35.337  14.875   8.312  0.00  0.00     0.015 A 
HETATM   13  C   UNK N   1      34.847  15.700   7.304  0.00  0.00     0.037 A 
HETATM   14  C   UNK N   1      34.456  17.021   7.583  0.00  0.00     0.069 A 
HETATM   15  C   UNK N   1      34.547  17.504   8.885  0.00  0.00     0.037 A 
HETATM   16  C   UNK N   1      35.093  16.703   9.880  0.00  0.00     0.015 A 
BRANCH  14  17
HETATM   17  O   UNK N   1      34.035  17.853   6.609  0.00  0.00    -0.342 OA
BRANCH  17  18
HETATM   18  C   UNK N   1      33.597  17.399   5.381  0.00  0.00     0.293 C 
BRANCH  18  19
HETATM   19  C   UNK N   1      32.086  17.258   5.273  0.00  0.00     0.408 C 
HETATM   20  F   UNK N   1      31.803  15.943   4.969  0.00  0.00    -0.169 F 
HETATM   21  F   UNK N   1      31.459  17.565   6.465  0.00  0.00    -0.169 F 
HETATM   22  F   UNK N   1      31.602  18.076   4.271  0.00  0.00    -0.169 F 
ENDBRANCH  18  19
ENDBRANCH  17  18
ENDBRANCH  14  17
ENDBRANCH   7  11
ENDBRANCH   1   4
BRANCH   1  23
HETATM   23  C   UNK N   1      35.342  11.728  14.627  0.00  0.00     0.177 C 
BRANCH  23  24
HETATM   24  C   UNK N   1      34.793  10.314  14.247  0.00  0.00     0.197 C 
BRANCH  24  25
HETATM   25  N   UNK N   1      34.613   9.924  12.847  0.00  0.00    -0.269 N 
HETATM   26  C   UNK N   1      35.095   8.802  12.289  0.00  0.00     0.212 A 
HETATM   27  N   UNK N   1      34.551   8.656  11.065  0.00  0.00    -0.281 N 
HETATM   28  N   UNK N   1      33.722   9.681  10.906  0.00  0.00    -0.008 NA
ATOM     29  HN  UNK N   1      34.738   7.911  10.395  1.00  0.00     0.184 HD
HETATM   30  N   UNK N   1      33.748  10.437  11.989  0.00  0.00    -0.005 NA
ENDBRANCH  24  25
ENDBRANCH  23  24
BRANCH  23  31
HETATM   31  C   UNK N   1      35.323  12.016  16.135  0.00  0.00     0.023 A 
HETATM   32  C   UNK N   1      34.911  13.298  16.549  0.00  0.00     0.017 A 
HETATM   33  C   UNK N   1      34.838  13.637  17.898  0.00  0.00     0.043 A 
HETATM   34  C   UNK N   1      35.175  12.700  18.869  0.00  0.00     0.119 A 
HETATM   35  C   UNK N   1      35.591  11.425  18.490  0.00  0.00     0.085 A 
HETATM   36  F   UNK N   1      35.094  13.023  20.180  0.00  0.00    -0.206 F 
HETATM   37  C   UNK N   1      35.668  11.072  17.141  0.00  0.00     0.128 A 
HETATM   38  F   UNK N   1      36.073   9.820  16.848  0.00  0.00    -0.205 F 
ENDBRANCH  23  31
BRANCH  23  39
HETATM   39  O   UNK N   1      34.423  12.605  14.042  0.00  0.00    -0.377 OA
HETATM   40  H   UNK N   1      34.149  13.529  13.945  0.00  0.00     0.211 HD
ENDBRANCH  23  39
ENDBRANCH   1  23
TORSDOF 10
ENDMDL
MODEL 3
REMARK VINA RESULT:      -8.2      2.867      4.371
REMARK  10 active torsions:
REMARK  status: ('A' for Active; 'I' for Inactive)
REMARK    1  A    between atoms: C_3  and  O_34 
REMARK    2  A    between atoms: C_6  and  C_7 
REMARK    3  A    between atoms: C_10  and  C_14 
REMARK    4  A    between atoms: C_14  and  C_15 
REMARK    5  A    between atoms: C_15  and  C_16 
REMARK    6  A    between atoms: C_15  and  C_23 
REMARK    7  A    between atoms: C_15  and  O_31 
REMARK    8  A    between atoms: C_16  and  N_17 
REMARK    9  A    between atoms: O_34  and  C_35 
REMARK   10  A    between atoms: C_35  and  C_36 
ROOT
HETATM    1  C   UNK N   1      30.115  17.182   5.249  0.00  0.00     0.322 C 
HETATM    2  F   UNK N   1      30.542  18.302   4.552  0.00  0.00    -0.195 F 
HETATM    3  F   UNK N   1      29.796  16.202   4.320  0.00  0.00    -0.195 F 
ENDROOT
BRANCH   1   4
HETATM    4  C   UNK N   1      31.296  16.699   6.049  0.00  0.00     0.085 A 
HETATM    5  C   UNK N   1      32.373  17.562   6.308  0.00  0.00     0.032 A 
HETATM    6  C   UNK N   1      33.310  17.211   7.283  0.00  0.00     0.016 A 
HETATM    7  C   UNK N   1      33.112  16.043   8.028  0.00  0.00    -0.011 A 
HETATM    8  C   UNK N   1      32.072  15.186   7.689  0.00  0.00     0.100 A 
HETATM    9  N   UNK N   1      31.223  15.511   6.697  0.00  0.00    -0.363 N 
ATOM     10  HN  UNK N   1      30.501  14.842   6.424  1.00  0.00     0.165 HD
BRANCH   7  11
HETATM   11  C   UNK N   1      33.900  15.739   9.219  0.00  0.00    -0.025 A 
HETATM   12  C   UNK N   1      33.881  14.472   9.797  0.00  0.00     0.015 A 
HETATM   13  C   UNK N   1      34.600  14.245  10.967  0.00  0.00     0.037 A 
HETATM   14  C   UNK N   1      35.393  15.258  11.531  0.00  0.00     0.069 A 
HETATM   15  C   UNK N   1      35.473  16.498  10.905  0.00  0.00     0.037 A 
HETATM   16  C   UNK N   1      34.709  16.747   9.771  0.00  0.00     0.015 A 
BRANCH  14  17
HETATM   17  O   UNK N   1      36.050  15.075  12.695  0.00  0.00    -0.342 OA
BRANCH  17  18
HETATM   18  C   UNK N   1      36.115  13.849  13.327  0.00  0.00     0.293 C 
BRANCH  18  19
HETATM   19  C   UNK N   1      36.556  13.922  14.782  0.00  0.00     0.408 C 
HETATM   20  F   UNK N   1      37.456  12.900  15.003  0.00  0.00    -0.169 F 
HETATM   21  F   UNK N   1      37.189  15.116  15.063  0.00  0.00    -0.169 F 
HETATM   22  F   UNK N   1      35.467  13.765  15.617  0.00  0.00    -0.169 F 
ENDBRANCH  18  19
ENDBRANCH  17  18
ENDBRANCH  14  17
ENDBRANCH   7  11
ENDBRANCH   1   4
BRANCH   1  23
HETATM   23  C   UNK N   1      28.836  17.555   6.084  0.00  0.00     0.177 C 
BRANCH  23  24
HETATM   24  C   UNK N   1      29.096  18.225   7.473  0.00  0.00     0.197 C 
BRANCH  24  25
HETATM   25  N   UNK N   1      28.982  17.458   8.716  0.00  0.00    -0.269 N 
HETATM   26  C   UNK N   1      29.979  17.250   9.591  0.00  0.00     0.212 A 
HETATM   27  N   UNK N   1      29.467  16.709  10.713  0.00  0.00    -0.281 N 
HETATM   28  N   UNK N   1      28.158  16.620  10.515  0.00  0.00    -0.008 NA
ATOM     29  HN  UNK N   1      29.981  16.425  11.546  1.00  0.00     0.184 HD
HETATM   30  N   UNK N   1      27.863  17.088   9.315  0.00  0.00    -0.005 NA
ENDBRANCH  24  25
ENDBRANCH  23  24
BRANCH  23  31
HETATM   31  C   UNK N   1      27.855  18.333   5.195  0.00  0.00     0.023 A 
HETATM   32  C   UNK N   1      27.806  19.733   5.349  0.00  0.00     0.017 A 
HETATM   33  C   UNK N   1      26.965  20.520   4.565  0.00  0.00     0.043 A 
HETATM   34  C   UNK N   1      26.153  19.926   3.605  0.00  0.00     0.119 A 
HETATM   35  C   UNK N   1      26.176  18.544   3.434  0.00  0.00     0.085 A 
HETATM   36  F   UNK N   1      25.343  20.689   2.835  0.00  0.00    -0.206 F 
HETATM   37  C   UNK N   1      27.015  17.743   4.212  0.00  0.00     0.128 A 
HETATM   38  F   UNK N   1      26.989  16.413   3.987  0.00  0.00    -0.205 F 
ENDBRANCH  23  31
BRANCH  23  39
HETATM   39  O   UNK N   1      28.206  16.351   6.414  0.00  0.00    -0.377 OA
HETATM   40  H   UNK N   1      27.462  15.759   6.226  0.00  0.00     0.211 HD
ENDBRANCH  23  39
ENDBRANCH   1  23
TORSDOF 10
ENDMDL
MODEL 4
REMARK VINA RESULT:      -8.0      3.715      5.540
REMARK  10 active torsions:
REMARK  status: ('A' for Active; 'I' for Inactive)
REMARK    1  A    between atoms: C_3  and  O_34 
REMARK    2  A    between atoms: C_6  and  C_7 
REMARK    3  A    between atoms: C_10  and  C_14 
REMARK    4  A    between atoms: C_14  and  C_15 
REMARK    5  A    between atoms: C_15  and  C_16 
REMARK    6  A    between atoms: C_15  and  C_23 
REMARK    7  A    between atoms: C_15  and  O_31 
REMARK    8  A    between atoms: C_16  and  N_17 
REMARK    9  A    between atoms: O_34  and  C_35 
REMARK   10  A    between atoms: C_35  and  C_36 
ROOT
HETATM    1  C   UNK N   1      29.165  16.648   5.746  0.00  0.00     0.322 C 
HETATM    2  F   UNK N   1      28.907  15.297   5.572  0.00  0.00    -0.195 F 
HETATM    3  F   UNK N   1      28.128  17.184   6.495  0.00  0.00    -0.195 F 
ENDROOT
BRANCH   1   4
HETATM    4  C   UNK N   1      30.427  16.742   6.561  0.00  0.00     0.085 A 
HETATM    5  C   UNK N   1      30.420  17.409   7.797  0.00  0.00     0.032 A 
HETATM    6  C   UNK N   1      31.497  17.239   8.671  0.00  0.00     0.016 A 
HETATM    7  C   UNK N   1      32.522  16.350   8.323  0.00  0.00    -0.011 A 
HETATM    8  C   UNK N   1      32.520  15.768   7.062  0.00  0.00     0.100 A 
HETATM    9  N   UNK N   1      31.507  16.003   6.208  0.00  0.00    -0.363 N 
ATOM     10  HN  UNK N   1      31.553  15.614   5.266  1.00  0.00     0.165 HD
BRANCH   7  11
HETATM   11  C   UNK N   1      33.543  15.933   9.279  0.00  0.00    -0.025 A 
HETATM   12  C   UNK N   1      33.585  14.631   9.773  0.00  0.00     0.015 A 
HETATM   13  C   UNK N   1      34.539  14.294  10.728  0.00  0.00     0.037 A 
HETATM   14  C   UNK N   1      35.497  15.231  11.149  0.00  0.00     0.069 A 
HETATM   15  C   UNK N   1      35.502  16.507  10.593  0.00  0.00     0.037 A 
HETATM   16  C   UNK N   1      34.514  16.865   9.684  0.00  0.00     0.015 A 
BRANCH  14  17
HETATM   17  O   UNK N   1      36.392  14.941  12.116  0.00  0.00    -0.342 OA
BRANCH  17  18
HETATM   18  C   UNK N   1      36.367  13.753  12.819  0.00  0.00     0.293 C 
BRANCH  18  19
HETATM   19  C   UNK N   1      36.427  13.923  14.330  0.00  0.00     0.408 C 
HETATM   20  F   UNK N   1      36.814  15.220  14.596  0.00  0.00    -0.169 F 
HETATM   21  F   UNK N   1      35.192  13.718  14.914  0.00  0.00    -0.169 F 
HETATM   22  F   UNK N   1      37.347  13.047  14.871  0.00  0.00    -0.169 F 
ENDBRANCH  18  19
ENDBRANCH  17  18
ENDBRANCH  14  17
ENDBRANCH   7  11
ENDBRANCH   1   4
BRANCH   1  23
HETATM   23  C   UNK N   1      29.213  17.345   4.336  0.00  0.00     0.177 C 
BRANCH  23  24
HETATM   24  C   UNK N   1      29.692  16.451   3.146  0.00  0.00     0.197 C 
BRANCH  24  25
HETATM   25  N   UNK N   1      31.077  15.982   3.064  0.00  0.00    -0.269 N 
HETATM   26  C   UNK N   1      31.451  14.708   2.856  0.00  0.00     0.212 A 
HETATM   27  N   UNK N   1      32.776  14.678   2.611  0.00  0.00    -0.281 N 
HETATM   28  N   UNK N   1      33.185  15.940   2.646  0.00  0.00    -0.008 NA
ATOM     29  HN  UNK N   1      33.348  13.854   2.435  1.00  0.00     0.184 HD
HETATM   30  N   UNK N   1      32.156  16.728   2.903  0.00  0.00    -0.005 NA
ENDBRANCH  24  25
ENDBRANCH  23  24
BRANCH  23  31
HETATM   31  C   UNK N   1      27.879  18.061   4.076  0.00  0.00     0.023 A 
HETATM   32  C   UNK N   1      27.863  19.466   4.181  0.00  0.00     0.017 A 
HETATM   33  C   UNK N   1      26.703  20.199   3.935  0.00  0.00     0.043 A 
HETATM   34  C   UNK N   1      25.531  19.542   3.576  0.00  0.00     0.119 A 
HETATM   35  C   UNK N   1      25.515  18.154   3.469  0.00  0.00     0.085 A 
HETATM   36  F   UNK N   1      24.406  20.252   3.326  0.00  0.00    -0.206 F 
HETATM   37  C   UNK N   1      26.671  17.407   3.712  0.00  0.00     0.128 A 
HETATM   38  F   UNK N   1      26.583  16.068   3.584  0.00  0.00    -0.205 F 
ENDBRANCH  23  31
BRANCH  23  39
HETATM   39  O   UNK N   1      30.192  18.341   4.414  0.00  0.00    -0.377 OA
HETATM   40  H   UNK N   1      30.794  18.827   4.996  0.00  0.00     0.211 HD
ENDBRANCH  23  39
ENDBRANCH   1  23
TORSDOF 10
ENDMDL
MODEL 5
REMARK VINA RESULT:      -8.0      3.676      5.894
REMARK  10 active torsions:
REMARK  status: ('A' for Active; 'I' for Inactive)
REMARK    1  A    between atoms: C_3  and  O_34 
REMARK    2  A    between atoms: C_6  and  C_7 
REMARK    3  A    between atoms: C_10  and  C_14 
REMARK    4  A    between atoms: C_14  and  C_15 
REMARK    5  A    between atoms: C_15  and  C_16 
REMARK    6  A    between atoms: C_15  and  C_23 
REMARK    7  A    between atoms: C_15  and  O_31 
REMARK    8  A    between atoms: C_16  and  N_17 
REMARK    9  A    between atoms: O_34  and  C_35 
REMARK   10  A    between atoms: C_35  and  C_36 
ROOT
HETATM    1  C   UNK N   1      28.358  16.938   4.599  0.00  0.00     0.322 C 
HETATM    2  F   UNK N   1      28.541  17.699   3.455  0.00  0.00    -0.195 F 
HETATM    3  F   UNK N   1      27.705  15.771   4.231  0.00  0.00    -0.195 F 
ENDROOT
BRANCH   1   4
HETATM    4  C   UNK N   1      29.732  16.568   5.092  0.00  0.00     0.085 A 
HETATM    5  C   UNK N   1      30.824  17.415   4.840  0.00  0.00     0.032 A 
HETATM    6  C   UNK N   1      32.016  17.220   5.542  0.00  0.00     0.016 A 
HETATM    7  C   UNK N   1      32.068  16.232   6.533  0.00  0.00    -0.011 A 
HETATM    8  C   UNK N   1      30.988  15.375   6.698  0.00  0.00     0.100 A 
HETATM    9  N   UNK N   1      29.875  15.536   5.959  0.00  0.00    -0.363 N 
ATOM     10  HN  UNK N   1      29.115  14.861   6.054  1.00  0.00     0.165 HD
BRANCH   7  11
HETATM   11  C   UNK N   1      33.182  16.134   7.471  0.00  0.00    -0.025 A 
HETATM   12  C   UNK N   1      34.046  15.040   7.458  0.00  0.00     0.015 A 
HETATM   13  C   UNK N   1      35.057  14.959   8.411  0.00  0.00     0.037 A 
HETATM   14  C   UNK N   1      35.255  15.994   9.339  0.00  0.00     0.069 A 
HETATM   15  C   UNK N   1      34.440  17.122   9.297  0.00  0.00     0.037 A 
HETATM   16  C   UNK N   1      33.392  17.179   8.387  0.00  0.00     0.015 A 
BRANCH  14  17
HETATM   17  O   UNK N   1      36.191  15.906  10.307  0.00  0.00    -0.342 OA
BRANCH  17  18
HETATM   18  C   UNK N   1      35.880  15.972  11.650  0.00  0.00     0.293 C 
BRANCH  18  19
HETATM   19  C   UNK N   1      36.040  14.653  12.392  0.00  0.00     0.408 C 
HETATM   20  F   UNK N   1      34.823  14.004  12.371  0.00  0.00    -0.169 F 
HETATM   21  F   UNK N   1      36.970  13.836  11.780  0.00  0.00    -0.169 F 
HETATM   22  F   UNK N   1      36.416  14.886  13.700  0.00  0.00    -0.169 F 
ENDBRANCH  18  19
ENDBRANCH  17  18
ENDBRANCH  14  17
ENDBRANCH   7  11
ENDBRANCH   1   4
BRANCH   1  23
HETATM   23  C   UNK N   1      27.466  17.745   5.613  0.00  0.00     0.177 C 
BRANCH  23  24
HETATM   24  C   UNK N   1      28.236  18.620   6.656  0.00  0.00     0.197 C 
BRANCH  24  25
HETATM   25  N   UNK N   1      28.632  18.072   7.956  0.00  0.00    -0.269 N 
HETATM   26  C   UNK N   1      29.808  18.300   8.565  0.00  0.00     0.212 A 
HETATM   27  N   UNK N   1      29.740  17.836   9.828  0.00  0.00    -0.281 N 
HETATM   28  N   UNK N   1      28.512  17.356   9.979  0.00  0.00    -0.008 NA
ATOM     29  HN  UNK N   1      30.482  17.850  10.527  1.00  0.00     0.184 HD
HETATM   30  N   UNK N   1      27.839  17.514   8.853  0.00  0.00    -0.005 NA
ENDBRANCH  24  25
ENDBRANCH  23  24
BRANCH  23  31
HETATM   31  C   UNK N   1      26.382  18.511   4.842  0.00  0.00     0.023 A 
HETATM   32  C   UNK N   1      25.096  17.939   4.784  0.00  0.00     0.017 A 
HETATM   33  C   UNK N   1      24.045  18.578   4.129  0.00  0.00     0.043 A 
HETATM   34  C   UNK N   1      24.256  19.808   3.515  0.00  0.00     0.119 A 
HETATM   35  C   UNK N   1      25.519  20.396   3.551  0.00  0.00     0.085 A 
HETATM   36  F   UNK N   1      23.235  20.437   2.888  0.00  0.00    -0.206 F 
HETATM   37  C   UNK N   1      26.580  19.766   4.205  0.00  0.00     0.128 A 
HETATM   38  F   UNK N   1      27.772  20.397   4.204  0.00  0.00    -0.205 F 
ENDBRANCH  23  31
BRANCH  23  39
HETATM   39  O   UNK N   1      26.803  16.801   6.403  0.00  0.00    -0.377 OA
HETATM   40  H   UNK N   1      26.867  15.943   6.849  0.00  0.00     0.211 HD
ENDBRANCH  23  39
ENDBRANCH   1  23
TORSDOF 10
ENDMDL
MODEL 6
REMARK VINA RESULT:      -7.8      3.646      9.813
REMARK  10 active torsions:
REMARK  status: ('A' for Active; 'I' for Inactive)
REMARK    1  A    between atoms: C_3  and  O_34 
REMARK    2  A    between atoms: C_6  and  C_7 
REMARK    3  A    between atoms: C_10  and  C_14 
REMARK    4  A    between atoms: C_14  and  C_15 
REMARK    5  A    between atoms: C_15  and  C_16 
REMARK    6  A    between atoms: C_15  and  C_23 
REMARK    7  A    between atoms: C_15  and  O_31 
REMARK    8  A    between atoms: C_16  and  N_17 
REMARK    9  A    between atoms: O_34  and  C_35 
REMARK   10  A    between atoms: C_35  and  C_36 
ROOT
HETATM    1  C   UNK N   1      35.678  14.506   9.281  0.00  0.00     0.322 C 
HETATM    2  F   UNK N   1      36.552  14.112   8.279  0.00  0.00    -0.195 F 
HETATM    3  F   UNK N   1      36.405  15.229  10.216  0.00  0.00    -0.195 F 
ENDROOT
BRANCH   1   4
HETATM    4  C   UNK N   1      34.683  15.438   8.641  0.00  0.00     0.085 A 
HETATM    5  C   UNK N   1      34.283  15.237   7.311  0.00  0.00     0.032 A 
HETATM    6  C   UNK N   1      33.159  15.912   6.826  0.00  0.00     0.016 A 
HETATM    7  C   UNK N   1      32.417  16.714   7.702  0.00  0.00    -0.011 A 
HETATM    8  C   UNK N   1      32.890  16.937   8.988  0.00  0.00     0.100 A 
HETATM    9  N   UNK N   1      34.017  16.333   9.411  0.00  0.00    -0.363 N 
ATOM     10  HN  UNK N   1      34.380  16.555  10.339  1.00  0.00     0.165 HD
BRANCH   7  11
HETATM   11  C   UNK N   1      31.106  17.245   7.343  0.00  0.00    -0.025 A 
HETATM   12  C   UNK N   1      30.281  17.841   8.295  0.00  0.00     0.015 A 
HETATM   13  C   UNK N   1      29.014  18.280   7.920  0.00  0.00     0.037 A 
HETATM   14  C   UNK N   1      28.587  18.187   6.585  0.00  0.00     0.069 A 
HETATM   15  C   UNK N   1      29.446  17.664   5.623  0.00  0.00     0.037 A 
HETATM   16  C   UNK N   1      30.687  17.170   6.004  0.00  0.00     0.015 A 
BRANCH  14  17
HETATM   17  O   UNK N   1      27.342  18.551   6.214  0.00  0.00    -0.342 OA
BRANCH  17  18
HETATM   18  C   UNK N   1      27.081  19.727   5.539  0.00  0.00     0.293 C 
BRANCH  18  19
HETATM   19  C   UNK N   1      26.986  20.952   6.437  0.00  0.00     0.408 C 
HETATM   20  F   UNK N   1      25.983  21.760   5.946  0.00  0.00    -0.169 F 
HETATM   21  F   UNK N   1      26.660  20.608   7.734  0.00  0.00    -0.169 F 
HETATM   22  F   UNK N   1      28.181  21.643   6.426  0.00  0.00    -0.169 F 
ENDBRANCH  18  19
ENDBRANCH  17  18
ENDBRANCH  14  17
ENDBRANCH   7  11
ENDBRANCH   1   4
BRANCH   1  23
HETATM   23  C   UNK N   1      35.069  13.225   9.961  0.00  0.00     0.177 C 
BRANCH  23  24
HETATM   24  C   UNK N   1      35.010  11.940   9.072  0.00  0.00     0.197 C 
BRANCH  24  25
HETATM   25  N   UNK N   1      33.902  10.989   9.192  0.00  0.00    -0.269 N 
HETATM   26  C   UNK N   1      33.959   9.815   9.843  0.00  0.00     0.212 A 
HETATM   27  N   UNK N   1      32.712   9.315   9.947  0.00  0.00    -0.281 N 
HETATM   28  N   UNK N   1      31.909  10.207   9.379  0.00  0.00    -0.008 NA
ATOM     29  HN  UNK N   1      32.440   8.431  10.373  1.00  0.00     0.184 HD
HETATM   30  N   UNK N   1      32.627  11.225   8.939  0.00  0.00    -0.005 NA
ENDBRANCH  24  25
ENDBRANCH  23  24
BRANCH  23  31
HETATM   31  C   UNK N   1      35.740  13.004  11.326  0.00  0.00     0.023 A 
HETATM   32  C   UNK N   1      35.003  13.348  12.476  0.00  0.00     0.017 A 
HETATM   33  C   UNK N   1      35.522  13.156  13.755  0.00  0.00     0.043 A 
HETATM   34  C   UNK N   1      36.793  12.614  13.913  0.00  0.00     0.119 A 
HETATM   35  C   UNK N   1      37.547  12.269  12.794  0.00  0.00     0.085 A 
HETATM   36  F   UNK N   1      37.296  12.415  15.154  0.00  0.00    -0.206 F 
HETATM   37  C   UNK N   1      37.038  12.455  11.507  0.00  0.00     0.128 A 
HETATM   38  F   UNK N   1      37.821  12.094  10.470  0.00  0.00    -0.205 F 
ENDBRANCH  23  31
BRANCH  23  39
HETATM   39  O   UNK N   1      33.724  13.508  10.219  0.00  0.00    -0.377 OA
HETATM   40  H   UNK N   1      32.805  13.245  10.056  0.00  0.00     0.211 HD
ENDBRANCH  23  39
ENDBRANCH   1  23
TORSDOF 10
ENDMDL
MODEL 7
REMARK VINA RESULT:      -7.7      4.087      6.485
REMARK  10 active torsions:
REMARK  status: ('A' for Active; 'I' for Inactive)
REMARK    1  A    between atoms: C_3  and  O_34 
REMARK    2  A    between atoms: C_6  and  C_7 
REMARK    3  A    between atoms: C_10  and  C_14 
REMARK    4  A    between atoms: C_14  and  C_15 
REMARK    5  A    between atoms: C_15  and  C_16 
REMARK    6  A    between atoms: C_15  and  C_23 
REMARK    7  A    between atoms: C_15  and  O_31 
REMARK    8  A    between atoms: C_16  and  N_17 
REMARK    9  A    between atoms: O_34  and  C_35 
REMARK   10  A    between atoms: C_35  and  C_36 
ROOT
HETATM    1  C   UNK N   1      35.126  15.059  11.552  0.00  0.00     0.322 C 
HETATM    2  F   UNK N   1      33.789  14.901  11.222  0.00  0.00    -0.195 F 
HETATM    3  F   UNK N   1      35.284  16.333  12.079  0.00  0.00    -0.195 F 
ENDROOT
BRANCH   1   4
HETATM    4  C   UNK N   1      35.420  14.064  12.644  0.00  0.00     0.085 A 
HETATM    5  C   UNK N   1      36.331  14.384  13.664  0.00  0.00     0.032 A 
HETATM    6  C   UNK N   1      36.374  13.592  14.814  0.00  0.00     0.016 A 
HETATM    7  C   UNK N   1      35.456  12.543  14.953  0.00  0.00    -0.011 A 
HETATM    8  C   UNK N   1      34.623  12.222  13.889  0.00  0.00     0.100 A 
HETATM    9  N   UNK N   1      34.649  12.955  12.761  0.00  0.00    -0.363 N 
ATOM     10  HN  UNK N   1      34.071  12.668  11.970  1.00  0.00     0.165 HD
BRANCH   7  11
HETATM   11  C   UNK N   1      35.274  11.836  16.216  0.00  0.00    -0.025 A 
HETATM   12  C   UNK N   1      35.398  12.492  17.439  0.00  0.00     0.015 A 
HETATM   13  C   UNK N   1      35.275  11.765  18.619  0.00  0.00     0.037 A 
HETATM   14  C   UNK N   1      34.965  10.395  18.591  0.00  0.00     0.069 A 
HETATM   15  C   UNK N   1      34.762   9.761  17.368  0.00  0.00     0.037 A 
HETATM   16  C   UNK N   1      34.943  10.470  16.187  0.00  0.00     0.015 A 
BRANCH  14  17
HETATM   17  O   UNK N   1      34.900   9.661  19.721  0.00  0.00    -0.342 OA
BRANCH  17  18
HETATM   18  C   UNK N   1      33.703   9.255  20.276  0.00  0.00     0.293 C 
BRANCH  18  19
HETATM   19  C   UNK N   1      33.334   9.981  21.560  0.00  0.00     0.408 C 
HETATM   20  F   UNK N   1      34.181   9.540  22.555  0.00  0.00    -0.169 F 
HETATM   21  F   UNK N   1      33.496  11.347  21.437  0.00  0.00    -0.169 F 
HETATM   22  F   UNK N   1      32.028   9.697  21.908  0.00  0.00    -0.169 F 
ENDBRANCH  18  19
ENDBRANCH  17  18
ENDBRANCH  14  17
ENDBRANCH   7  11
ENDBRANCH   1   4
BRANCH   1  23
HETATM   23  C   UNK N   1      35.996  14.915  10.249  0.00  0.00     0.177 C 
BRANCH  23  24
HETATM   24  C   UNK N   1      36.550  13.483   9.952  0.00  0.00     0.197 C 
BRANCH  24  25
HETATM   25  N   UNK N   1      37.908  13.291   9.438  0.00  0.00    -0.269 N 
HETATM   26  C   UNK N   1      38.777  12.365   9.877  0.00  0.00     0.212 A 
HETATM   27  N   UNK N   1      39.829  12.322   9.036  0.00  0.00    -0.281 N 
HETATM   28  N   UNK N   1      39.571  13.205   8.079  0.00  0.00    -0.008 NA
ATOM     29  HN  UNK N   1      40.655  11.732   9.118  1.00  0.00     0.184 HD
HETATM   30  N   UNK N   1      38.404  13.778   8.313  0.00  0.00    -0.005 NA
ENDBRANCH  24  25
ENDBRANCH  23  24
BRANCH  23  31
HETATM   31  C   UNK N   1      35.250  15.550   9.066  0.00  0.00     0.023 A 
HETATM   32  C   UNK N   1      34.813  14.693   8.036  0.00  0.00     0.017 A 
HETATM   33  C   UNK N   1      34.106  15.178   6.939  0.00  0.00     0.043 A 
HETATM   34  C   UNK N   1      33.817  16.536   6.845  0.00  0.00     0.119 A 
HETATM   35  C   UNK N   1      34.241  17.408   7.844  0.00  0.00     0.085 A 
HETATM   36  F   UNK N   1      33.120  17.009   5.785  0.00  0.00    -0.206 F 
HETATM   37  C   UNK N   1      34.950  16.934   8.951  0.00  0.00     0.128 A 
HETATM   38  F   UNK N   1      35.323  17.835   9.882  0.00  0.00    -0.205 F 
ENDBRANCH  23  31
BRANCH  23  39
HETATM   39  O   UNK N   1      37.150  15.678  10.450  0.00  0.00    -0.377 OA
HETATM   40  H   UNK N   1      37.834  16.221  10.029  0.00  0.00     0.211 HD
ENDBRANCH  23  39
ENDBRANCH   1  23
TORSDOF 10
ENDMDL
MODEL 8
REMARK VINA RESULT:      -7.7      5.938      9.403
REMARK  10 active torsions:
REMARK  status: ('A' for Active; 'I' for Inactive)
REMARK    1  A    between atoms: C_3  and  O_34 
REMARK    2  A    between atoms: C_6  and  C_7 
REMARK    3  A    between atoms: C_10  and  C_14 
REMARK    4  A    between atoms: C_14  and  C_15 
REMARK    5  A    between atoms: C_15  and  C_16 
REMARK    6  A    between atoms: C_15  and  C_23 
REMARK    7  A    between atoms: C_15  and  O_31 
REMARK    8  A    between atoms: C_16  and  N_17 
REMARK    9  A    between atoms: O_34  and  C_35 
REMARK   10  A    between atoms: C_35  and  C_36 
ROOT
HETATM    1  C   UNK N   1      24.713  17.346   3.909  0.00  0.00     0.322 C 
HETATM    2  F   UNK N   1      24.910  18.529   3.215  0.00  0.00    -0.195 F 
HETATM    3  F   UNK N   1      24.903  16.297   3.021  0.00  0.00    -0.195 F 
ENDROOT
BRANCH   1   4
HETATM    4  C   UNK N   1      25.796  17.274   4.953  0.00  0.00     0.085 A 
HETATM    5  C   UNK N   1      26.453  16.060   5.206  0.00  0.00     0.032 A 
HETATM    6  C   UNK N   1      27.637  16.065   5.948  0.00  0.00     0.016 A 
HETATM    7  C   UNK N   1      28.178  17.290   6.358  0.00  0.00    -0.011 A 
HETATM    8  C   UNK N   1      27.457  18.458   6.145  0.00  0.00     0.100 A 
HETATM    9  N   UNK N   1      26.281  18.420   5.490  0.00  0.00    -0.363 N 
ATOM     10  HN  UNK N   1      25.739  19.280   5.395  1.00  0.00     0.165 HD
BRANCH   7  11
HETATM   11  C   UNK N   1      29.523  17.397   6.913  0.00  0.00    -0.025 A 
HETATM   12  C   UNK N   1      29.731  17.729   8.250  0.00  0.00     0.015 A 
HETATM   13  C   UNK N   1      31.032  17.879   8.721  0.00  0.00     0.037 A 
HETATM   14  C   UNK N   1      32.133  17.636   7.883  0.00  0.00     0.069 A 
HETATM   15  C   UNK N   1      31.920  17.226   6.570  0.00  0.00     0.037 A 
HETATM   16  C   UNK N   1      30.623  17.134   6.079  0.00  0.00     0.015 A 
BRANCH  14  17
HETATM   17  O   UNK N   1      33.399  17.833   8.304  0.00  0.00    -0.342 OA
BRANCH  17  18
HETATM   18  C   UNK N   1      34.053  16.944   9.134  0.00  0.00     0.293 C 
BRANCH  18  19
HETATM   19  C   UNK N   1      34.690  15.768   8.407  0.00  0.00     0.408 C 
HETATM   20  F   UNK N   1      35.087  16.204   7.161  0.00  0.00    -0.169 F 
HETATM   21  F   UNK N   1      35.807  15.304   9.072  0.00  0.00    -0.169 F 
HETATM   22  F   UNK N   1      33.774  14.744   8.267  0.00  0.00    -0.169 F 
ENDBRANCH  18  19
ENDBRANCH  17  18
ENDBRANCH  14  17
ENDBRANCH   7  11
ENDBRANCH   1   4
BRANCH   1  23
HETATM   23  C   UNK N   1      23.238  17.313   4.457  0.00  0.00     0.177 C 
BRANCH  23  24
HETATM   24  C   UNK N   1      22.128  17.788   3.462  0.00  0.00     0.197 C 
BRANCH  24  25
HETATM   25  N   UNK N   1      21.636  19.167   3.483  0.00  0.00    -0.269 N 
HETATM   26  C   UNK N   1      21.827  20.071   2.507  0.00  0.00     0.212 A 
HETATM   27  N   UNK N   1      21.051  21.145   2.752  0.00  0.00    -0.281 N 
HETATM   28  N   UNK N   1      20.377  20.868   3.861  0.00  0.00    -0.008 NA
ATOM     29  HN  UNK N   1      20.994  21.998   2.198  1.00  0.00     0.184 HD
HETATM   30  N   UNK N   1      20.718  19.667   4.292  0.00  0.00    -0.005 NA
ENDBRANCH  24  25
ENDBRANCH  23  24
BRANCH  23  31
HETATM   31  C   UNK N   1      22.959  15.941   5.088  0.00  0.00     0.023 A 
HETATM   32  C   UNK N   1      22.972  15.857   6.495  0.00  0.00     0.017 A 
HETATM   33  C   UNK N   1      22.702  14.659   7.153  0.00  0.00     0.043 A 
HETATM   34  C   UNK N   1      22.411  13.514   6.418  0.00  0.00     0.119 A 
HETATM   35  C   UNK N   1      22.395  13.566   5.027  0.00  0.00     0.085 A 
HETATM   36  F   UNK N   1      22.137  12.352   7.055  0.00  0.00    -0.206 F 
HETATM   37  C   UNK N   1      22.663  14.761   4.355  0.00  0.00     0.128 A 
HETATM   38  F   UNK N   1      22.624  14.738   3.007  0.00  0.00    -0.205 F 
ENDBRANCH  23  31
BRANCH  23  39
HETATM   39  O   UNK N   1      23.173  18.250   5.492  0.00  0.00    -0.377 OA
HETATM   40  H   UNK N   1      22.728  18.505   6.315  0.00  0.00     0.211 HD
ENDBRANCH  23  39
ENDBRANCH   1  23
TORSDOF 10
ENDMDL
MODEL 9
REMARK VINA RESULT:      -7.6      4.315      6.342
REMARK  10 active torsions:
REMARK  status: ('A' for Active; 'I' for Inactive)
REMARK    1  A    between atoms: C_3  and  O_34 
REMARK    2  A    between atoms: C_6  and  C_7 
REMARK    3  A    between atoms: C_10  and  C_14 
REMARK    4  A    between atoms: C_14  and  C_15 
REMARK    5  A    between atoms: C_15  and  C_16 
REMARK    6  A    between atoms: C_15  and  C_23 
REMARK    7  A    between atoms: C_15  and  O_31 
REMARK    8  A    between atoms: C_16  and  N_17 
REMARK    9  A    between atoms: O_34  and  C_35 
REMARK   10  A    between atoms: C_35  and  C_36 
ROOT
HETATM    1  C   UNK N   1      28.399  16.732   5.762  0.00  0.00     0.322 C 
HETATM    2  F   UNK N   1      28.070  15.388   5.840  0.00  0.00    -0.195 F 
HETATM    3  F   UNK N   1      27.450  17.444   6.482  0.00  0.00    -0.195 F 
ENDROOT
BRANCH   1   4
HETATM    4  C   UNK N   1      29.726  16.890   6.458  0.00  0.00     0.085 A 
HETATM    5  C   UNK N   1      29.829  17.693   7.605  0.00  0.00     0.032 A 
HETATM    6  C   UNK N   1      30.972  17.599   8.403  0.00  0.00     0.016 A 
HETATM    7  C   UNK N   1      31.953  16.653   8.079  0.00  0.00    -0.011 A 
HETATM    8  C   UNK N   1      31.840  15.932   6.898  0.00  0.00     0.100 A 
HETATM    9  N   UNK N   1      30.763  16.091   6.106  0.00  0.00    -0.363 N 
ATOM     10  HN  UNK N   1      30.726  15.596   5.214  1.00  0.00     0.165 HD
BRANCH   7  11
HETATM   11  C   UNK N   1      33.044  16.324   8.991  0.00  0.00    -0.025 A 
HETATM   12  C   UNK N   1      34.129  17.181   9.161  0.00  0.00     0.015 A 
HETATM   13  C   UNK N   1      35.176  16.799   9.995  0.00  0.00     0.037 A 
HETATM   14  C   UNK N   1      35.119  15.593  10.713  0.00  0.00     0.069 A 
HETATM   15  C   UNK N   1      33.996  14.778  10.601  0.00  0.00     0.037 A 
HETATM   16  C   UNK N   1      32.977  15.127   9.724  0.00  0.00     0.015 A 
BRANCH  14  17
HETATM   17  O   UNK N   1      36.149  15.177  11.479  0.00  0.00    -0.342 OA
BRANCH  17  18
HETATM   18  C   UNK N   1      36.622  13.880  11.449  0.00  0.00     0.293 C 
BRANCH  18  19
HETATM   19  C   UNK N   1      37.615  13.606  10.330  0.00  0.00     0.408 C 
HETATM   20  F   UNK N   1      36.928  13.020   9.287  0.00  0.00    -0.169 F 
HETATM   21  F   UNK N   1      38.188  14.772   9.861  0.00  0.00    -0.169 F 
HETATM   22  F   UNK N   1      38.603  12.748  10.770  0.00  0.00    -0.169 F 
ENDBRANCH  18  19
ENDBRANCH  17  18
ENDBRANCH  14  17
ENDBRANCH   7  11
ENDBRANCH   1   4
BRANCH   1  23
HETATM   23  C   UNK N   1      28.365  17.181   4.255  0.00  0.00     0.177 C 
BRANCH  23  24
HETATM   24  C   UNK N   1      28.464  16.034   3.196  0.00  0.00     0.197 C 
BRANCH  24  25
HETATM   25  N   UNK N   1      29.644  15.169   3.130  0.00  0.00    -0.269 N 
HETATM   26  C   UNK N   1      29.641  13.887   2.730  0.00  0.00     0.212 A 
HETATM   27  N   UNK N   1      30.915  13.476   2.575  0.00  0.00    -0.281 N 
HETATM   28  N   UNK N   1      31.677  14.525   2.857  0.00  0.00    -0.008 NA
ATOM     29  HN  UNK N   1      31.230  12.547   2.297  1.00  0.00     0.184 HD
HETATM   30  N   UNK N   1      30.909  15.552   3.175  0.00  0.00    -0.005 NA
ENDBRANCH  24  25
ENDBRANCH  23  24
BRANCH  23  31
HETATM   31  C   UNK N   1      27.176  18.129   4.032  0.00  0.00     0.023 A 
HETATM   32  C   UNK N   1      27.455  19.503   3.899  0.00  0.00     0.017 A 
HETATM   33  C   UNK N   1      26.442  20.431   3.667  0.00  0.00     0.043 A 
HETATM   34  C   UNK N   1      25.122  20.004   3.562  0.00  0.00     0.119 A 
HETATM   35  C   UNK N   1      24.815  18.652   3.694  0.00  0.00     0.085 A 
HETATM   36  F   UNK N   1      24.136  20.901   3.326  0.00  0.00    -0.206 F 
HETATM   37  C   UNK N   1      25.822  17.712   3.926  0.00  0.00     0.128 A 
HETATM   38  F   UNK N   1      25.452  16.420   4.037  0.00  0.00    -0.205 F 
ENDBRANCH  23  31
BRANCH  23  39
HETATM   39  O   UNK N   1      29.522  17.934   4.033  0.00  0.00    -0.377 OA
HETATM   40  H   UNK N   1      30.319  18.313   4.433  0.00  0.00     0.211 HD
ENDBRANCH  23  39
ENDBRANCH   1  23
TORSDOF 10
ENDMDL
