MODEL 1
REMARK VINA RESULT:      -8.1      0.000      0.000
REMARK  7 active torsions:
REMARK  status: ('A' for Active; 'I' for Inactive)
REMARK    1  A    between atoms: C_3  and  C_23 
REMARK    2  A    between atoms: N_9  and  C_13 
REMARK    3  A    between atoms: C_13  and  C_14 
REMARK    4  A    between atoms: C_14  and  C_15 
REMARK    5  A    between atoms: C_14  and  O_22 
REMARK    6  A    between atoms: C_15  and  N_16 
REMARK    7  A    between atoms: C_23  and  C_24 
ROOT
HETATM    1  C   UNK N   1      34.581  17.281   9.347  0.00  0.00     0.052 C 
HETATM    2  C   UNK N   1      34.504  15.976   8.623  0.00  0.00    -0.018 A 
HETATM    3  C   UNK N   1      33.709  15.684   7.551  0.00  0.00     0.040 A 
HETATM    4  N   UNK N   1      33.915  14.424   7.115  0.00  0.00    -0.358 N 
HETATM    5  C   UNK N   1      34.829  13.906   7.960  0.00  0.00     0.026 A 
HETATM    6  C   UNK N   1      35.204  14.848   8.892  0.00  0.00     0.062 A 
HETATM    7  C   UNK N   1      36.139  14.679   9.997  0.00  0.00     0.256 C 
HETATM    8  O   UNK N   1      36.817  15.624  10.366  0.00  0.00    -0.267 OA
HETATM    9  N   UNK N   1      36.144  13.507  10.687  0.00  0.00    -0.345 N 
HETATM   10  C   UNK N   1      35.186  12.453  10.405  0.00  0.00     0.126 C 
HETATM   11  C   UNK N   1      35.457  11.706   9.096  0.00  0.00     0.026 C 
HETATM   12  C   UNK N   1      35.438  12.548   7.817  0.00  0.00     0.059 C 
HETATM   13  H   UNK N   1      33.491  13.979   6.345  0.00  0.00     0.166 HD
ENDROOT
BRANCH   3  14
HETATM   14  C   UNK N   1      32.929  16.717   6.924  0.00  0.00     0.048 C 
BRANCH  14  15
HETATM   15  C   UNK N   1      31.674  16.649   6.529  0.00  0.00     0.047 A 
HETATM   16  C   UNK N   1      30.668  17.244   7.352  0.00  0.00     0.009 A 
HETATM   17  C   UNK N   1      30.784  17.747   8.642  0.00  0.00     0.057 A 
HETATM   18  C   UNK N   1      29.576  17.482   6.558  0.00  0.00     0.046 A 
HETATM   19  C   UNK N   1      29.731  18.511   9.142  0.00  0.00     0.117 A 
HETATM   20  C   UNK N   1      28.600  18.774   8.334  0.00  0.00     0.044 A 
HETATM   21  F   UNK N   1      29.826  19.036  10.387  0.00  0.00    -0.206 F 
HETATM   22  C   UNK N   1      28.516  18.257   7.021  0.00  0.00     0.033 A 
HETATM   23  N   UNK N   1      29.777  16.987   5.248  0.00  0.00    -0.322 N 
HETATM   24  C   UNK N   1      31.036  16.492   5.213  0.00  0.00     0.257 A 
HETATM   25  H   UNK N   1      29.129  16.998   4.509  0.00  0.00     0.169 HD
HETATM   26  O   UNK N   1      31.546  16.024   4.207  0.00  0.00    -0.267 OA
ENDBRANCH  14  15
ENDBRANCH   3  14
BRANCH   9  27
HETATM   27  C   UNK N   1      36.922  13.400  11.891  0.00  0.00     0.159 C 
BRANCH  27  28
HETATM   28  C   UNK N   1      36.144  13.861  13.111  0.00  0.00     0.164 C 
BRANCH  28  29
HETATM   29  C   UNK N   1      36.413  12.896  14.264  0.00  0.00     0.305 C 
BRANCH  29  30
HETATM   30  N   UNK N   1      35.242  12.105  14.698  0.00  0.00     0.095 N 
HETATM   31  C   UNK N   1      34.520  12.885  15.706  0.00  0.00     0.298 C 
HETATM   32  C   UNK N   1      35.283  12.865  17.039  0.00  0.00     0.198 C 
HETATM   33  O   UNK N   1      35.405  11.540  17.492  0.00  0.00    -0.388 OA
HETATM   34  C   UNK N   1      36.264  10.887  16.595  0.00  0.00     0.198 C 
HETATM   35  C   UNK N   1      35.571  10.771  15.238  0.00  0.00     0.298 C 
ENDBRANCH  29  30
ENDBRANCH  28  29
BRANCH  28  36
HETATM   36  O   UNK N   1      36.510  15.155  13.492  0.00  0.00    -0.392 OA
HETATM   37  H   UNK N   1      36.654  15.471  14.399  0.00  0.00     0.210 HD
ENDBRANCH  28  36
ENDBRANCH  27  28
ENDBRANCH   9  27
TORSDOF 7
ENDMDL
MODEL 2
REMARK VINA RESULT:      -8.0      3.256     10.351
REMARK  7 active torsions:
REMARK  status: ('A' for Active; 'I' for Inactive)
REMARK    1  A    between atoms: C_3  and  C_23 
REMARK    2  A    between atoms: N_9  and  C_13 
REMARK    3  A    between atoms: C_13  and  C_14 
REMARK    4  A    between atoms: C_14  and  C_15 
REMARK    5  A    between atoms: C_14  and  O_22 
REMARK    6  A    between atoms: C_15  and  N_16 
REMARK    7  A    between atoms: C_23  and  C_24 
ROOT
HETATM    1  C   UNK N   1      34.038  10.338  12.665  0.00  0.00     0.052 C 
HETATM    2  C   UNK N   1      34.675  11.607  13.128  0.00  0.00    -0.018 A 
HETATM    3  C   UNK N   1      34.935  11.965  14.420  0.00  0.00     0.040 A 
HETATM    4  N   UNK N   1      35.555  13.161  14.485  0.00  0.00    -0.358 N 
HETATM    5  C   UNK N   1      35.645  13.578  13.206  0.00  0.00     0.026 A 
HETATM    6  C   UNK N   1      35.112  12.633  12.358  0.00  0.00     0.062 A 
HETATM    7  C   UNK N   1      34.985  12.712  10.908  0.00  0.00     0.256 C 
HETATM    8  O   UNK N   1      35.062  11.695  10.237  0.00  0.00    -0.267 OA
HETATM    9  N   UNK N   1      34.649  13.900  10.337  0.00  0.00    -0.345 N 
HETATM   10  C   UNK N   1      34.333  15.067  11.138  0.00  0.00     0.126 C 
HETATM   11  C   UNK N   1      35.554  15.711  11.803  0.00  0.00     0.026 C 
HETATM   12  C   UNK N   1      36.345  14.826  12.771  0.00  0.00     0.059 C 
HETATM   13  H   UNK N   1      35.873  13.629  15.291  0.00  0.00     0.166 HD
ENDROOT
BRANCH   3  14
HETATM   14  C   UNK N   1      34.712  11.030  15.491  0.00  0.00     0.048 C 
BRANCH  14  15
HETATM   15  C   UNK N   1      35.615  10.453  16.256  0.00  0.00     0.047 A 
HETATM   16  C   UNK N   1      35.772  10.922  17.598  0.00  0.00     0.009 A 
HETATM   17  C   UNK N   1      35.228  12.053  18.193  0.00  0.00     0.057 A 
HETATM   18  C   UNK N   1      36.367   9.918  18.316  0.00  0.00     0.046 A 
HETATM   19  C   UNK N   1      35.312  12.165  19.580  0.00  0.00     0.117 A 
HETATM   20  C   UNK N   1      35.915  11.134  20.338  0.00  0.00     0.044 A 
HETATM   21  F   UNK N   1      34.767  13.243  20.192  0.00  0.00    -0.206 F 
HETATM   22  C   UNK N   1      36.451   9.991  19.704  0.00  0.00     0.033 A 
HETATM   23  N   UNK N   1      36.699   8.821  17.487  0.00  0.00    -0.322 N 
HETATM   24  C   UNK N   1      36.245   9.124  16.249  0.00  0.00     0.257 A 
HETATM   25  H   UNK N   1      37.169   8.000  17.757  0.00  0.00     0.169 HD
HETATM   26  O   UNK N   1      36.332   8.364  15.297  0.00  0.00    -0.267 OA
ENDBRANCH  14  15
ENDBRANCH   3  14
BRANCH   9  27
HETATM   27  C   UNK N   1      34.337  13.945   8.935  0.00  0.00     0.159 C 
BRANCH  27  28
HETATM   28  C   UNK N   1      32.896  14.361   8.689  0.00  0.00     0.164 C 
BRANCH  28  29
HETATM   29  C   UNK N   1      32.739  14.757   7.221  0.00  0.00     0.305 C 
BRANCH  29  30
HETATM   30  N   UNK N   1      32.170  16.103   6.999  0.00  0.00     0.095 N 
HETATM   31  C   UNK N   1      32.372  16.451   5.591  0.00  0.00     0.298 C 
HETATM   32  C   UNK N   1      33.844  16.808   5.338  0.00  0.00     0.198 C 
HETATM   33  O   UNK N   1      34.204  17.910   6.134  0.00  0.00    -0.388 OA
HETATM   34  C   UNK N   1      34.182  17.467   7.465  0.00  0.00     0.198 C 
HETATM   35  C   UNK N   1      32.739  17.157   7.863  0.00  0.00     0.298 C 
ENDBRANCH  29  30
ENDBRANCH  28  29
BRANCH  28  36
HETATM   36  O   UNK N   1      32.006  13.327   8.990  0.00  0.00    -0.392 OA
HETATM   37  H   UNK N   1      31.037  13.381   8.989  0.00  0.00     0.210 HD
ENDBRANCH  28  36
ENDBRANCH  27  28
ENDBRANCH   9  27
TORSDOF 7
ENDMDL
MODEL 3
REMARK VINA RESULT:      -8.0      1.825      2.405
REMARK  7 active torsions:
REMARK  status: ('A' for Active; 'I' for Inactive)
REMARK    1  A    between atoms: C_3  and  C_23 
REMARK    2  A    between atoms: N_9  and  C_13 
REMARK    3  A    between atoms: C_13  and  C_14 
REMARK    4  A    between atoms: C_14  and  C_15 
REMARK    5  A    between atoms: C_14  and  O_22 
REMARK    6  A    between atoms: C_15  and  N_16 
REMARK    7  A    between atoms: C_23  and  C_24 
ROOT
HETATM    1  C   UNK N   1      32.898  18.101   8.172  0.00  0.00     0.052 C 
HETATM    2  C   UNK N   1      33.625  17.094   7.341  0.00  0.00    -0.018 A 
HETATM    3  C   UNK N   1      33.364  16.767   6.041  0.00  0.00     0.040 A 
HETATM    4  N   UNK N   1      34.235  15.846   5.580  0.00  0.00    -0.358 N 
HETATM    5  C   UNK N   1      35.032  15.562   6.631  0.00  0.00     0.026 A 
HETATM    6  C   UNK N   1      34.672  16.322   7.721  0.00  0.00     0.062 A 
HETATM    7  C   UNK N   1      35.258  16.292   9.055  0.00  0.00     0.256 C 
HETATM    8  O   UNK N   1      35.298  17.314   9.722  0.00  0.00    -0.267 OA
HETATM    9  N   UNK N   1      35.627  15.098   9.590  0.00  0.00    -0.345 N 
HETATM   10  C   UNK N   1      35.378  13.846   8.900  0.00  0.00     0.126 C 
HETATM   11  C   UNK N   1      36.292  13.611   7.693  0.00  0.00     0.026 C 
HETATM   12  C   UNK N   1      36.215  14.650   6.571  0.00  0.00     0.059 C 
HETATM   13  H   UNK N   1      34.281  15.465   4.673  0.00  0.00     0.166 HD
ENDROOT
BRANCH   3  14
HETATM   14  C   UNK N   1      32.385  17.507   5.290  0.00  0.00     0.048 C 
BRANCH  14  15
HETATM   15  C   UNK N   1      31.420  17.026   4.533  0.00  0.00     0.047 A 
HETATM   16  C   UNK N   1      30.075  17.105   5.012  0.00  0.00     0.009 A 
HETATM   17  C   UNK N   1      29.621  17.461   6.277  0.00  0.00     0.057 A 
HETATM   18  C   UNK N   1      29.246  17.013   3.925  0.00  0.00     0.046 A 
HETATM   19  C   UNK N   1      28.260  17.717   6.433  0.00  0.00     0.117 A 
HETATM   20  C   UNK N   1      27.391  17.635   5.320  0.00  0.00     0.044 A 
HETATM   21  F   UNK N   1      27.792  18.091   7.648  0.00  0.00    -0.206 F 
HETATM   22  C   UNK N   1      27.885  17.280   4.045  0.00  0.00     0.033 A 
HETATM   23  N   UNK N   1      29.981  16.784   2.738  0.00  0.00    -0.322 N 
HETATM   24  C   UNK N   1      31.288  16.799   3.086  0.00  0.00     0.257 A 
HETATM   25  H   UNK N   1      29.614  16.641   1.837  0.00  0.00     0.169 HD
HETATM   26  O   UNK N   1      32.199  16.674   2.282  0.00  0.00    -0.267 OA
ENDBRANCH  14  15
ENDBRANCH   3  14
BRANCH   9  27
HETATM   27  C   UNK N   1      36.026  15.035  10.969  0.00  0.00     0.159 C 
BRANCH  27  28
HETATM   28  C   UNK N   1      35.159  14.074  11.765  0.00  0.00     0.164 C 
BRANCH  28  29
HETATM   29  C   UNK N   1      35.624  14.078  13.221  0.00  0.00     0.305 C 
BRANCH  29  30
HETATM   30  N   UNK N   1      36.315  12.846  13.656  0.00  0.00     0.095 N 
HETATM   31  C   UNK N   1      35.382  11.728  13.501  0.00  0.00     0.298 C 
HETATM   32  C   UNK N   1      34.319  11.766  14.610  0.00  0.00     0.198 C 
HETATM   33  O   UNK N   1      34.944  11.666  15.865  0.00  0.00    -0.388 OA
HETATM   34  C   UNK N   1      35.672  12.852  16.046  0.00  0.00     0.198 C 
HETATM   35  C   UNK N   1      36.824  12.887  15.041  0.00  0.00     0.298 C 
ENDBRANCH  29  30
ENDBRANCH  28  29
BRANCH  28  36
HETATM   36  O   UNK N   1      33.809  14.432  11.706  0.00  0.00    -0.392 OA
HETATM   37  H   UNK N   1      33.305  14.650  10.906  0.00  0.00     0.210 HD
ENDBRANCH  28  36
ENDBRANCH  27  28
ENDBRANCH   9  27
TORSDOF 7
ENDMDL
MODEL 4
REMARK VINA RESULT:      -8.0      2.678      4.850
REMARK  7 active torsions:
REMARK  status: ('A' for Active; 'I' for Inactive)
REMARK    1  A    between atoms: C_3  and  C_23 
REMARK    2  A    between atoms: N_9  and  C_13 
REMARK    3  A    between atoms: C_13  and  C_14 
REMARK    4  A    between atoms: C_14  and  C_15 
REMARK    5  A    between atoms: C_14  and  O_22 
REMARK    6  A    between atoms: C_15  and  N_16 
REMARK    7  A    between atoms: C_23  and  C_24 
ROOT
HETATM    1  C   UNK N   1      29.752  17.533   8.753  0.00  0.00     0.052 C 
HETATM    2  C   UNK N   1      30.277  17.132   7.412  0.00  0.00    -0.018 A 
HETATM    3  C   UNK N   1      29.551  16.633   6.369  0.00  0.00     0.040 A 
HETATM    4  N   UNK N   1      30.329  16.411   5.289  0.00  0.00    -0.358 N 
HETATM    5  C   UNK N   1      31.577  16.740   5.683  0.00  0.00     0.026 A 
HETATM    6  C   UNK N   1      31.562  17.188   6.986  0.00  0.00     0.062 A 
HETATM    7  C   UNK N   1      32.701  17.606   7.793  0.00  0.00     0.256 C 
HETATM    8  O   UNK N   1      32.559  18.478   8.635  0.00  0.00    -0.267 OA
HETATM    9  N   UNK N   1      33.873  16.923   7.689  0.00  0.00    -0.345 N 
HETATM   10  C   UNK N   1      33.992  15.740   6.857  0.00  0.00     0.126 C 
HETATM   11  C   UNK N   1      34.010  16.038   5.354  0.00  0.00     0.026 C 
HETATM   12  C   UNK N   1      32.773  16.741   4.787  0.00  0.00     0.059 C 
HETATM   13  H   UNK N   1      30.049  16.082   4.404  0.00  0.00     0.166 HD
ENDROOT
BRANCH   3  14
HETATM   14  C   UNK N   1      28.116  16.571   6.447  0.00  0.00     0.048 C 
BRANCH  14  15
HETATM   15  C   UNK N   1      27.243  16.964   5.542  0.00  0.00     0.047 A 
HETATM   16  C   UNK N   1      27.011  18.365   5.384  0.00  0.00     0.009 A 
HETATM   17  C   UNK N   1      27.442  19.415   6.185  0.00  0.00     0.057 A 
HETATM   18  C   UNK N   1      26.483  18.555   4.134  0.00  0.00     0.046 A 
HETATM   19  C   UNK N   1      27.311  20.711   5.690  0.00  0.00     0.117 A 
HETATM   20  C   UNK N   1      26.776  20.925   4.398  0.00  0.00     0.044 A 
HETATM   21  F   UNK N   1      27.747  21.753   6.438  0.00  0.00    -0.206 F 
HETATM   22  C   UNK N   1      26.355  19.836   3.603  0.00  0.00     0.033 A 
HETATM   23  N   UNK N   1      26.266  17.321   3.476  0.00  0.00    -0.322 N 
HETATM   24  C   UNK N   1      26.728  16.357   4.305  0.00  0.00     0.257 A 
HETATM   25  H   UNK N   1      25.860  17.190   2.590  0.00  0.00     0.169 HD
HETATM   26  O   UNK N   1      26.731  15.170   4.020  0.00  0.00    -0.267 OA
ENDBRANCH  14  15
ENDBRANCH   3  14
BRANCH   9  27
HETATM   27  C   UNK N   1      34.937  17.203   8.612  0.00  0.00     0.159 C 
BRANCH  27  28
HETATM   28  C   UNK N   1      34.811  16.385   9.886  0.00  0.00     0.164 C 
BRANCH  28  29
HETATM   29  C   UNK N   1      35.900  15.313   9.896  0.00  0.00     0.305 C 
BRANCH  29  30
HETATM   30  N   UNK N   1      35.432  13.957  10.252  0.00  0.00     0.095 N 
HETATM   31  C   UNK N   1      34.938  13.999  11.631  0.00  0.00     0.298 C 
HETATM   32  C   UNK N   1      36.115  14.073  12.615  0.00  0.00     0.198 C 
HETATM   33  O   UNK N   1      36.930  12.939  12.460  0.00  0.00    -0.388 OA
HETATM   34  C   UNK N   1      37.532  13.047  11.196  0.00  0.00     0.198 C 
HETATM   35  C   UNK N   1      36.457  12.902  10.119  0.00  0.00     0.298 C 
ENDBRANCH  29  30
ENDBRANCH  28  29
BRANCH  28  36
HETATM   36  O   UNK N   1      34.938  17.188  11.024  0.00  0.00    -0.392 OA
HETATM   37  H   UNK N   1      35.548  17.046  11.764  0.00  0.00     0.210 HD
ENDBRANCH  28  36
ENDBRANCH  27  28
ENDBRANCH   9  27
TORSDOF 7
ENDMDL
MODEL 5
REMARK VINA RESULT:      -7.8      3.694      6.113
REMARK  7 active torsions:
REMARK  status: ('A' for Active; 'I' for Inactive)
REMARK    1  A    between atoms: C_3  and  C_23 
REMARK    2  A    between atoms: N_9  and  C_13 
REMARK    3  A    between atoms: C_13  and  C_14 
REMARK    4  A    between atoms: C_14  and  C_15 
REMARK    5  A    between atoms: C_14  and  O_22 
REMARK    6  A    between atoms: C_15  and  N_16 
REMARK    7  A    between atoms: C_23  and  C_24 
ROOT
HETATM    1  C   UNK N   1      28.366  16.893   6.907  0.00  0.00     0.052 C 
HETATM    2  C   UNK N   1      29.446  17.036   5.885  0.00  0.00    -0.018 A 
HETATM    3  C   UNK N   1      29.291  17.025   4.528  0.00  0.00     0.040 A 
HETATM    4  N   UNK N   1      30.468  17.218   3.897  0.00  0.00    -0.358 N 
HETATM    5  C   UNK N   1      31.383  17.309   4.883  0.00  0.00     0.026 A 
HETATM    6  C   UNK N   1      30.771  17.202   6.112  0.00  0.00     0.062 A 
HETATM    7  C   UNK N   1      31.407  17.215   7.424  0.00  0.00     0.256 C 
HETATM    8  O   UNK N   1      30.812  17.686   8.380  0.00  0.00    -0.267 OA
HETATM    9  N   UNK N   1      32.599  16.581   7.588  0.00  0.00    -0.345 N 
HETATM   10  C   UNK N   1      33.212  15.822   6.514  0.00  0.00     0.126 C 
HETATM   11  C   UNK N   1      33.807  16.693   5.403  0.00  0.00     0.026 C 
HETATM   12  C   UNK N   1      32.831  17.615   4.667  0.00  0.00     0.059 C 
HETATM   13  H   UNK N   1      30.625  17.281   2.926  0.00  0.00     0.166 HD
ENDROOT
BRANCH   3  14
HETATM   14  C   UNK N   1      27.975  16.999   3.948  0.00  0.00     0.048 C 
BRANCH  14  15
HETATM   15  C   UNK N   1      27.131  18.002   3.822  0.00  0.00     0.047 A 
HETATM   16  C   UNK N   1      25.739  17.707   3.682  0.00  0.00     0.009 A 
HETATM   17  C   UNK N   1      25.127  16.477   3.467  0.00  0.00     0.057 A 
HETATM   18  C   UNK N   1      25.042  18.828   4.049  0.00  0.00     0.046 A 
HETATM   19  C   UNK N   1      23.744  16.401   3.622  0.00  0.00     0.117 A 
HETATM   20  C   UNK N   1      23.010  17.547   4.010  0.00  0.00     0.044 A 
HETATM   21  F   UNK N   1      23.122  15.211   3.445  0.00  0.00    -0.206 F 
HETATM   22  C   UNK N   1      23.663  18.781   4.230  0.00  0.00     0.033 A 
HETATM   23  N   UNK N   1      25.917  19.900   4.348  0.00  0.00    -0.322 N 
HETATM   24  C   UNK N   1      27.174  19.415   4.225  0.00  0.00     0.257 A 
HETATM   25  H   UNK N   1      25.661  20.817   4.595  0.00  0.00     0.169 HD
HETATM   26  O   UNK N   1      28.174  20.076   4.458  0.00  0.00    -0.267 OA
ENDBRANCH  14  15
ENDBRANCH   3  14
BRANCH   9  27
HETATM   27  C   UNK N   1      33.138  16.425   8.911  0.00  0.00     0.159 C 
BRANCH  27  28
HETATM   28  C   UNK N   1      32.842  15.049   9.484  0.00  0.00     0.164 C 
BRANCH  28  29
HETATM   29  C   UNK N   1      34.164  14.345   9.789  0.00  0.00     0.305 C 
BRANCH  29  30
HETATM   30  N   UNK N   1      34.807  14.754  11.055  0.00  0.00     0.095 N 
HETATM   31  C   UNK N   1      36.074  15.412  10.725  0.00  0.00     0.298 C 
HETATM   32  C   UNK N   1      37.117  14.369  10.294  0.00  0.00     0.198 C 
HETATM   33  O   UNK N   1      37.337  13.462  11.344  0.00  0.00    -0.388 OA
HETATM   34  C   UNK N   1      36.153  12.723  11.491  0.00  0.00     0.198 C 
HETATM   35  C   UNK N   1      35.049  13.647  12.003  0.00  0.00     0.298 C 
ENDBRANCH  29  30
ENDBRANCH  28  29
BRANCH  28  36
HETATM   36  O   UNK N   1      32.080  15.134  10.653  0.00  0.00    -0.392 OA
HETATM   37  H   UNK N   1      31.279  14.626  10.857  0.00  0.00     0.210 HD
ENDBRANCH  28  36
ENDBRANCH  27  28
ENDBRANCH   9  27
TORSDOF 7
ENDMDL
MODEL 6
REMARK VINA RESULT:      -7.8      3.656     10.139
REMARK  7 active torsions:
REMARK  status: ('A' for Active; 'I' for Inactive)
REMARK    1  A    between atoms: C_3  and  C_23 
REMARK    2  A    between atoms: N_9  and  C_13 
REMARK    3  A    between atoms: C_13  and  C_14 
REMARK    4  A    between atoms: C_14  and  C_15 
REMARK    5  A    between atoms: C_14  and  O_22 
REMARK    6  A    between atoms: C_15  and  N_16 
REMARK    7  A    between atoms: C_23  and  C_24 
ROOT
HETATM    1  C   UNK N   1      34.183  10.754  13.447  0.00  0.00     0.052 C 
HETATM    2  C   UNK N   1      35.516  11.360  13.150  0.00  0.00    -0.018 A 
HETATM    3  C   UNK N   1      36.516  11.610  14.046  0.00  0.00     0.040 A 
HETATM    4  N   UNK N   1      37.604  12.128  13.439  0.00  0.00    -0.358 N 
HETATM    5  C   UNK N   1      37.258  12.243  12.141  0.00  0.00     0.026 A 
HETATM    6  C   UNK N   1      35.978  11.772  11.945  0.00  0.00     0.062 A 
HETATM    7  C   UNK N   1      35.222  11.751  10.699  0.00  0.00     0.256 C 
HETATM    8  O   UNK N   1      34.419  10.856  10.494  0.00  0.00    -0.267 OA
HETATM    9  N   UNK N   1      35.324  12.804   9.844  0.00  0.00    -0.345 N 
HETATM   10  C   UNK N   1      36.103  13.983  10.178  0.00  0.00     0.126 C 
HETATM   11  C   UNK N   1      37.617  13.762  10.120  0.00  0.00     0.026 C 
HETATM   12  C   UNK N   1      38.184  12.692  11.056  0.00  0.00     0.059 C 
HETATM   13  H   UNK N   1      38.464  12.369  13.853  0.00  0.00     0.166 HD
ENDROOT
BRANCH   3  14
HETATM   14  C   UNK N   1      36.397  11.164  15.409  0.00  0.00     0.048 C 
BRANCH  14  15
HETATM   15  C   UNK N   1      35.660  11.689  16.366  0.00  0.00     0.047 A 
HETATM   16  C   UNK N   1      35.777  11.154  17.687  0.00  0.00     0.009 A 
HETATM   17  C   UNK N   1      36.437  10.005  18.105  0.00  0.00     0.057 A 
HETATM   18  C   UNK N   1      35.331  12.112  18.559  0.00  0.00     0.046 A 
HETATM   19  C   UNK N   1      36.632   9.826  19.473  0.00  0.00     0.117 A 
HETATM   20  C   UNK N   1      36.186  10.809  20.387  0.00  0.00     0.044 A 
HETATM   21  F   UNK N   1      37.295   8.729  19.910  0.00  0.00    -0.206 F 
HETATM   22  C   UNK N   1      35.526  11.972  19.930  0.00  0.00     0.033 A 
HETATM   23  N   UNK N   1      34.832  13.242  17.868  0.00  0.00    -0.322 N 
HETATM   24  C   UNK N   1      35.033  13.006  16.551  0.00  0.00     0.257 A 
HETATM   25  H   UNK N   1      34.420  14.041  18.266  0.00  0.00     0.169 HD
HETATM   26  O   UNK N   1      34.753  13.809  15.674  0.00  0.00    -0.267 OA
ENDBRANCH  14  15
ENDBRANCH   3  14
BRANCH   9  27
HETATM   27  C   UNK N   1      34.443  12.882   8.712  0.00  0.00     0.159 C 
BRANCH  27  28
HETATM   28  C   UNK N   1      33.401  13.974   8.880  0.00  0.00     0.164 C 
BRANCH  28  29
HETATM   29  C   UNK N   1      33.397  14.851   7.629  0.00  0.00     0.305 C 
BRANCH  29  30
HETATM   30  N   UNK N   1      32.634  16.110   7.756  0.00  0.00     0.095 N 
HETATM   31  C   UNK N   1      32.471  16.677   6.415  0.00  0.00     0.298 C 
HETATM   32  C   UNK N   1      33.795  17.289   5.933  0.00  0.00     0.198 C 
HETATM   33  O   UNK N   1      34.188  18.312   6.813  0.00  0.00    -0.388 OA
HETATM   34  C   UNK N   1      34.519  17.692   8.028  0.00  0.00     0.198 C 
HETATM   35  C   UNK N   1      33.250  17.111   8.651  0.00  0.00     0.298 C 
ENDBRANCH  29  30
ENDBRANCH  28  29
BRANCH  28  36
HETATM   36  O   UNK N   1      32.125  13.437   9.076  0.00  0.00    -0.392 OA
HETATM   37  H   UNK N   1      31.334  13.921   9.363  0.00  0.00     0.210 HD
ENDBRANCH  28  36
ENDBRANCH  27  28
ENDBRANCH   9  27
TORSDOF 7
ENDMDL
MODEL 7
REMARK VINA RESULT:      -7.8      3.415     10.793
REMARK  7 active torsions:
REMARK  status: ('A' for Active; 'I' for Inactive)
REMARK    1  A    between atoms: C_3  and  C_23 
REMARK    2  A    between atoms: N_9  and  C_13 
REMARK    3  A    between atoms: C_13  and  C_14 
REMARK    4  A    between atoms: C_14  and  C_15 
REMARK    5  A    between atoms: C_14  and  O_22 
REMARK    6  A    between atoms: C_15  and  N_16 
REMARK    7  A    between atoms: C_23  and  C_24 
ROOT
HETATM    1  C   UNK N   1      33.395  15.566   5.826  0.00  0.00     0.052 C 
HETATM    2  C   UNK N   1      32.635  16.145   6.974  0.00  0.00    -0.018 A 
HETATM    3  C   UNK N   1      32.910  15.978   8.301  0.00  0.00     0.040 A 
HETATM    4  N   UNK N   1      32.048  16.671   9.074  0.00  0.00    -0.358 N 
HETATM    5  C   UNK N   1      31.190  17.249   8.209  0.00  0.00     0.026 A 
HETATM    6  C   UNK N   1      31.538  16.938   6.913  0.00  0.00     0.062 A 
HETATM    7  C   UNK N   1      30.851  17.335   5.690  0.00  0.00     0.256 C 
HETATM    8  O   UNK N   1      31.492  17.521   4.669  0.00  0.00    -0.267 OA
HETATM    9  N   UNK N   1      29.491  17.359   5.673  0.00  0.00    -0.345 N 
HETATM   10  C   UNK N   1      28.708  16.922   6.814  0.00  0.00     0.126 C 
HETATM   11  C   UNK N   1      28.730  17.901   7.992  0.00  0.00     0.026 C 
HETATM   12  C   UNK N   1      30.103  18.196   8.603  0.00  0.00     0.059 C 
HETATM   13  H   UNK N   1      32.046  16.741  10.056  0.00  0.00     0.166 HD
ENDROOT
BRANCH   3  14
HETATM   14  C   UNK N   1      34.104  15.289   8.714  0.00  0.00     0.048 C 
BRANCH  14  15
HETATM   15  C   UNK N   1      34.709  15.358   9.882  0.00  0.00     0.047 A 
HETATM   16  C   UNK N   1      35.042  14.138  10.549  0.00  0.00     0.009 A 
HETATM   17  C   UNK N   1      34.654  12.841  10.236  0.00  0.00     0.057 A 
HETATM   18  C   UNK N   1      36.044  14.418  11.440  0.00  0.00     0.046 A 
HETATM   19  C   UNK N   1      35.311  11.791  10.875  0.00  0.00     0.117 A 
HETATM   20  C   UNK N   1      36.354  12.061  11.791  0.00  0.00     0.044 A 
HETATM   21  F   UNK N   1      34.973  10.515  10.571  0.00  0.00    -0.206 F 
HETATM   22  C   UNK N   1      36.732  13.391  12.082  0.00  0.00     0.033 A 
HETATM   23  N   UNK N   1      36.339  15.802  11.463  0.00  0.00    -0.322 N 
HETATM   24  C   UNK N   1      35.552  16.377  10.525  0.00  0.00     0.257 A 
HETATM   25  H   UNK N   1      36.988  16.256  12.046  0.00  0.00     0.169 HD
HETATM   26  O   UNK N   1      35.589  17.568  10.255  0.00  0.00    -0.267 OA
ENDBRANCH  14  15
ENDBRANCH   3  14
BRANCH   9  27
HETATM   27  C   UNK N   1      28.805  17.562   4.427  0.00  0.00     0.159 C 
BRANCH  27  28
HETATM   28  C   UNK N   1      27.450  16.874   4.409  0.00  0.00     0.164 C 
BRANCH  28  29
HETATM   29  C   UNK N   1      26.435  17.798   3.738  0.00  0.00     0.305 C 
BRANCH  29  30
HETATM   30  N   UNK N   1      26.114  19.023   4.498  0.00  0.00     0.095 N 
HETATM   31  C   UNK N   1      24.715  18.935   4.926  0.00  0.00     0.298 C 
HETATM   32  C   UNK N   1      23.778  19.184   3.735  0.00  0.00     0.198 C 
HETATM   33  O   UNK N   1      24.013  20.467   3.212  0.00  0.00    -0.388 OA
HETATM   34  C   UNK N   1      25.294  20.440   2.641  0.00  0.00     0.198 C 
HETATM   35  C   UNK N   1      26.331  20.280   3.753  0.00  0.00     0.298 C 
ENDBRANCH  29  30
ENDBRANCH  28  29
BRANCH  28  36
HETATM   36  O   UNK N   1      27.502  15.659   3.718  0.00  0.00    -0.392 OA
HETATM   37  H   UNK N   1      27.439  14.773   4.106  0.00  0.00     0.210 HD
ENDBRANCH  28  36
ENDBRANCH  27  28
ENDBRANCH   9  27
TORSDOF 7
ENDMDL
MODEL 8
REMARK VINA RESULT:      -7.7      3.912      7.024
REMARK  7 active torsions:
REMARK  status: ('A' for Active; 'I' for Inactive)
REMARK    1  A    between atoms: C_3  and  C_23 
REMARK    2  A    between atoms: N_9  and  C_13 
REMARK    3  A    between atoms: C_13  and  C_14 
REMARK    4  A    between atoms: C_14  and  C_15 
REMARK    5  A    between atoms: C_14  and  O_22 
REMARK    6  A    between atoms: C_15  and  N_16 
REMARK    7  A    between atoms: C_23  and  C_24 
ROOT
HETATM    1  C   UNK N   1      29.808  16.886   4.141  0.00  0.00     0.052 C 
HETATM    2  C   UNK N   1      29.130  17.521   5.312  0.00  0.00    -0.018 A 
HETATM    3  C   UNK N   1      28.077  18.389   5.272  0.00  0.00     0.040 A 
HETATM    4  N   UNK N   1      27.682  18.742   6.513  0.00  0.00    -0.358 N 
HETATM    5  C   UNK N   1      28.538  18.113   7.344  0.00  0.00     0.026 A 
HETATM    6  C   UNK N   1      29.433  17.355   6.622  0.00  0.00     0.062 A 
HETATM    7  C   UNK N   1      30.535  16.553   7.138  0.00  0.00     0.256 C 
HETATM    8  O   UNK N   1      30.865  15.532   6.557  0.00  0.00    -0.267 OA
HETATM    9  N   UNK N   1      31.266  17.026   8.183  0.00  0.00    -0.345 N 
HETATM   10  C   UNK N   1      31.029  18.344   8.742  0.00  0.00     0.126 C 
HETATM   11  C   UNK N   1      29.744  18.443   9.571  0.00  0.00     0.026 C 
HETATM   12  C   UNK N   1      28.437  18.135   8.835  0.00  0.00     0.059 C 
HETATM   13  H   UNK N   1      26.933  19.331   6.759  0.00  0.00     0.166 HD
ENDROOT
BRANCH   3  14
HETATM   14  C   UNK N   1      27.420  18.676   4.025  0.00  0.00     0.048 C 
BRANCH  14  15
HETATM   15  C   UNK N   1      26.131  18.612   3.761  0.00  0.00     0.047 A 
HETATM   16  C   UNK N   1      25.557  17.335   3.471  0.00  0.00     0.009 A 
HETATM   17  C   UNK N   1      26.200  16.125   3.238  0.00  0.00     0.057 A 
HETATM   18  C   UNK N   1      24.211  17.427   3.709  0.00  0.00     0.046 A 
HETATM   19  C   UNK N   1      25.426  14.966   3.233  0.00  0.00     0.117 A 
HETATM   20  C   UNK N   1      24.036  15.041   3.486  0.00  0.00     0.044 A 
HETATM   21  F   UNK N   1      26.028  13.769   3.035  0.00  0.00    -0.206 F 
HETATM   22  C   UNK N   1      23.414  16.286   3.729  0.00  0.00     0.033 A 
HETATM   23  N   UNK N   1      23.841  18.746   4.062  0.00  0.00    -0.322 N 
HETATM   24  C   UNK N   1      24.985  19.467   4.107  0.00  0.00     0.257 A 
HETATM   25  H   UNK N   1      22.932  19.075   4.240  0.00  0.00     0.169 HD
HETATM   26  O   UNK N   1      25.025  20.645   4.428  0.00  0.00    -0.267 OA
ENDBRANCH  14  15
ENDBRANCH   3  14
BRANCH   9  27
HETATM   27  C   UNK N   1      32.465  16.338   8.574  0.00  0.00     0.159 C 
BRANCH  27  28
HETATM   28  C   UNK N   1      33.628  17.296   8.771  0.00  0.00     0.164 C 
BRANCH  28  29
HETATM   29  C   UNK N   1      34.617  16.678   9.760  0.00  0.00     0.305 C 
BRANCH  29  30
HETATM   30  N   UNK N   1      34.548  15.205   9.866  0.00  0.00     0.095 N 
HETATM   31  C   UNK N   1      34.484  14.859  11.288  0.00  0.00     0.298 C 
HETATM   32  C   UNK N   1      35.860  15.047  11.944  0.00  0.00     0.198 C 
HETATM   33  O   UNK N   1      36.799  14.210  11.315  0.00  0.00    -0.388 OA
HETATM   34  C   UNK N   1      36.968  14.705  10.013  0.00  0.00     0.198 C 
HETATM   35  C   UNK N   1      35.674  14.493   9.228  0.00  0.00     0.298 C 
ENDBRANCH  29  30
ENDBRANCH  28  29
BRANCH  28  36
HETATM   36  O   UNK N   1      34.282  17.563   7.565  0.00  0.00    -0.392 OA
HETATM   37  H   UNK N   1      34.115  17.133   6.712  0.00  0.00     0.210 HD
ENDBRANCH  28  36
ENDBRANCH  27  28
ENDBRANCH   9  27
TORSDOF 7
ENDMDL
MODEL 9
REMARK VINA RESULT:      -7.7      3.495     10.032
REMARK  7 active torsions:
REMARK  status: ('A' for Active; 'I' for Inactive)
REMARK    1  A    between atoms: C_3  and  C_23 
REMARK    2  A    between atoms: N_9  and  C_13 
REMARK    3  A    between atoms: C_13  and  C_14 
REMARK    4  A    between atoms: C_14  and  C_15 
REMARK    5  A    between atoms: C_14  and  O_22 
REMARK    6  A    between atoms: C_15  and  N_16 
REMARK    7  A    between atoms: C_23  and  C_24 
ROOT
HETATM    1  C   UNK N   1      35.294  11.412  13.510  0.00  0.00     0.052 C 
HETATM    2  C   UNK N   1      35.650  12.836  13.234  0.00  0.00    -0.018 A 
HETATM    3  C   UNK N   1      36.175  13.732  14.121  0.00  0.00     0.040 A 
HETATM    4  N   UNK N   1      36.416  14.923  13.534  0.00  0.00    -0.358 N 
HETATM    5  C   UNK N   1      35.991  14.779  12.262  0.00  0.00     0.026 A 
HETATM    6  C   UNK N   1      35.520  13.500  12.060  0.00  0.00     0.062 A 
HETATM    7  C   UNK N   1      34.943  12.951  10.840  0.00  0.00     0.256 C 
HETATM    8  O   UNK N   1      35.100  11.770  10.574  0.00  0.00    -0.267 OA
HETATM    9  N   UNK N   1      34.124  13.731  10.084  0.00  0.00    -0.345 N 
HETATM   10  C   UNK N   1      33.746  15.067  10.505  0.00  0.00     0.126 C 
HETATM   11  C   UNK N   1      34.873  16.097  10.383  0.00  0.00     0.026 C 
HETATM   12  C   UNK N   1      36.138  15.819  11.199  0.00  0.00     0.059 C 
HETATM   13  H   UNK N   1      36.815  15.724  13.944  0.00  0.00     0.166 HD
ENDROOT
BRANCH   3  14
HETATM   14  C   UNK N   1      36.565  13.306  15.438  0.00  0.00     0.048 C 
BRANCH  14  15
HETATM   15  C   UNK N   1      35.956  13.559  16.579  0.00  0.00     0.047 A 
HETATM   16  C   UNK N   1      35.420  12.463  17.323  0.00  0.00     0.009 A 
HETATM   17  C   UNK N   1      35.274  11.136  16.936  0.00  0.00     0.057 A 
HETATM   18  C   UNK N   1      35.289  12.874  18.624  0.00  0.00     0.046 A 
HETATM   19  C   UNK N   1      34.966  10.199  17.920  0.00  0.00     0.117 A 
HETATM   20  C   UNK N   1      34.836  10.605  19.269  0.00  0.00     0.044 A 
HETATM   21  F   UNK N   1      34.843   8.895  17.577  0.00  0.00    -0.206 F 
HETATM   22  C   UNK N   1      35.000  11.960  19.633  0.00  0.00     0.033 A 
HETATM   23  N   UNK N   1      35.634  14.239  18.766  0.00  0.00    -0.322 N 
HETATM   24  C   UNK N   1      36.046  14.661  17.549  0.00  0.00     0.257 A 
HETATM   25  H   UNK N   1      35.584  14.776  19.589  0.00  0.00     0.169 HD
HETATM   26  O   UNK N   1      36.459  15.790  17.333  0.00  0.00    -0.267 OA
ENDBRANCH  14  15
ENDBRANCH   3  14
BRANCH   9  27
HETATM   27  C   UNK N   1      33.402  13.143   8.989  0.00  0.00     0.159 C 
BRANCH  27  28
HETATM   28  C   UNK N   1      34.092  13.392   7.659  0.00  0.00     0.164 C 
BRANCH  28  29
HETATM   29  C   UNK N   1      33.500  14.648   7.020  0.00  0.00     0.305 C 
BRANCH  29  30
HETATM   30  N   UNK N   1      34.482  15.527   6.352  0.00  0.00     0.095 N 
HETATM   31  C   UNK N   1      34.226  16.902   6.789  0.00  0.00     0.298 C 
HETATM   32  C   UNK N   1      32.965  17.450   6.105  0.00  0.00     0.198 C 
HETATM   33  O   UNK N   1      33.144  17.442   4.711  0.00  0.00    -0.388 OA
HETATM   34  C   UNK N   1      33.189  16.095   4.320  0.00  0.00     0.198 C 
HETATM   35  C   UNK N   1      34.461  15.457   4.877  0.00  0.00     0.298 C 
ENDBRANCH  29  30
ENDBRANCH  28  29
BRANCH  28  36
HETATM   36  O   UNK N   1      35.471  13.558   7.820  0.00  0.00    -0.392 OA
HETATM   37  H   UNK N   1      35.992  13.323   8.604  0.00  0.00     0.210 HD
ENDBRANCH  28  36
ENDBRANCH  27  28
ENDBRANCH   9  27
TORSDOF 7
ENDMDL
