REMARK  14 active torsions:
REMARK  status: ('A' for Active; 'I' for Inactive)
REMARK    1  A    between atoms: C_2  and  C_3 
REMARK    2  A    between atoms: C_3  and  C_4 
REMARK    3  A    between atoms: C_4  and  C_5 
REMARK    4  A    between atoms: C_5  and  C_6 
REMARK    5  A    between atoms: C_6  and  O_7 
REMARK    6  A    between atoms: O_7  and  C_8 
REMARK    7  A    between atoms: C_8  and  C_10 
REMARK    8  A    between atoms: C_14  and  C_18 
REMARK    9  A    between atoms: C_15  and  O_16 
REMARK   10  A    between atoms: C_21  and  N_24 
REMARK       I    between atoms: N_24  and  C_25 
REMARK   11  A    between atoms: C_25  and  C_27 
REMARK   12  A    between atoms: C_30  and  C_34 
REMARK   13  A    between atoms: C_35  and  C_37 
REMARK   14  A    between atoms: C_37  and  O_39 
ROOT
HETATM    1  C   UNK N   1      13.592  -5.381  -1.010  0.00  0.00     0.053 A 
HETATM    2  C   UNK N   1      14.095  -4.344  -1.817  0.00  0.00     0.083 A 
HETATM    3  S   UNK N   1      15.694  -4.265  -1.430  0.00  0.00    -0.063 SA
HETATM    4  C   UNK N   1      15.742  -5.459  -0.294  0.00  0.00     0.151 A 
HETATM    5  N   UNK N   1      14.500  -5.963  -0.160  0.00  0.00    -0.335 N 
ATOM      6  HN  UNK N   1      14.259  -6.699   0.503  1.00  0.00     0.168 HD
ENDROOT
BRANCH   4   7
HETATM    7  N   UNK N   1      16.551  -5.299   0.837  0.00  0.00    -0.303 N 
HETATM    8  C   UNK N   1      17.489  -6.134   1.328  0.00  0.00     0.257 C 
HETATM    9  O   UNK N   1      18.150  -5.752   2.272  0.00  0.00    -0.267 OA
HETATM   10  H   UNK N   1      16.417  -4.464   1.342  0.00  0.00     0.171 HD
BRANCH   8  11
HETATM   11  C   UNK N   1      17.813  -7.447   0.743  0.00  0.00     0.035 A 
HETATM   12  C   UNK N   1      19.164  -7.779   0.698  0.00  0.00     0.042 A 
HETATM   13  C   UNK N   1      19.579  -9.067   0.426  0.00  0.00     0.046 A 
HETATM   14  C   UNK N   1      18.627 -10.086   0.268  0.00  0.00     0.008 A 
HETATM   15 Cl   UNK N   1      21.309  -9.380   0.424  0.00  0.00    -0.083 Cl
HETATM   16  C   UNK N   1      17.251  -9.761   0.270  0.00  0.00     0.046 A 
HETATM   17  C   UNK N   1      16.845  -8.430   0.492  0.00  0.00     0.042 A 
HETATM   18 Cl   UNK N   1      16.030 -11.015   0.097  0.00  0.00    -0.083 Cl
BRANCH  14  19
HETATM   19  C   UNK N   1      19.082 -11.488   0.274  0.00  0.00     0.028 C 
HETATM   20  C   UNK N   1      19.671 -12.162  -0.716  0.00  0.00     0.012 C 
HETATM   21  C   UNK N   1      19.810 -11.577  -2.086  0.00  0.00     0.055 C 
BRANCH  20  22
HETATM   22  C   UNK N   1      20.216 -13.503  -0.407  0.00  0.00     0.171 C 
HETATM   23  O   UNK N   1      20.741 -14.173  -1.279  0.00  0.00    -0.646 OA
BRANCH  22  24
HETATM   24  O   UNK N   1      20.184 -13.970   0.860  0.00  0.00    -0.773 OA
HETATM   25  H   UNK N   1      19.893 -14.113   1.739  0.00  0.00     0.167 HD
ENDBRANCH  22  24
ENDBRANCH  20  22
ENDBRANCH  14  19
ENDBRANCH   8  11
ENDBRANCH   4   7
BRANCH   1  26
HETATM   26  C   UNK N   1      12.200  -5.430  -0.602  0.00  0.00     0.025 A 
HETATM   27  C   UNK N   1      11.607  -4.209  -0.276  0.00  0.00     0.016 A 
HETATM   28  C   UNK N   1      10.403  -4.169   0.397  0.00  0.00     0.002 A 
HETATM   29  C   UNK N   1       9.782  -5.354   0.748  0.00  0.00     0.012 A 
HETATM   30  C   UNK N   1      10.315  -6.597   0.392  0.00  0.00     0.004 A 
HETATM   31  C   UNK N   1      11.568  -6.652  -0.296  0.00  0.00     0.089 A 
BRANCH  30  32
HETATM   32  C   UNK N   1       9.448  -7.774   0.766  0.00  0.00     0.153 C 
HETATM   33  C   UNK N   1      10.096  -8.753   1.732  0.00  0.00     0.045 C 
BRANCH  32  34
HETATM   34  O   UNK N   1       8.732  -8.427  -0.275  0.00  0.00    -0.382 OA
BRANCH  34  35
HETATM   35  C   UNK N   1       8.580  -7.614  -1.428  0.00  0.00     0.168 C 
BRANCH  35  36
HETATM   36  C   UNK N   1       7.648  -6.387  -1.299  0.00  0.00     0.026 C 
BRANCH  36  37
HETATM   37  C   UNK N   1       7.006  -6.130   0.063  0.00  0.00     0.002 C 
BRANCH  37  38
HETATM   38  C   UNK N   1       5.691  -6.862   0.176  0.00  0.00    -0.000 C 
BRANCH  38  39
HETATM   39  C   UNK N   1       5.933  -8.263   0.687  0.00  0.00    -0.005 C 
HETATM   40  C   UNK N   1       4.746  -9.127   0.334  0.00  0.00     0.005 C 
ENDBRANCH  38  39
ENDBRANCH  37  38
ENDBRANCH  36  37
ENDBRANCH  35  36
ENDBRANCH  34  35
ENDBRANCH  32  34
ENDBRANCH  30  32
BRANCH  31  41
HETATM   41  O   UNK N   1      12.198  -7.800  -0.681  0.00  0.00    -0.354 OA
HETATM   42  C   UNK N   1      11.679  -9.072  -0.684  0.00  0.00     0.210 C 
ENDBRANCH  31  41
ENDBRANCH   1  26
TORSDOF 14
