REMARK  9 active torsions:
REMARK  status: ('A' for Active; 'I' for Inactive)
REMARK    1  A    between atoms: C_3  and  C_23 
REMARK    2  A    between atoms: N_4  and  S_8 
REMARK    3  A    between atoms: S_8  and  C_11 
REMARK    4  A    between atoms: C_14  and  O_17 
REMARK    5  A    between atoms: O_17  and  C_18 
REMARK    6  A    between atoms: C_18  and  C_19 
REMARK    7  A    between atoms: C_20  and  C_21 
REMARK    8  A    between atoms: C_21  and  O_22 
REMARK       I    between atoms: C_23  and  N_25 
REMARK    9  A    between atoms: N_25  and  O_26 
ROOT
HETATM    1  S   UNK N   1       1.579  -3.878   0.440  0.00  0.00     0.244 S 
HETATM    2  O   UNK N   1       1.432  -3.269   1.845  0.00  0.00    -0.206 OA
HETATM    3  O   UNK N   1       0.710  -5.138   0.598  0.00  0.00    -0.206 OA
ENDROOT
BRANCH   1   4
HETATM    4  N   UNK N   1       0.699  -2.800  -0.676  0.00  0.00    -0.191 NA
HETATM    5  C   UNK N   1       0.694  -1.406  -0.164  0.00  0.00     0.186 C 
HETATM    6  C   UNK N   1      -0.670  -0.662  -0.397  0.00  0.00     0.026 C 
HETATM    7  C   UNK N   1      -0.699   0.695   0.274  0.00  0.00     0.029 C 
HETATM    8  S   UNK N   1      -2.110  -1.548   0.329  0.00  0.00    -0.156 SA
HETATM    9  C   UNK N   1      -0.924  -0.441  -1.879  0.00  0.00     0.029 C 
HETATM   10  C   UNK N   1      -1.580  -3.269   0.090  0.00  0.00     0.090 C 
HETATM   11  C   UNK N   1      -0.599  -3.368  -1.054  0.00  0.00     0.118 C 
BRANCH   5  12
HETATM   12  C   UNK N   1       1.920  -0.692  -0.753  0.00  0.00     0.261 C 
HETATM   13  O   UNK N   1       2.521  -1.224  -1.676  0.00  0.00    -0.270 OA
HETATM   14  N   UNK N   1       2.400   0.485  -0.268  0.00  0.00    -0.236 N 
HETATM   15  H   UNK N   1       3.161   0.906  -0.730  0.00  0.00     0.197 HD
BRANCH  14  16
HETATM   16  O   UNK N   1       1.888   1.098   0.808  0.00  0.00    -0.287 OA
HETATM   17  H   UNK N   1       2.087   1.641   1.587  0.00  0.00     0.244 HD
ENDBRANCH  14  16
ENDBRANCH   5  12
ENDBRANCH   1   4
BRANCH   1  18
HETATM   18  C   UNK N   1       3.264  -4.364   0.109  0.00  0.00     0.074 A 
HETATM   19  C   UNK N   1       4.317  -3.655   0.692  0.00  0.00     0.027 A 
HETATM   20  C   UNK N   1       5.623  -4.147   0.606  0.00  0.00     0.038 A 
HETATM   21  C   UNK N   1       5.876  -5.355  -0.059  0.00  0.00     0.070 A 
HETATM   22  C   UNK N   1       4.827  -6.038  -0.683  0.00  0.00     0.038 A 
HETATM   23  C   UNK N   1       3.521  -5.549  -0.590  0.00  0.00     0.027 A 
BRANCH  21  24
HETATM   24  O   UNK N   1       7.107  -5.901  -0.034  0.00  0.00    -0.340 OA
BRANCH  24  25
HETATM   25  C   UNK N   1       7.545  -6.539   1.104  0.00  0.00     0.269 C 
BRANCH  25  26
HETATM   26  C   UNK N   1       8.315  -7.740   0.753  0.00  0.00    -0.078 C 
HETATM   27  C   UNK N   1       8.949  -8.720   0.444  0.00  0.00    -0.079 C 
BRANCH  27  28
HETATM   28  C   UNK N   1       9.688  -9.914   0.038  0.00  0.00     0.257 C 
BRANCH  28  29
HETATM   29  O   UNK N   1      10.295  -9.675  -1.190  0.00  0.00    -0.389 OA
HETATM   30  H   UNK N   1      10.652  -9.958  -2.047  0.00  0.00     0.210 HD
ENDBRANCH  28  29
ENDBRANCH  27  28
ENDBRANCH  25  26
ENDBRANCH  24  25
ENDBRANCH  21  24
ENDBRANCH   1  18
TORSDOF 9
