MODEL 1
REMARK VINA RESULT:     -10.0      0.000      0.000
REMARK  12 active torsions:
REMARK  status: ('A' for Active; 'I' for Inactive)
REMARK    1  A    between atoms: C_2  and  C_4 
REMARK    2  A    between atoms: C_4  and  C_5 
REMARK    3  A    between atoms: C_4  and  N_72 
REMARK       I    between atoms: C_5  and  N_7 
REMARK    4  A    between atoms: C_15  and  C_16 
REMARK    5  A    between atoms: C_20  and  C_26 
REMARK    6  A    between atoms: C_38  and  C_40 
REMARK    7  A    between atoms: C_50  and  C_47 
REMARK       I    between atoms: N_58  and  C_59 
REMARK    8  A    between atoms: C_59  and  C_61 
REMARK    9  A    between atoms: C_61  and  C_62 
REMARK   10  A    between atoms: C_61  and  N_65 
REMARK       I    between atoms: N_65  and  C_66 
REMARK   11  A    between atoms: C_66  and  O_68 
REMARK       I    between atoms: N_72  and  C_73 
REMARK   12  A    between atoms: C_73  and  O_75 
ROOT
HETATM    1  C   UNK N   1      30.981  17.059   6.301  0.00  0.00    -0.019 C 
HETATM    2  C   UNK N   1      31.000  16.529   7.587  0.00  0.00     0.020 C 
HETATM    3  C   UNK N   1      32.187  16.573   8.329  0.00  0.00    -0.057 C 
HETATM    4  C   UNK N   1      33.307  17.254   7.834  0.00  0.00     0.007 C 
HETATM    5  C   UNK N   1      33.312  17.736   6.527  0.00  0.00     0.008 C 
HETATM    6  C   UNK N   1      32.193  17.550   5.722  0.00  0.00    -0.047 C 
HETATM    7  C   UNK N   1      32.373  17.646   4.187  0.00  0.00     0.044 C 
HETATM    8  C   UNK N   1      32.220  16.259   3.414  0.00  0.00     0.043 C 
HETATM    9  C   UNK N   1      32.567  15.110   4.314  0.00  0.00    -0.057 C 
HETATM   10  C   UNK N   1      31.525  14.409   4.920  0.00  0.00     0.007 C 
HETATM   11  C   UNK N   1      31.646  13.973   6.235  0.00  0.00     0.008 C 
HETATM   12  C   UNK N   1      32.805  14.256   6.956  0.00  0.00    -0.051 C 
HETATM   13  C   UNK N   1      33.950  14.784   6.241  0.00  0.00    -0.040 C 
HETATM   14  C   UNK N   1      33.804  15.181   4.924  0.00  0.00     0.015 C 
HETATM   15  C   UNK N   1      32.698  14.088   8.481  0.00  0.00     0.043 C 
HETATM   16  C   UNK N   1      32.440  15.437   9.274  0.00  0.00     0.043 C 
ENDROOT
BRANCH   1  17
HETATM   17  C   UNK N   1      29.810  16.991   5.441  0.00  0.00    -0.023 A 
HETATM   18  C   UNK N   1      28.878  16.091   5.900  0.00  0.00     0.044 A 
HETATM   19  C   UNK N   1      27.622  16.203   5.482  0.00  0.00     0.061 A 
HETATM   20  N   UNK N   1      26.641  15.439   5.886  0.00  0.00    -0.342 N 
HETATM   21  C   UNK N   1      27.191  17.140   4.610  0.00  0.00     0.060 A 
HETATM   22  C   UNK N   1      25.584  15.914   5.231  0.00  0.00     0.105 A 
HETATM   23  H   UNK N   1      26.676  14.689   6.523  0.00  0.00     0.167 HD
HETATM   24  N   UNK N   1      25.868  16.979   4.422  0.00  0.00    -0.342 N 
ATOM     25  HN  UNK N   1      25.237  17.515   3.827  1.00  0.00     0.167 HD
HETATM   26  C   UNK N   1      28.097  18.036   4.018  0.00  0.00     0.033 A 
HETATM   27  C   UNK N   1      29.453  17.955   4.450  0.00  0.00     0.014 A 
BRANCH  22  28
HETATM   28  C   UNK N   1      24.354  15.148   5.317  0.00  0.00     0.156 C 
HETATM   29  C   UNK N   1      23.131  15.842   5.892  0.00  0.00     0.040 C 
HETATM   30  C   UNK N   1      22.158  15.687   4.754  0.00  0.00     0.011 C 
HETATM   31  C   UNK N   1      20.677  15.754   5.047  0.00  0.00     0.007 C 
HETATM   32  C   UNK N   1      22.520  14.400   4.039  0.00  0.00     0.092 C 
HETATM   33  C   UNK N   1      19.962  15.767   3.691  0.00  0.00     0.001 C 
HETATM   34  C   UNK N   1      20.416  14.611   2.776  0.00  0.00     0.002 C 
HETATM   35  C   UNK N   1      21.945  14.551   2.641  0.00  0.00     0.026 C 
HETATM   36  N   UNK N   1      23.952  14.417   4.138  0.00  0.00    -0.334 N 
HETATM   37  C   UNK N   1      24.792  13.680   3.321  0.00  0.00     0.244 C 
HETATM   38  O   UNK N   1      24.309  12.922   2.493  0.00  0.00    -0.271 OA
BRANCH  37  39
HETATM   39  C   UNK N   1      26.310  13.891   3.296  0.00  0.00     0.182 C 
BRANCH  39  40
HETATM   40  C   UNK N   1      26.697  14.501   1.922  0.00  0.00     0.009 C 
HETATM   41  C   UNK N   1      28.150  14.934   1.823  0.00  0.00     0.012 C 
HETATM   42  C   UNK N   1      25.813  15.660   1.487  0.00  0.00     0.012 C 
ENDBRANCH  39  40
BRANCH  39  43
HETATM   43  N   UNK N   1      27.056  12.659   3.496  0.00  0.00    -0.323 N 
HETATM   44  C   UNK N   1      27.211  12.102   4.733  0.00  0.00     0.360 C 
HETATM   45  O   UNK N   1      26.634  12.576   5.702  0.00  0.00    -0.239 OA
HETATM   46  H   UNK N   1      27.460  12.214   2.717  0.00  0.00     0.165 HD
BRANCH  44  47
HETATM   47  O   UNK N   1      28.030  11.038   4.916  0.00  0.00    -0.309 OA
HETATM   48  C   UNK N   1      29.353  11.051   4.547  0.00  0.00     0.215 C 
ENDBRANCH  44  47
ENDBRANCH  39  43
ENDBRANCH  37  39
ENDBRANCH  22  28
ENDBRANCH   1  17
BRANCH  13  49
HETATM   49  C   UNK N   1      35.293  14.902   6.817  0.00  0.00     0.066 C 
HETATM   50  C   UNK N   1      36.224  14.538   5.811  0.00  0.00    -0.011 C 
HETATM   51  C   UNK N   1      36.936  13.345   5.936  0.00  0.00     0.029 C 
HETATM   52  C   UNK N   1      36.730  12.634   7.105  0.00  0.00     0.060 A 
HETATM   53  C   UNK N   1      36.055  13.142   8.158  0.00  0.00     0.057 A 
HETATM   54  N   UNK N   1      37.115  11.404   7.377  0.00  0.00    -0.342 N 
HETATM   55  C   UNK N   1      35.388  14.321   8.083  0.00  0.00     0.018 C 
HETATM   56  N   UNK N   1      36.008  12.255   9.153  0.00  0.00    -0.343 N 
HETATM   57  C   UNK N   1      36.653  11.185   8.635  0.00  0.00     0.105 A 
HETATM   58  H   UNK N   1      35.602  12.353  10.044  0.00  0.00     0.167 HD
ATOM     59  HN  UNK N   1      37.639  10.763   6.781  1.00  0.00     0.167 HD
BRANCH  57  60
HETATM   60  C   UNK N   1      37.073   9.987   9.424  0.00  0.00     0.156 C 
HETATM   61  C   UNK N   1      36.113   8.823   9.177  0.00  0.00     0.040 C 
HETATM   62  C   UNK N   1      34.961   9.150  10.111  0.00  0.00     0.011 C 
HETATM   63  C   UNK N   1      34.019   7.980  10.400  0.00  0.00     0.007 C 
HETATM   64  C   UNK N   1      35.620   9.790  11.341  0.00  0.00     0.092 C 
HETATM   65  C   UNK N   1      34.667   6.970  11.335  0.00  0.00     0.001 C 
HETATM   66  C   UNK N   1      35.059   7.672  12.625  0.00  0.00     0.002 C 
HETATM   67  C   UNK N   1      36.119   8.715  12.320  0.00  0.00     0.026 C 
HETATM   68  N   UNK N   1      36.803  10.389  10.783  0.00  0.00    -0.334 N 
HETATM   69  C   UNK N   1      37.511  11.407  11.371  0.00  0.00     0.244 C 
HETATM   70  O   UNK N   1      38.589  11.752  10.902  0.00  0.00    -0.271 OA
BRANCH  69  71
HETATM   71  C   UNK N   1      36.905  12.267  12.446  0.00  0.00     0.182 C 
BRANCH  71  72
HETATM   72  C   UNK N   1      36.945  11.859  13.907  0.00  0.00     0.009 C 
HETATM   73  C   UNK N   1      36.880  13.062  14.829  0.00  0.00     0.012 C 
HETATM   74  C   UNK N   1      38.181  11.034  14.185  0.00  0.00     0.012 C 
ENDBRANCH  71  72
BRANCH  71  75
HETATM   75  N   UNK N   1      37.039  13.691  12.162  0.00  0.00    -0.323 N 
HETATM   76  C   UNK N   1      36.023  14.497  11.755  0.00  0.00     0.360 C 
HETATM   77  O   UNK N   1      34.908  14.036  11.553  0.00  0.00    -0.239 OA
HETATM   78  H   UNK N   1      37.929  14.097  12.272  0.00  0.00     0.165 HD
BRANCH  76  79
HETATM   79  O   UNK N   1      36.257  15.822  11.577  0.00  0.00    -0.309 OA
HETATM   80  C   UNK N   1      35.364  16.648  10.933  0.00  0.00     0.215 C 
ENDBRANCH  76  79
ENDBRANCH  71  75
ENDBRANCH  69  71
ENDBRANCH  57  60
ENDBRANCH  13  49
TORSDOF 12
ENDMDL
MODEL 2
REMARK VINA RESULT:      -9.8      1.471      1.859
REMARK  12 active torsions:
REMARK  status: ('A' for Active; 'I' for Inactive)
REMARK    1  A    between atoms: C_2  and  C_4 
REMARK    2  A    between atoms: C_4  and  C_5 
REMARK    3  A    between atoms: C_4  and  N_72 
REMARK       I    between atoms: C_5  and  N_7 
REMARK    4  A    between atoms: C_15  and  C_16 
REMARK    5  A    between atoms: C_20  and  C_26 
REMARK    6  A    between atoms: C_38  and  C_40 
REMARK    7  A    between atoms: C_50  and  C_47 
REMARK       I    between atoms: N_58  and  C_59 
REMARK    8  A    between atoms: C_59  and  C_61 
REMARK    9  A    between atoms: C_61  and  C_62 
REMARK   10  A    between atoms: C_61  and  N_65 
REMARK       I    between atoms: N_65  and  C_66 
REMARK   11  A    between atoms: C_66  and  O_68 
REMARK       I    between atoms: N_72  and  C_73 
REMARK   12  A    between atoms: C_73  and  O_75 
ROOT
HETATM    1  C   UNK N   1      31.029  17.072   5.495  0.00  0.00    -0.019 C 
HETATM    2  C   UNK N   1      31.067  17.128   6.884  0.00  0.00     0.020 C 
HETATM    3  C   UNK N   1      32.286  17.371   7.528  0.00  0.00    -0.057 C 
HETATM    4  C   UNK N   1      33.431  17.680   6.782  0.00  0.00     0.007 C 
HETATM    5  C   UNK N   1      33.414  17.569   5.394  0.00  0.00     0.008 C 
HETATM    6  C   UNK N   1      32.247  17.165   4.752  0.00  0.00    -0.047 C 
HETATM    7  C   UNK N   1      32.364  16.595   3.316  0.00  0.00     0.044 C 
HETATM    8  C   UNK N   1      32.068  15.032   3.199  0.00  0.00     0.043 C 
HETATM    9  C   UNK N   1      32.366  14.337   4.495  0.00  0.00    -0.057 C 
HETATM   10  C   UNK N   1      31.302  14.050   5.349  0.00  0.00     0.007 C 
HETATM   11  C   UNK N   1      31.449  14.195   6.725  0.00  0.00     0.008 C 
HETATM   12  C   UNK N   1      32.658  14.647   7.249  0.00  0.00    -0.051 C 
HETATM   13  C   UNK N   1      33.807  14.723   6.368  0.00  0.00    -0.040 C 
HETATM   14  C   UNK N   1      33.631  14.545   5.007  0.00  0.00     0.015 C 
HETATM   15  C   UNK N   1      32.609  15.141   8.704  0.00  0.00     0.043 C 
HETATM   16  C   UNK N   1      32.493  16.716   8.860  0.00  0.00     0.043 C 
ENDROOT
BRANCH   1  17
HETATM   17  C   UNK N   1      29.818  16.757   4.754  0.00  0.00    -0.023 A 
HETATM   18  C   UNK N   1      28.682  16.961   5.500  0.00  0.00     0.044 A 
HETATM   19  C   UNK N   1      27.523  17.115   4.871  0.00  0.00     0.061 A 
HETATM   20  N   UNK N   1      26.387  17.364   5.470  0.00  0.00    -0.342 N 
HETATM   21  C   UNK N   1      27.373  17.065   3.530  0.00  0.00     0.060 A 
HETATM   22  C   UNK N   1      25.517  17.454   4.467  0.00  0.00     0.105 A 
HETATM   23  H   UNK N   1      26.217  17.460   6.435  0.00  0.00     0.167 HD
HETATM   24  N   UNK N   1      26.078  17.279   3.232  0.00  0.00    -0.342 N 
ATOM     25  HN  UNK N   1      25.628  17.306   2.317  1.00  0.00     0.167 HD
HETATM   26  C   UNK N   1      28.465  16.764   2.699  0.00  0.00     0.033 A 
HETATM   27  C   UNK N   1      29.729  16.603   3.337  0.00  0.00     0.014 A 
BRANCH  22  28
HETATM   28  C   UNK N   1      24.111  17.537   4.817  0.00  0.00     0.156 C 
HETATM   29  C   UNK N   1      23.422  18.880   4.654  0.00  0.00     0.040 C 
HETATM   30  C   UNK N   1      22.302  18.511   3.718  0.00  0.00     0.011 C 
HETATM   31  C   UNK N   1      21.067  19.380   3.681  0.00  0.00     0.007 C 
HETATM   32  C   UNK N   1      21.948  17.064   4.006  0.00  0.00     0.092 C 
HETATM   33  C   UNK N   1      20.211  18.878   2.512  0.00  0.00     0.001 C 
HETATM   34  C   UNK N   1      19.962  17.357   2.579  0.00  0.00     0.002 C 
HETATM   35  C   UNK N   1      21.269  16.566   2.742  0.00  0.00     0.026 C 
HETATM   36  N   UNK N   1      23.242  16.510   4.289  0.00  0.00    -0.334 N 
HETATM   37  C   UNK N   1      23.532  15.158   4.232  0.00  0.00     0.244 C 
HETATM   38  O   UNK N   1      22.639  14.363   3.982  0.00  0.00    -0.271 OA
BRANCH  37  39
HETATM   39  C   UNK N   1      24.965  14.619   4.313  0.00  0.00     0.182 C 
BRANCH  39  40
HETATM   40  C   UNK N   1      25.301  13.917   2.970  0.00  0.00     0.009 C 
HETATM   41  C   UNK N   1      26.746  13.465   2.851  0.00  0.00     0.012 C 
HETATM   42  C   UNK N   1      24.943  14.733   1.737  0.00  0.00     0.012 C 
ENDBRANCH  39  40
BRANCH  39  43
HETATM   43  N   UNK N   1      25.154  13.676   5.403  0.00  0.00    -0.323 N 
HETATM   44  C   UNK N   1      25.128  14.068   6.711  0.00  0.00     0.360 C 
HETATM   45  O   UNK N   1      24.839  15.220   7.006  0.00  0.00    -0.239 OA
HETATM   46  H   UNK N   1      25.306  12.727   5.192  0.00  0.00     0.165 HD
BRANCH  44  47
HETATM   47  O   UNK N   1      25.450  13.202   7.701  0.00  0.00    -0.309 OA
HETATM   48  C   UNK N   1      25.036  13.374   8.999  0.00  0.00     0.215 C 
ENDBRANCH  44  47
ENDBRANCH  39  43
ENDBRANCH  37  39
ENDBRANCH  22  28
ENDBRANCH   1  17
BRANCH  13  49
HETATM   49  C   UNK N   1      35.180  14.950   6.829  0.00  0.00     0.066 C 
HETATM   50  C   UNK N   1      36.054  14.474   5.819  0.00  0.00    -0.011 C 
HETATM   51  C   UNK N   1      36.811  13.326   6.053  0.00  0.00     0.029 C 
HETATM   52  C   UNK N   1      36.705  12.776   7.318  0.00  0.00     0.060 A 
HETATM   53  C   UNK N   1      36.085  13.407   8.338  0.00  0.00     0.057 A 
HETATM   54  N   UNK N   1      37.146  11.604   7.726  0.00  0.00    -0.342 N 
HETATM   55  C   UNK N   1      35.376  14.549   8.152  0.00  0.00     0.018 C 
HETATM   56  N   UNK N   1      36.131  12.662   9.444  0.00  0.00    -0.343 N 
HETATM   57  C   UNK N   1      36.775  11.548   9.031  0.00  0.00     0.105 A 
HETATM   58  H   UNK N   1      35.781  12.871  10.339  0.00  0.00     0.167 HD
ATOM     59  HN  UNK N   1      37.651  10.900   7.186  1.00  0.00     0.167 HD
BRANCH  57  60
HETATM   60  C   UNK N   1      37.284  10.478   9.943  0.00  0.00     0.156 C 
HETATM   61  C   UNK N   1      36.528   9.171   9.706  0.00  0.00     0.040 C 
HETATM   62  C   UNK N   1      35.257   9.382  10.511  0.00  0.00     0.011 C 
HETATM   63  C   UNK N   1      34.468   8.106  10.809  0.00  0.00     0.007 C 
HETATM   64  C   UNK N   1      35.700  10.190  11.740  0.00  0.00     0.092 C 
HETATM   65  C   UNK N   1      35.161   7.266  11.871  0.00  0.00     0.001 C 
HETATM   66  C   UNK N   1      35.326   8.099  13.131  0.00  0.00     0.002 C 
HETATM   67  C   UNK N   1      36.251   9.267  12.837  0.00  0.00     0.026 C 
HETATM   68  N   UNK N   1      36.833  10.922  11.239  0.00  0.00    -0.334 N 
HETATM   69  C   UNK N   1      37.330  12.070  11.804  0.00  0.00     0.244 C 
HETATM   70  O   UNK N   1      38.387  12.540  11.402  0.00  0.00    -0.271 OA
BRANCH  69  71
HETATM   71  C   UNK N   1      36.509  12.897  12.754  0.00  0.00     0.182 C 
BRANCH  71  72
HETATM   72  C   UNK N   1      36.374  12.525  14.220  0.00  0.00     0.009 C 
HETATM   73  C   UNK N   1      34.927  12.286  14.608  0.00  0.00     0.012 C 
HETATM   74  C   UNK N   1      36.994  13.595  15.089  0.00  0.00     0.012 C 
ENDBRANCH  71  72
BRANCH  71  75
HETATM   75  N   UNK N   1      36.565  14.320  12.445  0.00  0.00    -0.323 N 
HETATM   76  C   UNK N   1      35.532  15.041  11.933  0.00  0.00     0.360 C 
HETATM   77  O   UNK N   1      34.474  14.496  11.651  0.00  0.00    -0.239 OA
HETATM   78  H   UNK N   1      37.411  14.793  12.618  0.00  0.00     0.165 HD
BRANCH  76  79
HETATM   79  O   UNK N   1      35.685  16.376  11.739  0.00  0.00    -0.309 OA
HETATM   80  C   UNK N   1      35.387  16.986  10.542  0.00  0.00     0.215 C 
ENDBRANCH  76  79
ENDBRANCH  71  75
ENDBRANCH  69  71
ENDBRANCH  57  60
ENDBRANCH  13  49
TORSDOF 12
ENDMDL
MODEL 3
REMARK VINA RESULT:      -9.7      6.081     14.557
REMARK  12 active torsions:
REMARK  status: ('A' for Active; 'I' for Inactive)
REMARK    1  A    between atoms: C_2  and  C_4 
REMARK    2  A    between atoms: C_4  and  C_5 
REMARK    3  A    between atoms: C_4  and  N_72 
REMARK       I    between atoms: C_5  and  N_7 
REMARK    4  A    between atoms: C_15  and  C_16 
REMARK    5  A    between atoms: C_20  and  C_26 
REMARK    6  A    between atoms: C_38  and  C_40 
REMARK    7  A    between atoms: C_50  and  C_47 
REMARK       I    between atoms: N_58  and  C_59 
REMARK    8  A    between atoms: C_59  and  C_61 
REMARK    9  A    between atoms: C_61  and  C_62 
REMARK   10  A    between atoms: C_61  and  N_65 
REMARK       I    between atoms: N_65  and  C_66 
REMARK   11  A    between atoms: C_66  and  O_68 
REMARK       I    between atoms: N_72  and  C_73 
REMARK   12  A    between atoms: C_73  and  O_75 
ROOT
HETATM    1  C   UNK N   1      36.405  10.428  15.697  0.00  0.00    -0.019 C 
HETATM    2  C   UNK N   1      36.346   9.206  15.035  0.00  0.00     0.020 C 
HETATM    3  C   UNK N   1      37.068   9.034  13.848  0.00  0.00    -0.057 C 
HETATM    4  C   UNK N   1      37.940  10.034  13.397  0.00  0.00     0.007 C 
HETATM    5  C   UNK N   1      37.961  11.278  14.022  0.00  0.00     0.008 C 
HETATM    6  C   UNK N   1      37.121  11.516  15.106  0.00  0.00    -0.047 C 
HETATM    7  C   UNK N   1      36.804  12.987  15.475  0.00  0.00     0.044 C 
HETATM    8  C   UNK N   1      35.301  13.433  15.183  0.00  0.00     0.043 C 
HETATM    9  C   UNK N   1      34.709  12.610  14.076  0.00  0.00    -0.057 C 
HETATM   10  C   UNK N   1      33.884  11.540  14.419  0.00  0.00     0.007 C 
HETATM   11  C   UNK N   1      33.954  10.345  13.708  0.00  0.00     0.008 C 
HETATM   12  C   UNK N   1      34.867  10.212  12.664  0.00  0.00    -0.051 C 
HETATM   13  C   UNK N   1      35.548  11.400  12.187  0.00  0.00    -0.040 C 
HETATM   14  C   UNK N   1      35.433  12.580  12.901  0.00  0.00     0.015 C 
HETATM   15  C   UNK N   1      35.147   8.773  12.203  0.00  0.00     0.043 C 
HETATM   16  C   UNK N   1      36.466   8.133  12.811  0.00  0.00     0.043 C 
ENDROOT
BRANCH   1  17
HETATM   17  C   UNK N   1      35.633  10.710  16.896  0.00  0.00    -0.023 A 
HETATM   18  C   UNK N   1      35.011   9.589  17.391  0.00  0.00     0.044 A 
HETATM   19  C   UNK N   1      34.621   9.583  18.661  0.00  0.00     0.061 A 
HETATM   20  N   UNK N   1      34.066   8.559  19.256  0.00  0.00    -0.342 N 
HETATM   21  C   UNK N   1      34.777  10.622  19.509  0.00  0.00     0.060 A 
HETATM   22  C   UNK N   1      33.864   8.990  20.498  0.00  0.00     0.105 A 
HETATM   23  H   UNK N   1      33.849   7.678  18.874  0.00  0.00     0.167 HD
HETATM   24  N   UNK N   1      34.291  10.271  20.715  0.00  0.00    -0.342 N 
ATOM     25  HN  UNK N   1      34.252  10.820  21.573  1.00  0.00     0.167 HD
HETATM   26  C   UNK N   1      35.313  11.839  19.058  0.00  0.00     0.033 A 
HETATM   27  C   UNK N   1      35.754  11.882  17.703  0.00  0.00     0.014 A 
BRANCH  22  28
HETATM   28  C   UNK N   1      33.077   8.141  21.373  0.00  0.00     0.156 C 
HETATM   29  C   UNK N   1      31.662   7.802  20.938  0.00  0.00     0.040 C 
HETATM   30  C   UNK N   1      31.723   6.298  20.925  0.00  0.00     0.011 C 
HETATM   31  C   UNK N   1      30.438   5.514  21.060  0.00  0.00     0.007 C 
HETATM   32  C   UNK N   1      32.730   5.890  21.984  0.00  0.00     0.092 C 
HETATM   33  C   UNK N   1      30.792   4.044  20.812  0.00  0.00     0.001 C 
HETATM   34  C   UNK N   1      31.967   3.566  21.691  0.00  0.00     0.002 C 
HETATM   35  C   UNK N   1      33.183   4.498  21.581  0.00  0.00     0.026 C 
HETATM   36  N   UNK N   1      33.706   6.934  21.859  0.00  0.00    -0.334 N 
HETATM   37  C   UNK N   1      35.009   6.833  22.317  0.00  0.00     0.244 C 
HETATM   38  O   UNK N   1      35.357   5.826  22.914  0.00  0.00    -0.271 OA
BRANCH  37  39
HETATM   39  C   UNK N   1      36.087   7.865  21.968  0.00  0.00     0.182 C 
BRANCH  39  40
HETATM   40  C   UNK N   1      37.110   7.200  21.008  0.00  0.00     0.009 C 
HETATM   41  C   UNK N   1      38.327   6.619  21.706  0.00  0.00     0.012 C 
HETATM   42  C   UNK N   1      37.580   8.105  19.879  0.00  0.00     0.012 C 
ENDBRANCH  39  40
BRANCH  39  43
HETATM   43  N   UNK N   1      36.790   8.366  23.138  0.00  0.00    -0.323 N 
HETATM   44  C   UNK N   1      36.243   9.311  23.959  0.00  0.00     0.360 C 
HETATM   45  O   UNK N   1      35.093   9.689  23.788  0.00  0.00    -0.239 OA
HETATM   46  H   UNK N   1      37.685   8.015  23.344  0.00  0.00     0.165 HD
BRANCH  44  47
HETATM   47  O   UNK N   1      36.973   9.868  24.956  0.00  0.00    -0.309 OA
HETATM   48  C   UNK N   1      38.342   9.774  25.011  0.00  0.00     0.215 C 
ENDBRANCH  44  47
ENDBRANCH  39  43
ENDBRANCH  37  39
ENDBRANCH  22  28
ENDBRANCH   1  17
BRANCH  13  49
HETATM   49  C   UNK N   1      36.343  11.452  10.957  0.00  0.00     0.066 C 
HETATM   50  C   UNK N   1      36.853  12.769  10.832  0.00  0.00    -0.011 C 
HETATM   51  C   UNK N   1      36.361  13.602   9.827  0.00  0.00     0.029 C 
HETATM   52  C   UNK N   1      35.448  13.031   8.959  0.00  0.00     0.060 A 
HETATM   53  C   UNK N   1      35.195  11.704   8.934  0.00  0.00     0.057 A 
HETATM   54  N   UNK N   1      34.694  13.641   8.067  0.00  0.00    -0.342 N 
HETATM   55  C   UNK N   1      35.694  10.860   9.872  0.00  0.00     0.018 C 
HETATM   56  N   UNK N   1      34.282  11.421   8.004  0.00  0.00    -0.343 N 
HETATM   57  C   UNK N   1      33.978  12.638   7.498  0.00  0.00     0.105 A 
HETATM   58  H   UNK N   1      33.919  10.544   7.748  0.00  0.00     0.167 HD
ATOM     59  HN  UNK N   1      34.657  14.638   7.854  1.00  0.00     0.167 HD
BRANCH  57  60
HETATM   60  C   UNK N   1      33.161  12.862   6.267  0.00  0.00     0.156 C 
HETATM   61  C   UNK N   1      33.959  12.478   5.020  0.00  0.00     0.040 C 
HETATM   62  C   UNK N   1      34.813  13.714   4.790  0.00  0.00     0.011 C 
HETATM   63  C   UNK N   1      35.431  13.815   3.395  0.00  0.00     0.007 C 
HETATM   64  C   UNK N   1      33.919  14.892   5.206  0.00  0.00     0.092 C 
HETATM   65  C   UNK N   1      34.384  14.180   2.354  0.00  0.00     0.001 C 
HETATM   66  C   UNK N   1      33.734  15.496   2.746  0.00  0.00     0.002 C 
HETATM   67  C   UNK N   1      32.989  15.311   4.057  0.00  0.00     0.026 C 
HETATM   68  N   UNK N   1      33.067  14.300   6.202  0.00  0.00    -0.334 N 
HETATM   69  C   UNK N   1      32.380  15.005   7.159  0.00  0.00     0.244 C 
HETATM   70  O   UNK N   1      31.561  14.434   7.868  0.00  0.00    -0.271 OA
BRANCH  69  71
HETATM   71  C   UNK N   1      32.759  16.415   7.518  0.00  0.00     0.182 C 
BRANCH  71  72
HETATM   72  C   UNK N   1      31.774  17.563   7.379  0.00  0.00     0.009 C 
HETATM   73  C   UNK N   1      31.065  17.856   8.687  0.00  0.00     0.012 C 
HETATM   74  C   UNK N   1      30.778  17.265   6.282  0.00  0.00     0.012 C 
ENDBRANCH  71  72
BRANCH  71  75
HETATM   75  N   UNK N   1      33.675  16.475   8.650  0.00  0.00    -0.323 N 
HETATM   76  C   UNK N   1      34.646  17.413   8.809  0.00  0.00     0.360 C 
HETATM   77  O   UNK N   1      34.837  18.261   7.949  0.00  0.00    -0.239 OA
HETATM   78  H   UNK N   1      33.585  15.787   9.348  0.00  0.00     0.165 HD
BRANCH  76  79
HETATM   79  O   UNK N   1      35.403  17.401   9.936  0.00  0.00    -0.309 OA
HETATM   80  C   UNK N   1      35.218  16.474  10.937  0.00  0.00     0.215 C 
ENDBRANCH  76  79
ENDBRANCH  71  75
ENDBRANCH  69  71
ENDBRANCH  57  60
ENDBRANCH  13  49
TORSDOF 12
ENDMDL
MODEL 4
REMARK VINA RESULT:      -9.6      1.641      3.356
REMARK  12 active torsions:
REMARK  status: ('A' for Active; 'I' for Inactive)
REMARK    1  A    between atoms: C_2  and  C_4 
REMARK    2  A    between atoms: C_4  and  C_5 
REMARK    3  A    between atoms: C_4  and  N_72 
REMARK       I    between atoms: C_5  and  N_7 
REMARK    4  A    between atoms: C_15  and  C_16 
REMARK    5  A    between atoms: C_20  and  C_26 
REMARK    6  A    between atoms: C_38  and  C_40 
REMARK    7  A    between atoms: C_50  and  C_47 
REMARK       I    between atoms: N_58  and  C_59 
REMARK    8  A    between atoms: C_59  and  C_61 
REMARK    9  A    between atoms: C_61  and  C_62 
REMARK   10  A    between atoms: C_61  and  N_65 
REMARK       I    between atoms: N_65  and  C_66 
REMARK   11  A    between atoms: C_66  and  O_68 
REMARK       I    between atoms: N_72  and  C_73 
REMARK   12  A    between atoms: C_73  and  O_75 
ROOT
HETATM    1  C   UNK N   1      30.891  16.846   5.832  0.00  0.00    -0.019 C 
HETATM    2  C   UNK N   1      30.787  16.338   7.123  0.00  0.00     0.020 C 
HETATM    3  C   UNK N   1      31.862  16.487   8.007  0.00  0.00    -0.057 C 
HETATM    4  C   UNK N   1      32.980  17.248   7.640  0.00  0.00     0.007 C 
HETATM    5  C   UNK N   1      33.115  17.710   6.333  0.00  0.00     0.008 C 
HETATM    6  C   UNK N   1      32.125  17.424   5.399  0.00  0.00    -0.047 C 
HETATM    7  C   UNK N   1      32.492  17.513   3.897  0.00  0.00     0.044 C 
HETATM    8  C   UNK N   1      32.546  16.108   3.144  0.00  0.00     0.043 C 
HETATM    9  C   UNK N   1      32.863  15.002   4.108  0.00  0.00    -0.057 C 
HETATM   10  C   UNK N   1      31.810  14.229   4.595  0.00  0.00     0.007 C 
HETATM   11  C   UNK N   1      31.796  13.823   5.925  0.00  0.00     0.008 C 
HETATM   12  C   UNK N   1      32.827  14.207   6.779  0.00  0.00    -0.051 C 
HETATM   13  C   UNK N   1      34.010  14.814   6.202  0.00  0.00    -0.040 C 
HETATM   14  C   UNK N   1      34.002  15.180   4.867  0.00  0.00     0.015 C 
HETATM   15  C   UNK N   1      32.541  14.053   8.282  0.00  0.00     0.043 C 
HETATM   16  C   UNK N   1      32.080  15.388   9.004  0.00  0.00     0.043 C 
ENDROOT
BRANCH   1  17
HETATM   17  C   UNK N   1      29.847  16.673   4.834  0.00  0.00    -0.023 A 
HETATM   18  C   UNK N   1      29.394  15.377   4.773  0.00  0.00     0.044 A 
HETATM   19  C   UNK N   1      28.204  15.142   4.232  0.00  0.00     0.061 A 
HETATM   20  N   UNK N   1      27.647  13.960   4.164  0.00  0.00    -0.342 N 
HETATM   21  C   UNK N   1      27.403  16.096   3.711  0.00  0.00     0.060 A 
HETATM   22  C   UNK N   1      26.479  14.198   3.571  0.00  0.00     0.105 A 
HETATM   23  H   UNK N   1      28.008  13.099   4.475  0.00  0.00     0.167 HD
HETATM   24  N   UNK N   1      26.272  15.515   3.268  0.00  0.00    -0.342 N 
ATOM     25  HN  UNK N   1      25.463  15.948   2.821  1.00  0.00     0.167 HD
HETATM   26  C   UNK N   1      27.833  17.431   3.644  0.00  0.00     0.033 A 
HETATM   27  C   UNK N   1      29.100  17.727   4.225  0.00  0.00     0.014 A 
BRANCH  22  28
HETATM   28  C   UNK N   1      25.694  13.045   3.172  0.00  0.00     0.156 C 
HETATM   29  C   UNK N   1      26.313  12.083   2.173  0.00  0.00     0.040 C 
HETATM   30  C   UNK N   1      26.258  10.795   2.950  0.00  0.00     0.011 C 
HETATM   31  C   UNK N   1      26.278   9.486   2.195  0.00  0.00     0.007 C 
HETATM   32  C   UNK N   1      25.051  10.885   3.864  0.00  0.00     0.092 C 
HETATM   33  C   UNK N   1      26.415   8.377   3.243  0.00  0.00     0.001 C 
HETATM   34  C   UNK N   1      25.359   8.492   4.362  0.00  0.00     0.002 C 
HETATM   35  C   UNK N   1      25.331   9.897   4.983  0.00  0.00     0.026 C 
HETATM   36  N   UNK N   1      25.076  12.273   4.226  0.00  0.00    -0.334 N 
HETATM   37  C   UNK N   1      24.433  12.794   5.336  0.00  0.00     0.244 C 
HETATM   38  O   UNK N   1      23.753  12.058   6.035  0.00  0.00    -0.271 OA
BRANCH  37  39
HETATM   39  C   UNK N   1      24.664  14.230   5.823  0.00  0.00     0.182 C 
BRANCH  39  40
HETATM   40  C   UNK N   1      25.644  14.186   7.027  0.00  0.00     0.009 C 
HETATM   41  C   UNK N   1      25.009  13.718   8.325  0.00  0.00     0.012 C 
HETATM   42  C   UNK N   1      26.369  15.498   7.284  0.00  0.00     0.012 C 
ENDBRANCH  39  40
BRANCH  39  43
HETATM   43  N   UNK N   1      23.437  14.892   6.232  0.00  0.00    -0.323 N 
HETATM   44  C   UNK N   1      22.988  16.026   5.617  0.00  0.00     0.360 C 
HETATM   45  O   UNK N   1      23.561  16.461   4.628  0.00  0.00    -0.239 OA
HETATM   46  H   UNK N   1      22.914  14.513   6.974  0.00  0.00     0.165 HD
BRANCH  44  47
HETATM   47  O   UNK N   1      21.925  16.706   6.108  0.00  0.00    -0.309 OA
HETATM   48  C   UNK N   1      21.839  18.076   6.066  0.00  0.00     0.215 C 
ENDBRANCH  44  47
ENDBRANCH  39  43
ENDBRANCH  37  39
ENDBRANCH  22  28
ENDBRANCH   1  17
BRANCH  13  49
HETATM   49  C   UNK N   1      35.256  15.048   6.939  0.00  0.00     0.066 C 
HETATM   50  C   UNK N   1      36.333  14.797   6.050  0.00  0.00    -0.011 C 
HETATM   51  C   UNK N   1      37.137  13.676   6.248  0.00  0.00     0.029 C 
HETATM   52  C   UNK N   1      36.862  12.922   7.376  0.00  0.00     0.060 A 
HETATM   53  C   UNK N   1      36.019  13.339   8.344  0.00  0.00     0.057 A 
HETATM   54  N   UNK N   1      37.330  11.728   7.680  0.00  0.00    -0.342 N 
HETATM   55  C   UNK N   1      35.253  14.450   8.201  0.00  0.00     0.018 C 
HETATM   56  N   UNK N   1      35.938  12.428   9.315  0.00  0.00    -0.343 N 
HETATM   57  C   UNK N   1      36.743  11.438   8.869  0.00  0.00     0.105 A 
HETATM   58  H   UNK N   1      35.420  12.467  10.151  0.00  0.00     0.167 HD
ATOM     59  HN  UNK N   1      37.982  11.155   7.145  1.00  0.00     0.167 HD
BRANCH  57  60
HETATM   60  C   UNK N   1      37.179  10.268   9.690  0.00  0.00     0.156 C 
HETATM   61  C   UNK N   1      36.278   9.062   9.422  0.00  0.00     0.040 C 
HETATM   62  C   UNK N   1      35.077   9.353  10.306  0.00  0.00     0.011 C 
HETATM   63  C   UNK N   1      34.173   8.149  10.575  0.00  0.00     0.007 C 
HETATM   64  C   UNK N   1      35.662  10.034  11.552  0.00  0.00     0.092 C 
HETATM   65  C   UNK N   1      34.824   7.178  11.548  0.00  0.00     0.001 C 
HETATM   66  C   UNK N   1      35.137   7.911  12.843  0.00  0.00     0.002 C 
HETATM   67  C   UNK N   1      36.165   8.994  12.564  0.00  0.00     0.026 C 
HETATM   68  N   UNK N   1      36.841  10.675  11.032  0.00  0.00    -0.334 N 
HETATM   69  C   UNK N   1      37.483  11.728  11.633  0.00  0.00     0.244 C 
HETATM   70  O   UNK N   1      38.564  12.111  11.201  0.00  0.00    -0.271 OA
BRANCH  69  71
HETATM   71  C   UNK N   1      36.802  12.576  12.671  0.00  0.00     0.182 C 
BRANCH  71  72
HETATM   72  C   UNK N   1      36.849  12.218  14.146  0.00  0.00     0.009 C 
HETATM   73  C   UNK N   1      36.884  13.455  15.023  0.00  0.00     0.012 C 
HETATM   74  C   UNK N   1      38.035  11.324  14.428  0.00  0.00     0.012 C 
ENDBRANCH  71  72
BRANCH  71  75
HETATM   75  N   UNK N   1      36.837  13.996  12.343  0.00  0.00    -0.323 N 
HETATM   76  C   UNK N   1      35.756  14.730  11.970  0.00  0.00     0.360 C 
HETATM   77  O   UNK N   1      34.661  14.201  11.841  0.00  0.00    -0.239 OA
HETATM   78  H   UNK N   1      37.706  14.455  12.393  0.00  0.00     0.165 HD
BRANCH  76  79
HETATM   79  O   UNK N   1      35.902  16.060  11.744  0.00  0.00    -0.309 OA
HETATM   80  C   UNK N   1      35.302  16.698  10.681  0.00  0.00     0.215 C 
ENDBRANCH  76  79
ENDBRANCH  71  75
ENDBRANCH  69  71
ENDBRANCH  57  60
ENDBRANCH  13  49
TORSDOF 12
ENDMDL
MODEL 5
REMARK VINA RESULT:      -9.5      6.262     14.821
REMARK  12 active torsions:
REMARK  status: ('A' for Active; 'I' for Inactive)
REMARK    1  A    between atoms: C_2  and  C_4 
REMARK    2  A    between atoms: C_4  and  C_5 
REMARK    3  A    between atoms: C_4  and  N_72 
REMARK       I    between atoms: C_5  and  N_7 
REMARK    4  A    between atoms: C_15  and  C_16 
REMARK    5  A    between atoms: C_20  and  C_26 
REMARK    6  A    between atoms: C_38  and  C_40 
REMARK    7  A    between atoms: C_50  and  C_47 
REMARK       I    between atoms: N_58  and  C_59 
REMARK    8  A    between atoms: C_59  and  C_61 
REMARK    9  A    between atoms: C_61  and  C_62 
REMARK   10  A    between atoms: C_61  and  N_65 
REMARK       I    between atoms: N_65  and  C_66 
REMARK   11  A    between atoms: C_66  and  O_68 
REMARK       I    between atoms: N_72  and  C_73 
REMARK   12  A    between atoms: C_73  and  O_75 
ROOT
HETATM    1  C   UNK N   1      36.304  10.413  15.918  0.00  0.00    -0.019 C 
HETATM    2  C   UNK N   1      36.217   9.227  15.197  0.00  0.00     0.020 C 
HETATM    3  C   UNK N   1      36.899   9.113  13.979  0.00  0.00    -0.057 C 
HETATM    4  C   UNK N   1      37.759  10.133  13.551  0.00  0.00     0.007 C 
HETATM    5  C   UNK N   1      37.806  11.344  14.238  0.00  0.00     0.008 C 
HETATM    6  C   UNK N   1      37.004  11.528  15.360  0.00  0.00    -0.047 C 
HETATM    7  C   UNK N   1      36.704  12.978  15.813  0.00  0.00     0.044 C 
HETATM    8  C   UNK N   1      35.194  13.442  15.595  0.00  0.00     0.043 C 
HETATM    9  C   UNK N   1      34.563  12.678  14.468  0.00  0.00    -0.057 C 
HETATM   10  C   UNK N   1      33.745  11.594  14.783  0.00  0.00     0.007 C 
HETATM   11  C   UNK N   1      33.788  10.437  14.010  0.00  0.00     0.008 C 
HETATM   12  C   UNK N   1      34.664  10.356  12.931  0.00  0.00    -0.051 C 
HETATM   13  C   UNK N   1      35.334  11.565  12.493  0.00  0.00    -0.040 C 
HETATM   14  C   UNK N   1      35.248  12.707  13.270  0.00  0.00     0.015 C 
HETATM   15  C   UNK N   1      34.924   8.941  12.388  0.00  0.00     0.043 C 
HETATM   16  C   UNK N   1      36.259   8.268  12.918  0.00  0.00     0.043 C 
ENDROOT
BRANCH   1  17
HETATM   17  C   UNK N   1      35.572  10.635  17.155  0.00  0.00    -0.023 A 
HETATM   18  C   UNK N   1      34.918   9.505  17.584  0.00  0.00     0.044 A 
HETATM   19  C   UNK N   1      34.560   9.420  18.860  0.00  0.00     0.061 A 
HETATM   20  N   UNK N   1      33.979   8.377  19.393  0.00  0.00    -0.342 N 
HETATM   21  C   UNK N   1      34.777  10.387  19.777  0.00  0.00     0.060 A 
HETATM   22  C   UNK N   1      33.824   8.723  20.669  0.00  0.00     0.105 A 
HETATM   23  H   UNK N   1      33.717   7.536  18.954  0.00  0.00     0.167 HD
HETATM   24  N   UNK N   1      34.307   9.967  20.967  0.00  0.00    -0.342 N 
ATOM     25  HN  UNK N   1      34.311  10.453  21.864  1.00  0.00     0.167 HD
HETATM   26  C   UNK N   1      35.350  11.613  19.401  0.00  0.00     0.033 A 
HETATM   27  C   UNK N   1      35.759  11.739  18.042  0.00  0.00     0.014 A 
BRANCH  22  28
HETATM   28  C   UNK N   1      33.025   7.842  21.501  0.00  0.00     0.156 C 
HETATM   29  C   UNK N   1      31.628   7.493  21.018  0.00  0.00     0.040 C 
HETATM   30  C   UNK N   1      31.713   5.991  20.972  0.00  0.00     0.011 C 
HETATM   31  C   UNK N   1      30.436   5.186  21.052  0.00  0.00     0.007 C 
HETATM   32  C   UNK N   1      32.695   5.573  22.050  0.00  0.00     0.092 C 
HETATM   33  C   UNK N   1      30.819   3.727  20.781  0.00  0.00     0.001 C 
HETATM   34  C   UNK N   1      31.976   3.246  21.682  0.00  0.00     0.002 C 
HETATM   35  C   UNK N   1      33.181   4.197  21.628  0.00  0.00     0.026 C 
HETATM   36  N   UNK N   1      33.658   6.634  21.977  0.00  0.00    -0.334 N 
HETATM   37  C   UNK N   1      34.948   6.541  22.471  0.00  0.00     0.244 C 
HETATM   38  O   UNK N   1      35.295   5.525  23.055  0.00  0.00    -0.271 OA
BRANCH  37  39
HETATM   39  C   UNK N   1      36.021   7.597  22.177  0.00  0.00     0.182 C 
BRANCH  39  40
HETATM   40  C   UNK N   1      37.084   6.966  21.238  0.00  0.00     0.009 C 
HETATM   41  C   UNK N   1      38.333   6.482  21.953  0.00  0.00     0.012 C 
HETATM   42  C   UNK N   1      37.501   7.864  20.083  0.00  0.00     0.012 C 
ENDBRANCH  39  40
BRANCH  39  43
HETATM   43  N   UNK N   1      36.677   8.085  23.378  0.00  0.00    -0.323 N 
HETATM   44  C   UNK N   1      36.205   9.163  24.073  0.00  0.00     0.360 C 
HETATM   45  O   UNK N   1      35.147   9.688  23.755  0.00  0.00    -0.239 OA
HETATM   46  H   UNK N   1      37.485   7.626  23.701  0.00  0.00     0.165 HD
BRANCH  44  47
HETATM   47  O   UNK N   1      36.913   9.688  25.101  0.00  0.00    -0.309 OA
HETATM   48  C   UNK N   1      36.474   9.638  26.402  0.00  0.00     0.215 C 
ENDBRANCH  44  47
ENDBRANCH  39  43
ENDBRANCH  37  39
ENDBRANCH  22  28
ENDBRANCH   1  17
BRANCH  13  49
HETATM   49  C   UNK N   1      36.088  11.677  11.241  0.00  0.00     0.066 C 
HETATM   50  C   UNK N   1      37.246  12.453  11.507  0.00  0.00    -0.011 C 
HETATM   51  C   UNK N   1      37.346  13.738  10.974  0.00  0.00     0.029 C 
HETATM   52  C   UNK N   1      36.316  14.131  10.139  0.00  0.00     0.060 A 
HETATM   53  C   UNK N   1      35.376  13.274   9.686  0.00  0.00     0.057 A 
HETATM   54  N   UNK N   1      36.070  15.341   9.677  0.00  0.00    -0.342 N 
HETATM   55  C   UNK N   1      35.278  12.003  10.152  0.00  0.00     0.018 C 
HETATM   56  N   UNK N   1      34.508  13.908   8.897  0.00  0.00    -0.343 N 
HETATM   57  C   UNK N   1      34.951  15.186   8.925  0.00  0.00     0.105 A 
HETATM   58  H   UNK N   1      33.734  13.539   8.414  0.00  0.00     0.167 HD
ATOM     59  HN  UNK N   1      36.599  16.196   9.846  1.00  0.00     0.167 HD
BRANCH  57  60
HETATM   60  C   UNK N   1      34.457  16.272   8.025  0.00  0.00     0.156 C 
HETATM   61  C   UNK N   1      33.314  17.039   8.691  0.00  0.00     0.040 C 
HETATM   62  C   UNK N   1      32.119  16.141   8.417  0.00  0.00     0.011 C 
HETATM   63  C   UNK N   1      30.758  16.813   8.602  0.00  0.00     0.007 C 
HETATM   64  C   UNK N   1      32.384  15.550   7.024  0.00  0.00     0.092 C 
HETATM   65  C   UNK N   1      30.462  17.780   7.466  0.00  0.00     0.001 C 
HETATM   66  C   UNK N   1      30.511  17.025   6.148  0.00  0.00     0.002 C 
HETATM   67  C   UNK N   1      31.923  16.514   5.920  0.00  0.00     0.026 C 
HETATM   68  N   UNK N   1      33.821  15.539   6.958  0.00  0.00    -0.334 N 
HETATM   69  C   UNK N   1      34.555  14.748   6.111  0.00  0.00     0.244 C 
HETATM   70  O   UNK N   1      35.765  14.913   6.015  0.00  0.00    -0.271 OA
BRANCH  69  71
HETATM   71  C   UNK N   1      33.958  13.532   5.456  0.00  0.00     0.182 C 
BRANCH  71  72
HETATM   72  C   UNK N   1      33.445  13.570   4.028  0.00  0.00     0.009 C 
HETATM   73  C   UNK N   1      33.813  14.867   3.332  0.00  0.00     0.012 C 
HETATM   74  C   UNK N   1      31.949  13.353   4.005  0.00  0.00     0.012 C 
ENDBRANCH  71  72
BRANCH  71  75
HETATM   75  N   UNK N   1      34.600  12.296   5.886  0.00  0.00    -0.323 N 
HETATM   76  C   UNK N   1      34.047  11.395   6.741  0.00  0.00     0.360 C 
HETATM   77  O   UNK N   1      32.957  11.612   7.250  0.00  0.00    -0.239 OA
HETATM   78  H   UNK N   1      35.498  12.099   5.532  0.00  0.00     0.165 HD
BRANCH  76  79
HETATM   79  O   UNK N   1      34.719  10.250   7.024  0.00  0.00    -0.309 OA
HETATM   80  C   UNK N   1      34.172   9.246   7.791  0.00  0.00     0.215 C 
ENDBRANCH  76  79
ENDBRANCH  71  75
ENDBRANCH  69  71
ENDBRANCH  57  60
ENDBRANCH  13  49
TORSDOF 12
ENDMDL
MODEL 6
REMARK VINA RESULT:      -9.4      2.700      5.569
REMARK  12 active torsions:
REMARK  status: ('A' for Active; 'I' for Inactive)
REMARK    1  A    between atoms: C_2  and  C_4 
REMARK    2  A    between atoms: C_4  and  C_5 
REMARK    3  A    between atoms: C_4  and  N_72 
REMARK       I    between atoms: C_5  and  N_7 
REMARK    4  A    between atoms: C_15  and  C_16 
REMARK    5  A    between atoms: C_20  and  C_26 
REMARK    6  A    between atoms: C_38  and  C_40 
REMARK    7  A    between atoms: C_50  and  C_47 
REMARK       I    between atoms: N_58  and  C_59 
REMARK    8  A    between atoms: C_59  and  C_61 
REMARK    9  A    between atoms: C_61  and  C_62 
REMARK   10  A    between atoms: C_61  and  N_65 
REMARK       I    between atoms: N_65  and  C_66 
REMARK   11  A    between atoms: C_66  and  O_68 
REMARK       I    between atoms: N_72  and  C_73 
REMARK   12  A    between atoms: C_73  and  O_75 
ROOT
HETATM    1  C   UNK N   1      27.237  16.882   3.572  0.00  0.00    -0.019 C 
HETATM    2  C   UNK N   1      26.850  17.920   4.413  0.00  0.00     0.020 C 
HETATM    3  C   UNK N   1      27.826  18.765   4.954  0.00  0.00    -0.057 C 
HETATM    4  C   UNK N   1      29.164  18.647   4.555  0.00  0.00     0.007 C 
HETATM    5  C   UNK N   1      29.566  17.577   3.759  0.00  0.00     0.008 C 
HETATM    6  C   UNK N   1      28.628  16.635   3.351  0.00  0.00    -0.047 C 
HETATM    7  C   UNK N   1      29.139  15.245   2.898  0.00  0.00     0.044 C 
HETATM    8  C   UNK N   1      28.784  14.051   3.894  0.00  0.00     0.043 C 
HETATM    9  C   UNK N   1      28.619  14.562   5.296  0.00  0.00    -0.057 C 
HETATM   10  C   UNK N   1      27.326  14.786   5.768  0.00  0.00     0.007 C 
HETATM   11  C   UNK N   1      27.053  15.894   6.565  0.00  0.00     0.008 C 
HETATM   12  C   UNK N   1      28.071  16.793   6.874  0.00  0.00    -0.051 C 
HETATM   13  C   UNK N   1      29.438  16.422   6.562  0.00  0.00    -0.040 C 
HETATM   14  C   UNK N   1      29.676  15.297   5.792  0.00  0.00     0.015 C 
HETATM   15  C   UNK N   1      27.613  18.158   7.413  0.00  0.00     0.043 C 
HETATM   16  C   UNK N   1      27.567  19.312   6.326  0.00  0.00     0.043 C 
ENDROOT
BRANCH   1  17
HETATM   17  C   UNK N   1      26.293  15.921   3.024  0.00  0.00    -0.023 A 
HETATM   18  C   UNK N   1      25.008  16.150   3.454  0.00  0.00     0.044 A 
HETATM   19  C   UNK N   1      24.000  15.643   2.753  0.00  0.00     0.061 A 
HETATM   20  N   UNK N   1      22.737  15.835   3.034  0.00  0.00    -0.342 N 
HETATM   21  C   UNK N   1      24.149  14.891   1.641  0.00  0.00     0.060 A 
HETATM   22  C   UNK N   1      22.097  15.170   2.076  0.00  0.00     0.105 A 
HETATM   23  H   UNK N   1      22.352  16.349   3.780  0.00  0.00     0.167 HD
HETATM   24  N   UNK N   1      22.929  14.563   1.176  0.00  0.00    -0.342 N 
ATOM     25  HN  UNK N   1      22.686  14.003   0.358  1.00  0.00     0.167 HD
HETATM   26  C   UNK N   1      25.429  14.528   1.190  0.00  0.00     0.033 A 
HETATM   27  C   UNK N   1      26.537  15.062   1.910  0.00  0.00     0.014 A 
BRANCH  22  28
HETATM   28  C   UNK N   1      20.660  15.026   2.216  0.00  0.00     0.156 C 
HETATM   29  C   UNK N   1      19.794  15.419   1.033  0.00  0.00     0.040 C 
HETATM   30  C   UNK N   1      19.052  14.132   0.787  0.00  0.00     0.011 C 
HETATM   31  C   UNK N   1      17.727  14.182   0.062  0.00  0.00     0.007 C 
HETATM   32  C   UNK N   1      18.919  13.439   2.130  0.00  0.00     0.092 C 
HETATM   33  C   UNK N   1      17.321  12.730  -0.212  0.00  0.00     0.001 C 
HETATM   34  C   UNK N   1      17.360  11.859   1.062  0.00  0.00     0.002 C 
HETATM   35  C   UNK N   1      18.704  11.973   1.796  0.00  0.00     0.026 C 
HETATM   36  N   UNK N   1      20.174  13.771   2.742  0.00  0.00    -0.334 N 
HETATM   37  C   UNK N   1      20.723  13.075   3.805  0.00  0.00     0.244 C 
HETATM   38  O   UNK N   1      20.096  12.153   4.305  0.00  0.00    -0.271 OA
BRANCH  37  39
HETATM   39  C   UNK N   1      22.160  13.306   4.287  0.00  0.00     0.182 C 
BRANCH  39  40
HETATM   40  C   UNK N   1      23.000  12.046   3.942  0.00  0.00     0.009 C 
HETATM   41  C   UNK N   1      24.491  12.213   4.176  0.00  0.00     0.012 C 
HETATM   42  C   UNK N   1      22.783  11.524   2.530  0.00  0.00     0.012 C 
ENDBRANCH  39  40
BRANCH  39  43
HETATM   43  N   UNK N   1      22.244  13.557   5.716  0.00  0.00    -0.323 N 
HETATM   44  C   UNK N   1      21.916  14.768   6.257  0.00  0.00     0.360 C 
HETATM   45  O   UNK N   1      21.439  15.650   5.556  0.00  0.00    -0.239 OA
HETATM   46  H   UNK N   1      22.546  12.834   6.311  0.00  0.00     0.165 HD
BRANCH  44  47
HETATM   47  O   UNK N   1      22.141  15.024   7.568  0.00  0.00    -0.309 OA
HETATM   48  C   UNK N   1      21.127  15.309   8.450  0.00  0.00     0.215 C 
ENDBRANCH  44  47
ENDBRANCH  39  43
ENDBRANCH  37  39
ENDBRANCH  22  28
ENDBRANCH   1  17
BRANCH  13  49
HETATM   49  C   UNK N   1      30.615  17.153   7.040  0.00  0.00     0.066 C 
HETATM   50  C   UNK N   1      31.623  17.036   6.048  0.00  0.00    -0.011 C 
HETATM   51  C   UNK N   1      32.752  16.260   6.307  0.00  0.00     0.029 C 
HETATM   52  C   UNK N   1      32.839  15.718   7.578  0.00  0.00     0.060 A 
HETATM   53  C   UNK N   1      32.007  16.074   8.581  0.00  0.00     0.057 A 
HETATM   54  N   UNK N   1      33.682  14.801   8.007  0.00  0.00    -0.342 N 
HETATM   55  C   UNK N   1      30.924  16.864   8.370  0.00  0.00     0.018 C 
HETATM   56  N   UNK N   1      32.311  15.409   9.696  0.00  0.00    -0.343 N 
HETATM   57  C   UNK N   1      33.336  14.617   9.306  0.00  0.00     0.105 A 
HETATM   58  H   UNK N   1      31.892  15.476  10.584  0.00  0.00     0.167 HD
ATOM     59  HN  UNK N   1      34.424  14.337   7.483  1.00  0.00     0.167 HD
BRANCH  57  60
HETATM   60  C   UNK N   1      34.193  13.824  10.239  0.00  0.00     0.156 C 
HETATM   61  C   UNK N   1      35.508  14.556  10.507  0.00  0.00     0.040 C 
HETATM   62  C   UNK N   1      36.337  14.191   9.287  0.00  0.00     0.011 C 
HETATM   63  C   UNK N   1      37.839  14.434   9.436  0.00  0.00     0.007 C 
HETATM   64  C   UNK N   1      35.928  12.749   8.952  0.00  0.00     0.092 C 
HETATM   65  C   UNK N   1      38.477  13.396  10.347  0.00  0.00     0.001 C 
HETATM   66  C   UNK N   1      38.214  12.011   9.778  0.00  0.00     0.002 C 
HETATM   67  C   UNK N   1      36.719  11.741   9.801  0.00  0.00     0.026 C 
HETATM   68  N   UNK N   1      34.574  12.688   9.435  0.00  0.00    -0.334 N 
HETATM   69  C   UNK N   1      33.640  11.772   9.022  0.00  0.00     0.244 C 
HETATM   70  O   UNK N   1      32.561  11.698   9.597  0.00  0.00    -0.271 OA
BRANCH  69  71
HETATM   71  C   UNK N   1      33.810  11.000   7.743  0.00  0.00     0.182 C 
BRANCH  71  72
HETATM   72  C   UNK N   1      34.271   9.553   7.742  0.00  0.00     0.009 C 
HETATM   73  C   UNK N   1      34.363   8.992   9.148  0.00  0.00     0.012 C 
HETATM   74  C   UNK N   1      35.595   9.429   7.025  0.00  0.00     0.012 C 
ENDBRANCH  71  72
BRANCH  71  75
HETATM   75  N   UNK N   1      32.825  11.371   6.734  0.00  0.00    -0.323 N 
HETATM   76  C   UNK N   1      33.028  12.299   5.761  0.00  0.00     0.360 C 
HETATM   77  O   UNK N   1      34.076  12.928   5.713  0.00  0.00    -0.239 OA
HETATM   78  H   UNK N   1      31.951  10.918   6.759  0.00  0.00     0.165 HD
BRANCH  76  79
HETATM   79  O   UNK N   1      32.055  12.519   4.840  0.00  0.00    -0.309 OA
HETATM   80  C   UNK N   1      32.328  13.005   3.582  0.00  0.00     0.215 C 
ENDBRANCH  76  79
ENDBRANCH  71  75
ENDBRANCH  69  71
ENDBRANCH  57  60
ENDBRANCH  13  49
TORSDOF 12
ENDMDL
MODEL 7
REMARK VINA RESULT:      -9.1      2.650     12.947
REMARK  12 active torsions:
REMARK  status: ('A' for Active; 'I' for Inactive)
REMARK    1  A    between atoms: C_2  and  C_4 
REMARK    2  A    between atoms: C_4  and  C_5 
REMARK    3  A    between atoms: C_4  and  N_72 
REMARK       I    between atoms: C_5  and  N_7 
REMARK    4  A    between atoms: C_15  and  C_16 
REMARK    5  A    between atoms: C_20  and  C_26 
REMARK    6  A    between atoms: C_38  and  C_40 
REMARK    7  A    between atoms: C_50  and  C_47 
REMARK       I    between atoms: N_58  and  C_59 
REMARK    8  A    between atoms: C_59  and  C_61 
REMARK    9  A    between atoms: C_61  and  C_62 
REMARK   10  A    between atoms: C_61  and  N_65 
REMARK       I    between atoms: N_65  and  C_66 
REMARK   11  A    between atoms: C_66  and  O_68 
REMARK       I    between atoms: N_72  and  C_73 
REMARK   12  A    between atoms: C_73  and  O_75 
ROOT
HETATM    1  C   UNK N   1      34.823  15.675   7.057  0.00  0.00    -0.019 C 
HETATM    2  C   UNK N   1      34.814  15.469   5.681  0.00  0.00     0.020 C 
HETATM    3  C   UNK N   1      34.025  16.291   4.869  0.00  0.00    -0.057 C 
HETATM    4  C   UNK N   1      33.349  17.390   5.418  0.00  0.00     0.007 C 
HETATM    5  C   UNK N   1      33.307  17.568   6.798  0.00  0.00     0.008 C 
HETATM    6  C   UNK N   1      33.953  16.657   7.628  0.00  0.00    -0.047 C 
HETATM    7  C   UNK N   1      33.515  16.582   9.111  0.00  0.00     0.044 C 
HETATM    8  C   UNK N   1      32.745  15.243   9.508  0.00  0.00     0.043 C 
HETATM    9  C   UNK N   1      32.058  14.653   8.312  0.00  0.00    -0.057 C 
HETATM   10  C   UNK N   1      32.683  13.600   7.645  0.00  0.00     0.007 C 
HETATM   11  C   UNK N   1      32.647  13.532   6.255  0.00  0.00     0.008 C 
HETATM   12  C   UNK N   1      32.001  14.529   5.528  0.00  0.00    -0.051 C 
HETATM   13  C   UNK N   1      31.176  15.481   6.246  0.00  0.00    -0.040 C 
HETATM   14  C   UNK N   1      31.212  15.503   7.629  0.00  0.00     0.015 C 
HETATM   15  C   UNK N   1      32.338  14.585   4.029  0.00  0.00     0.043 C 
HETATM   16  C   UNK N   1      33.432  15.667   3.641  0.00  0.00     0.043 C 
ENDROOT
BRANCH   1  17
HETATM   17  C   UNK N   1      35.561  14.823   7.975  0.00  0.00    -0.023 A 
HETATM   18  C   UNK N   1      35.972  13.653   7.383  0.00  0.00     0.044 A 
HETATM   19  C   UNK N   1      36.973  12.975   7.934  0.00  0.00     0.061 A 
HETATM   20  N   UNK N   1      37.482  11.879   7.435  0.00  0.00    -0.342 N 
HETATM   21  C   UNK N   1      37.614  13.349   9.062  0.00  0.00     0.060 A 
HETATM   22  C   UNK N   1      38.452  11.566   8.291  0.00  0.00     0.105 A 
HETATM   23  H   UNK N   1      37.210  11.398   6.620  0.00  0.00     0.167 HD
HETATM   24  N   UNK N   1      38.582  12.451   9.325  0.00  0.00    -0.342 N 
ATOM     25  HN  UNK N   1      39.246  12.435  10.100  1.00  0.00     0.167 HD
HETATM   26  C   UNK N   1      37.193  14.478   9.783  0.00  0.00     0.033 A 
HETATM   27  C   UNK N   1      36.128  15.239   9.218  0.00  0.00     0.014 A 
BRANCH  22  28
HETATM   28  C   UNK N   1      39.094  10.276   8.121  0.00  0.00     0.156 C 
HETATM   29  C   UNK N   1      40.580  10.264   7.809  0.00  0.00     0.040 C 
HETATM   30  C   UNK N   1      41.100   9.429   8.949  0.00  0.00     0.011 C 
HETATM   31  C   UNK N   1      42.423   8.717   8.787  0.00  0.00     0.007 C 
HETATM   32  C   UNK N   1      39.995   8.459   9.323  0.00  0.00     0.092 C 
HETATM   33  C   UNK N   1      42.776   8.128  10.157  0.00  0.00     0.001 C 
HETATM   34  C   UNK N   1      41.627   7.286  10.748  0.00  0.00     0.002 C 
HETATM   35  C   UNK N   1      40.296   8.053  10.756  0.00  0.00     0.026 C 
HETATM   36  N   UNK N   1      38.830   9.273   9.127  0.00  0.00    -0.334 N 
HETATM   37  C   UNK N   1      37.595   9.002   9.692  0.00  0.00     0.244 C 
HETATM   38  O   UNK N   1      37.449   7.988  10.356  0.00  0.00    -0.271 OA
BRANCH  37  39
HETATM   39  C   UNK N   1      36.435  10.005   9.655  0.00  0.00     0.182 C 
BRANCH  39  40
HETATM   40  C   UNK N   1      36.172  10.502  11.102  0.00  0.00     0.009 C 
HETATM   41  C   UNK N   1      35.175  11.644  11.192  0.00  0.00     0.012 C 
HETATM   42  C   UNK N   1      37.430  10.892  11.862  0.00  0.00     0.012 C 
ENDBRANCH  39  40
BRANCH  39  43
HETATM   43  N   UNK N   1      35.211   9.433   9.118  0.00  0.00    -0.323 N 
HETATM   44  C   UNK N   1      34.990   9.332   7.773  0.00  0.00     0.360 C 
HETATM   45  O   UNK N   1      35.871   9.629   6.978  0.00  0.00    -0.239 OA
HETATM   46  H   UNK N   1      34.522   9.110   9.741  0.00  0.00     0.165 HD
BRANCH  44  47
HETATM   47  O   UNK N   1      33.786   8.933   7.298  0.00  0.00    -0.309 OA
HETATM   48  C   UNK N   1      32.911   9.795   6.685  0.00  0.00     0.215 C 
ENDBRANCH  44  47
ENDBRANCH  39  43
ENDBRANCH  37  39
ENDBRANCH  22  28
ENDBRANCH   1  17
BRANCH  13  49
HETATM   49  C   UNK N   1      30.259  16.424   5.598  0.00  0.00     0.066 C 
HETATM   50  C   UNK N   1      29.607  17.159   6.621  0.00  0.00    -0.011 C 
HETATM   51  C   UNK N   1      28.250  16.945   6.859  0.00  0.00     0.029 C 
HETATM   52  C   UNK N   1      27.613  16.067   6.000  0.00  0.00     0.060 A 
HETATM   53  C   UNK N   1      28.192  15.601   4.873  0.00  0.00     0.057 A 
HETATM   54  N   UNK N   1      26.410  15.546   6.128  0.00  0.00    -0.342 N 
HETATM   55  C   UNK N   1      29.500  15.828   4.589  0.00  0.00     0.018 C 
HETATM   56  N   UNK N   1      27.362  14.780   4.228  0.00  0.00    -0.343 N 
HETATM   57  C   UNK N   1      26.278  14.750   5.036  0.00  0.00     0.105 A 
HETATM   58  H   UNK N   1      27.503  14.310   3.376  0.00  0.00     0.167 HD
ATOM     59  HN  UNK N   1      25.734  15.704   6.875  1.00  0.00     0.167 HD
BRANCH  57  60
HETATM   60  C   UNK N   1      24.963  14.146   4.664  0.00  0.00     0.156 C 
HETATM   61  C   UNK N   1      25.080  13.383   3.344  0.00  0.00     0.040 C 
HETATM   62  C   UNK N   1      24.964  14.496   2.317  0.00  0.00     0.011 C 
HETATM   63  C   UNK N   1      24.642  14.026   0.898  0.00  0.00     0.007 C 
HETATM   64  C   UNK N   1      23.967  15.492   2.927  0.00  0.00     0.092 C 
HETATM   65  C   UNK N   1      23.192  13.583   0.779  0.00  0.00     0.001 C 
HETATM   66  C   UNK N   1      22.288  14.739   1.178  0.00  0.00     0.002 C 
HETATM   67  C   UNK N   1      22.519  15.067   2.642  0.00  0.00     0.026 C 
HETATM   68  N   UNK N   1      24.160  15.300   4.340  0.00  0.00    -0.334 N 
HETATM   69  C   UNK N   1      23.816  16.213   5.305  0.00  0.00     0.244 C 
HETATM   70  O   UNK N   1      23.876  15.904   6.488  0.00  0.00    -0.271 OA
BRANCH  69  71
HETATM   71  C   UNK N   1      23.578  17.659   4.968  0.00  0.00     0.182 C 
BRANCH  71  72
HETATM   72  C   UNK N   1      22.183  18.259   4.978  0.00  0.00     0.009 C 
HETATM   73  C   UNK N   1      21.121  17.205   5.222  0.00  0.00     0.012 C 
HETATM   74  C   UNK N   1      21.923  18.996   3.684  0.00  0.00     0.012 C 
ENDBRANCH  71  72
BRANCH  71  75
HETATM   75  N   UNK N   1      24.663  18.522   5.419  0.00  0.00    -0.323 N 
HETATM   76  C   UNK N   1      25.749  18.854   4.672  0.00  0.00     0.360 C 
HETATM   77  O   UNK N   1      25.898  18.386   3.552  0.00  0.00    -0.239 OA
HETATM   78  H   UNK N   1      24.605  18.891   6.331  0.00  0.00     0.165 HD
BRANCH  76  79
HETATM   79  O   UNK N   1      26.667  19.714   5.181  0.00  0.00    -0.309 OA
HETATM   80  C   UNK N   1      26.310  20.874   5.832  0.00  0.00     0.215 C 
ENDBRANCH  76  79
ENDBRANCH  71  75
ENDBRANCH  69  71
ENDBRANCH  57  60
ENDBRANCH  13  49
TORSDOF 12
ENDMDL
MODEL 8
REMARK VINA RESULT:      -9.1      1.956      3.372
REMARK  12 active torsions:
REMARK  status: ('A' for Active; 'I' for Inactive)
REMARK    1  A    between atoms: C_2  and  C_4 
REMARK    2  A    between atoms: C_4  and  C_5 
REMARK    3  A    between atoms: C_4  and  N_72 
REMARK       I    between atoms: C_5  and  N_7 
REMARK    4  A    between atoms: C_15  and  C_16 
REMARK    5  A    between atoms: C_20  and  C_26 
REMARK    6  A    between atoms: C_38  and  C_40 
REMARK    7  A    between atoms: C_50  and  C_47 
REMARK       I    between atoms: N_58  and  C_59 
REMARK    8  A    between atoms: C_59  and  C_61 
REMARK    9  A    between atoms: C_61  and  C_62 
REMARK   10  A    between atoms: C_61  and  N_65 
REMARK       I    between atoms: N_65  and  C_66 
REMARK   11  A    between atoms: C_66  and  O_68 
REMARK       I    between atoms: N_72  and  C_73 
REMARK   12  A    between atoms: C_73  and  O_75 
ROOT
HETATM    1  C   UNK N   1      30.653  16.183   4.750  0.00  0.00    -0.019 C 
HETATM    2  C   UNK N   1      30.648  16.513   6.101  0.00  0.00     0.020 C 
HETATM    3  C   UNK N   1      31.783  17.106   6.666  0.00  0.00    -0.057 C 
HETATM    4  C   UNK N   1      32.865  17.478   5.857  0.00  0.00     0.007 C 
HETATM    5  C   UNK N   1      32.900  17.100   4.517  0.00  0.00     0.008 C 
HETATM    6  C   UNK N   1      31.848  16.362   3.984  0.00  0.00    -0.047 C 
HETATM    7  C   UNK N   1      32.103  15.558   2.686  0.00  0.00     0.044 C 
HETATM    8  C   UNK N   1      32.115  13.975   2.879  0.00  0.00     0.043 C 
HETATM    9  C   UNK N   1      32.511  13.615   4.281  0.00  0.00    -0.057 C 
HETATM   10  C   UNK N   1      31.503  13.299   5.191  0.00  0.00     0.007 C 
HETATM   11  C   UNK N   1      31.589  13.734   6.510  0.00  0.00     0.008 C 
HETATM   12  C   UNK N   1      32.676  14.503   6.918  0.00  0.00    -0.051 C 
HETATM   13  C   UNK N   1      33.809  14.626   6.021  0.00  0.00    -0.040 C 
HETATM   14  C   UNK N   1      33.701  14.157   4.723  0.00  0.00     0.015 C 
HETATM   15  C   UNK N   1      32.502  15.252   8.249  0.00  0.00     0.043 C 
HETATM   16  C   UNK N   1      32.083  16.774   8.097  0.00  0.00     0.043 C 
ENDROOT
BRANCH   1  17
HETATM   17  C   UNK N   1      29.542  15.503   4.103  0.00  0.00    -0.023 A 
HETATM   18  C   UNK N   1      28.762  14.811   4.999  0.00  0.00     0.044 A 
HETATM   19  C   UNK N   1      27.521  14.490   4.651  0.00  0.00     0.061 A 
HETATM   20  N   UNK N   1      26.671  13.879   5.435  0.00  0.00    -0.342 N 
HETATM   21  C   UNK N   1      26.967  14.783   3.454  0.00  0.00     0.060 A 
HETATM   22  C   UNK N   1      25.572  13.782   4.691  0.00  0.00     0.105 A 
HETATM   23  H   UNK N   1      26.813  13.563   6.356  0.00  0.00     0.167 HD
HETATM   24  N   UNK N   1      25.698  14.333   3.445  0.00  0.00    -0.342 N 
ATOM     25  HN  UNK N   1      25.005  14.388   2.699  1.00  0.00     0.167 HD
HETATM   26  C   UNK N   1      27.726  15.401   2.447  0.00  0.00     0.033 A 
HETATM   27  C   UNK N   1      29.060  15.771   2.786  0.00  0.00     0.014 A 
BRANCH  22  28
HETATM   28  C   UNK N   1      24.489  12.969   5.213  0.00  0.00     0.156 C 
HETATM   29  C   UNK N   1      24.856  11.793   6.099  0.00  0.00     0.040 C 
HETATM   30  C   UNK N   1      24.083  12.127   7.347  0.00  0.00     0.011 C 
HETATM   31  C   UNK N   1      23.722  11.012   8.302  0.00  0.00     0.007 C 
HETATM   32  C   UNK N   1      22.852  12.896   6.908  0.00  0.00     0.092 C 
HETATM   33  C   UNK N   1      23.130  11.677   9.549  0.00  0.00     0.001 C 
HETATM   34  C   UNK N   1      21.994  12.663   9.206  0.00  0.00     0.002 C 
HETATM   35  C   UNK N   1      22.419  13.680   8.135  0.00  0.00     0.026 C 
HETATM   36  N   UNK N   1      23.377  13.667   5.818  0.00  0.00    -0.334 N 
HETATM   37  C   UNK N   1      22.777  14.811   5.321  0.00  0.00     0.244 C 
HETATM   38  O   UNK N   1      21.708  15.177   5.786  0.00  0.00    -0.271 OA
BRANCH  37  39
HETATM   39  C   UNK N   1      23.473  15.737   4.316  0.00  0.00     0.182 C 
BRANCH  39  40
HETATM   40  C   UNK N   1      23.778  17.085   5.023  0.00  0.00     0.009 C 
HETATM   41  C   UNK N   1      22.906  18.239   4.558  0.00  0.00     0.012 C 
HETATM   42  C   UNK N   1      25.236  17.511   4.943  0.00  0.00     0.012 C 
ENDBRANCH  39  40
BRANCH  39  43
HETATM   43  N   UNK N   1      22.670  15.991   3.132  0.00  0.00    -0.323 N 
HETATM   44  C   UNK N   1      22.489  15.045   2.164  0.00  0.00     0.360 C 
HETATM   45  O   UNK N   1      22.919  13.910   2.321  0.00  0.00    -0.239 OA
HETATM   46  H   UNK N   1      22.244  16.872   3.024  0.00  0.00     0.165 HD
BRANCH  44  47
HETATM   47  O   UNK N   1      21.861  15.351   1.004  0.00  0.00    -0.309 OA
HETATM   48  C   UNK N   1      20.545  15.739   0.956  0.00  0.00     0.215 C 
ENDBRANCH  44  47
ENDBRANCH  39  43
ENDBRANCH  37  39
ENDBRANCH  22  28
ENDBRANCH   1  17
BRANCH  13  49
HETATM   49  C   UNK N   1      35.103  15.197   6.407  0.00  0.00     0.066 C 
HETATM   50  C   UNK N   1      35.980  15.058   5.301  0.00  0.00    -0.011 C 
HETATM   51  C   UNK N   1      37.040  14.156   5.377  0.00  0.00     0.029 C 
HETATM   52  C   UNK N   1      37.204  13.512   6.591  0.00  0.00     0.060 A 
HETATM   53  C   UNK N   1      36.528  13.871   7.704  0.00  0.00     0.057 A 
HETATM   54  N   UNK N   1      37.985  12.486   6.860  0.00  0.00    -0.342 N 
HETATM   55  C   UNK N   1      35.519  14.778   7.671  0.00  0.00     0.018 C 
HETATM   56  N   UNK N   1      36.877  13.094   8.731  0.00  0.00    -0.343 N 
HETATM   57  C   UNK N   1      37.763  12.237   8.175  0.00  0.00     0.105 A 
HETATM   58  H   UNK N   1      36.566  13.134   9.663  0.00  0.00     0.167 HD
ATOM     59  HN  UNK N   1      38.613  11.992   6.225  1.00  0.00     0.167 HD
BRANCH  57  60
HETATM   60  C   UNK N   1      38.626  11.294   8.949  0.00  0.00     0.156 C 
HETATM   61  C   UNK N   1      38.467   9.869   8.420  0.00  0.00     0.040 C 
HETATM   62  C   UNK N   1      37.191   9.410   9.105  0.00  0.00     0.011 C 
HETATM   63  C   UNK N   1      36.970   7.897   9.102  0.00  0.00     0.007 C 
HETATM   64  C   UNK N   1      37.229  10.071  10.491  0.00  0.00     0.092 C 
HETATM   65  C   UNK N   1      37.905   7.202  10.080  0.00  0.00     0.001 C 
HETATM   66  C   UNK N   1      37.677   7.772  11.471  0.00  0.00     0.002 C 
HETATM   67  C   UNK N   1      38.066   9.240  11.475  0.00  0.00     0.026 C 
HETATM   68  N   UNK N   1      37.990  11.267  10.244  0.00  0.00    -0.334 N 
HETATM   69  C   UNK N   1      37.965  12.384  11.040  0.00  0.00     0.244 C 
HETATM   70  O   UNK N   1      38.758  13.296  10.839  0.00  0.00    -0.271 OA
BRANCH  69  71
HETATM   71  C   UNK N   1      36.849  12.627  12.018  0.00  0.00     0.182 C 
BRANCH  71  72
HETATM   72  C   UNK N   1      36.874  12.037  13.417  0.00  0.00     0.009 C 
HETATM   73  C   UNK N   1      35.709  11.094  13.650  0.00  0.00     0.012 C 
HETATM   74  C   UNK N   1      36.888  13.141  14.449  0.00  0.00     0.012 C 
ENDBRANCH  71  72
BRANCH  71  75
HETATM   75  N   UNK N   1      36.269  13.957  11.882  0.00  0.00    -0.323 N 
HETATM   76  C   UNK N   1      35.087  14.226  11.266  0.00  0.00     0.360 C 
HETATM   77  O   UNK N   1      34.449  13.330  10.731  0.00  0.00    -0.239 OA
HETATM   78  H   UNK N   1      36.768  14.716  12.263  0.00  0.00     0.165 HD
BRANCH  76  79
HETATM   79  O   UNK N   1      34.620  15.501  11.251  0.00  0.00    -0.309 OA
HETATM   80  C   UNK N   1      35.379  16.558  10.802  0.00  0.00     0.215 C 
ENDBRANCH  76  79
ENDBRANCH  71  75
ENDBRANCH  69  71
ENDBRANCH  57  60
ENDBRANCH  13  49
TORSDOF 12
ENDMDL
MODEL 9
REMARK VINA RESULT:      -9.0     13.695     20.218
REMARK  12 active torsions:
REMARK  status: ('A' for Active; 'I' for Inactive)
REMARK    1  A    between atoms: C_2  and  C_4 
REMARK    2  A    between atoms: C_4  and  C_5 
REMARK    3  A    between atoms: C_4  and  N_72 
REMARK       I    between atoms: C_5  and  N_7 
REMARK    4  A    between atoms: C_15  and  C_16 
REMARK    5  A    between atoms: C_20  and  C_26 
REMARK    6  A    between atoms: C_38  and  C_40 
REMARK    7  A    between atoms: C_50  and  C_47 
REMARK       I    between atoms: N_58  and  C_59 
REMARK    8  A    between atoms: C_59  and  C_61 
REMARK    9  A    between atoms: C_61  and  C_62 
REMARK   10  A    between atoms: C_61  and  N_65 
REMARK       I    between atoms: N_65  and  C_66 
REMARK   11  A    between atoms: C_66  and  O_68 
REMARK       I    between atoms: N_72  and  C_73 
REMARK   12  A    between atoms: C_73  and  O_75 
ROOT
HETATM    1  C   UNK N   1      35.573  20.967  -4.860  0.00  0.00    -0.019 C 
HETATM    2  C   UNK N   1      34.889  21.272  -3.688  0.00  0.00     0.020 C 
HETATM    3  C   UNK N   1      33.724  20.564  -3.370  0.00  0.00    -0.057 C 
HETATM    4  C   UNK N   1      33.319  19.477  -4.157  0.00  0.00     0.007 C 
HETATM    5  C   UNK N   1      33.966  19.204  -5.360  0.00  0.00     0.008 C 
HETATM    6  C   UNK N   1      35.025  20.008  -5.767  0.00  0.00    -0.047 C 
HETATM    7  C   UNK N   1      35.408  20.006  -7.268  0.00  0.00     0.044 C 
HETATM    8  C   UNK N   1      35.075  21.362  -8.039  0.00  0.00     0.043 C 
HETATM    9  C   UNK N   1      33.935  22.080  -7.378  0.00  0.00    -0.057 C 
HETATM   10  C   UNK N   1      34.232  23.134  -6.514  0.00  0.00     0.007 C 
HETATM   11  C   UNK N   1      33.504  23.303  -5.340  0.00  0.00     0.008 C 
HETATM   12  C   UNK N   1      32.488  22.406  -5.018  0.00  0.00    -0.051 C 
HETATM   13  C   UNK N   1      32.055  21.463  -6.030  0.00  0.00    -0.040 C 
HETATM   14  C   UNK N   1      32.785  21.339  -7.199  0.00  0.00     0.015 C 
HETATM   15  C   UNK N   1      32.013  22.434  -3.556  0.00  0.00     0.043 C 
HETATM   16  C   UNK N   1      32.653  21.312  -2.635  0.00  0.00     0.043 C 
ENDROOT
BRANCH   1  17
HETATM   17  C   UNK N   1      36.751  21.701  -5.295  0.00  0.00    -0.023 A 
HETATM   18  C   UNK N   1      36.893  22.898  -4.635  0.00  0.00     0.044 A 
HETATM   19  C   UNK N   1      38.087  23.477  -4.611  0.00  0.00     0.061 A 
HETATM   20  N   UNK N   1      38.355  24.588  -3.975  0.00  0.00    -0.342 N 
HETATM   21  C   UNK N   1      39.188  22.977  -5.214  0.00  0.00     0.060 A 
HETATM   22  C   UNK N   1      39.651  24.779  -4.209  0.00  0.00     0.105 A 
HETATM   23  H   UNK N   1      37.741  25.151  -3.450  0.00  0.00     0.167 HD
HETATM   24  N   UNK N   1      40.224  23.802  -4.975  0.00  0.00    -0.342 N 
ATOM     25  HN  UNK N   1      41.192  23.719  -5.285  1.00  0.00     0.167 HD
HETATM   26  C   UNK N   1      39.108  21.809  -5.991  0.00  0.00     0.033 A 
HETATM   27  C   UNK N   1      37.844  21.152  -6.032  0.00  0.00     0.014 A 
BRANCH  22  28
HETATM   28  C   UNK N   1      40.218  26.048  -3.792  0.00  0.00     0.156 C 
HETATM   29  C   UNK N   1      39.615  27.314  -4.373  0.00  0.00     0.040 C 
HETATM   30  C   UNK N   1      39.215  28.039  -3.116  0.00  0.00     0.011 C 
HETATM   31  C   UNK N   1      39.052  29.541  -3.161  0.00  0.00     0.007 C 
HETATM   32  C   UNK N   1      40.197  27.624  -2.038  0.00  0.00     0.092 C 
HETATM   33  C   UNK N   1      38.455  29.959  -1.813  0.00  0.00     0.001 C 
HETATM   34  C   UNK N   1      39.258  29.404  -0.618  0.00  0.00     0.002 C 
HETATM   35  C   UNK N   1      39.477  27.887  -0.727  0.00  0.00     0.026 C 
HETATM   36  N   UNK N   1      40.416  26.246  -2.374  0.00  0.00    -0.334 N 
HETATM   37  C   UNK N   1      40.920  25.306  -1.491  0.00  0.00     0.244 C 
HETATM   38  O   UNK N   1      41.257  25.657  -0.371  0.00  0.00    -0.271 OA
BRANCH  37  39
HETATM   39  C   UNK N   1      40.927  23.805  -1.802  0.00  0.00     0.182 C 
BRANCH  39  40
HETATM   40  C   UNK N   1      39.922  23.103  -0.849  0.00  0.00     0.009 C 
HETATM   41  C   UNK N   1      40.562  22.494   0.387  0.00  0.00     0.012 C 
HETATM   42  C   UNK N   1      39.063  22.045  -1.524  0.00  0.00     0.012 C 
ENDBRANCH  39  40
BRANCH  39  43
HETATM   43  N   UNK N   1      42.238  23.200  -1.640  0.00  0.00    -0.323 N 
HETATM   44  C   UNK N   1      42.718  22.270  -2.518  0.00  0.00     0.360 C 
HETATM   45  O   UNK N   1      42.092  21.994  -3.532  0.00  0.00    -0.239 OA
HETATM   46  H   UNK N   1      42.797  23.468  -0.876  0.00  0.00     0.165 HD
BRANCH  44  47
HETATM   47  O   UNK N   1      43.877  21.614  -2.267  0.00  0.00    -0.309 OA
HETATM   48  C   UNK N   1      44.130  20.351  -2.743  0.00  0.00     0.215 C 
ENDBRANCH  44  47
ENDBRANCH  39  43
ENDBRANCH  37  39
ENDBRANCH  22  28
ENDBRANCH   1  17
BRANCH  13  49
HETATM   49  C   UNK N   1      30.852  20.632  -5.915  0.00  0.00     0.066 C 
HETATM   50  C   UNK N   1      30.905  19.658  -6.945  0.00  0.00    -0.011 C 
HETATM   51  C   UNK N   1      30.010  19.739  -8.011  0.00  0.00     0.029 C 
HETATM   52  C   UNK N   1      29.062  20.745  -7.933  0.00  0.00     0.060 A 
HETATM   53  C   UNK N   1      28.863  21.475  -6.815  0.00  0.00     0.057 A 
HETATM   54  N   UNK N   1      28.247  21.158  -8.882  0.00  0.00    -0.342 N 
HETATM   55  C   UNK N   1      29.691  21.387  -5.743  0.00  0.00     0.018 C 
HETATM   56  N   UNK N   1      27.892  22.368  -7.008  0.00  0.00    -0.343 N 
HETATM   57  C   UNK N   1      27.543  22.161  -8.298  0.00  0.00     0.105 A 
HETATM   58  H   UNK N   1      27.520  23.018  -6.370  0.00  0.00     0.167 HD
ATOM     59  HN  UNK N   1      28.163  20.805  -9.836  1.00  0.00     0.167 HD
BRANCH  57  60
HETATM   60  C   UNK N   1      26.340  22.757  -8.955  0.00  0.00     0.156 C 
HETATM   61  C   UNK N   1      26.587  22.944 -10.452  0.00  0.00     0.040 C 
HETATM   62  C   UNK N   1      27.368  24.247 -10.490  0.00  0.00     0.011 C 
HETATM   63  C   UNK N   1      27.423  24.920 -11.862  0.00  0.00     0.007 C 
HETATM   64  C   UNK N   1      26.771  25.097  -9.358  0.00  0.00     0.092 C 
HETATM   65  C   UNK N   1      26.088  25.554 -12.219  0.00  0.00     0.001 C 
HETATM   66  C   UNK N   1      25.716  26.562 -11.144  0.00  0.00     0.002 C 
HETATM   67  C   UNK N   1      25.506  25.831  -9.829  0.00  0.00     0.026 C 
HETATM   68  N   UNK N   1      26.319  24.099  -8.426  0.00  0.00    -0.334 N 
HETATM   69  C   UNK N   1      26.086  24.328  -7.093  0.00  0.00     0.244 C 
HETATM   70  O   UNK N   1      25.559  23.461  -6.407  0.00  0.00    -0.271 OA
BRANCH  69  71
HETATM   71  C   UNK N   1      26.659  25.528  -6.390  0.00  0.00     0.182 C 
BRANCH  71  72
HETATM   72  C   UNK N   1      26.005  26.894  -6.488  0.00  0.00     0.009 C 
HETATM   73  C   UNK N   1      26.989  28.011  -6.194  0.00  0.00     0.012 C 
HETATM   74  C   UNK N   1      24.813  26.969  -5.563  0.00  0.00     0.012 C 
ENDBRANCH  71  72
BRANCH  71  75
HETATM   75  N   UNK N   1      27.268  25.186  -5.110  0.00  0.00    -0.323 N 
HETATM   76  C   UNK N   1      28.589  24.922  -4.929  0.00  0.00     0.360 C 
HETATM   77  O   UNK N   1      29.356  24.911  -5.881  0.00  0.00    -0.239 OA
HETATM   78  H   UNK N   1      26.680  25.143  -4.321  0.00  0.00     0.165 HD
BRANCH  76  79
HETATM   79  O   UNK N   1      29.050  24.671  -3.677  0.00  0.00    -0.309 OA
HETATM   80  C   UNK N   1      28.604  23.605  -2.927  0.00  0.00     0.215 C 
ENDBRANCH  76  79
ENDBRANCH  71  75
ENDBRANCH  69  71
ENDBRANCH  57  60
ENDBRANCH  13  49
TORSDOF 12
ENDMDL
