REMARK  16 active torsions:
REMARK  status: ('A' for Active; 'I' for Inactive)
REMARK    1  A    between atoms: C_3  and  C_4 
REMARK    2  A    between atoms: C_4  and  C_5 
REMARK    3  A    between atoms: C_5  and  C_6 
REMARK    4  A    between atoms: C_5  and  O_38 
REMARK    5  A    between atoms: C_6  and  C_7 
REMARK    6  A    between atoms: C_8  and  N_9 
REMARK       I    between atoms: N_9  and  C_10 
REMARK    7  A    between atoms: C_10  and  C_12 
REMARK    8  A    between atoms: C_12  and  C_13 
REMARK    9  A    between atoms: C_12  and  N_17 
REMARK       I    between atoms: N_17  and  C_18 
REMARK   10  A    between atoms: C_18  and  C_20 
REMARK   11  A    between atoms: C_21  and  C_22 
REMARK   12  A    between atoms: C_23  and  C_24 
REMARK   13  A    between atoms: C_25  and  C_26 
REMARK   14  A    between atoms: C_28  and  C_26 
REMARK   15  A    between atoms: C_31  and  O_35 
REMARK   16  A    between atoms: O_38  and  C_39 
REMARK       I    between atoms: C_39  and  N_41 
ROOT
HETATM    1  C   UNK N   1       0.281  -5.643  -0.035  0.00  0.00     0.184 C 
ENDROOT
BRANCH   1   2
HETATM    2  C   UNK N   1       1.430  -6.426  -0.618  0.00  0.00     0.245 C 
HETATM    3  N   UNK N   1       2.606  -6.527   0.058  0.00  0.00    -0.336 N 
HETATM    4  H   UNK N   1       2.624  -6.195   0.985  0.00  0.00     0.168 HD
HETATM    5  O   UNK N   1       1.319  -6.863  -1.752  0.00  0.00    -0.271 OA
BRANCH   3   6
HETATM    6  C   UNK N   1       3.820  -7.075  -0.465  0.00  0.00     0.087 C 
HETATM    7  C   UNK N   1       3.932  -8.199  -1.197  0.00  0.00    -0.007 C 
BRANCH   7   8
HETATM    8  C   UNK N   1       2.815  -9.148  -1.506  0.00  0.00     0.061 C 
BRANCH   8   9
HETATM    9  C   UNK N   1       2.363  -9.888  -0.259  0.00  0.00     0.140 C 
BRANCH   9  10
HETATM   10  C   UNK N   1       1.100 -10.659  -0.603  0.00  0.00     0.059 C 
BRANCH  10  11
HETATM   11  C   UNK N   1       0.496 -11.273   0.621  0.00  0.00    -0.028 C 
HETATM   12  C   UNK N   1      -0.826 -11.384   0.789  0.00  0.00    -0.035 C 
HETATM   13  C   UNK N   1      -1.811 -10.920  -0.235  0.00  0.00     0.036 C 
ENDBRANCH  10  11
ENDBRANCH   9  10
BRANCH   9  14
HETATM   14  O   UNK N   1       3.349 -10.766   0.144  0.00  0.00    -0.298 OA
BRANCH  14  15
HETATM   15  C   UNK N   1       4.241 -10.482   1.125  0.00  0.00     0.358 C 
HETATM   16  O   UNK N   1       4.261  -9.373   1.650  0.00  0.00    -0.239 OA
HETATM   17  N   UNK N   1       5.133 -11.410   1.507  0.00  0.00    -0.346 N 
HETATM   18  H   UNK N   1       4.870 -12.317   1.787  0.00  0.00     0.161 HD
HETATM   19  H   UNK N   1       6.089 -11.175   1.507  0.00  0.00     0.161 HD
ENDBRANCH  14  15
ENDBRANCH   9  14
ENDBRANCH   8   9
ENDBRANCH   7   8
ENDBRANCH   3   6
ENDBRANCH   1   2
BRANCH   1  20
HETATM   20  C   UNK N   1       0.599  -4.166   0.283  0.00  0.00    -0.022 C 
HETATM   21  C   UNK N   1      -0.683  -3.409   0.570  0.00  0.00     0.017 C 
HETATM   22  C   UNK N   1       1.262  -3.502  -0.913  0.00  0.00     0.017 C 
HETATM   23  C   UNK N   1       1.513  -4.036   1.489  0.00  0.00     0.017 C 
ENDBRANCH   1  20
BRANCH   1  24
HETATM   24  N   UNK N   1      -0.370  -6.331   1.064  0.00  0.00    -0.344 N 
HETATM   25  C   UNK N   1      -1.282  -7.326   0.877  0.00  0.00     0.241 C 
HETATM   26  O   UNK N   1      -1.737  -7.906   1.849  0.00  0.00    -0.269 OA
HETATM   27  H   UNK N   1      -0.143  -6.067   1.985  0.00  0.00     0.163 HD
BRANCH  25  28
HETATM   28  C   UNK N   1      -1.700  -7.773  -0.482  0.00  0.00     0.074 C 
HETATM   29  C   UNK N   1      -2.084  -6.942  -1.465  0.00  0.00     0.005 C 
BRANCH  29  30
HETATM   30  C   UNK N   1      -2.361  -5.521  -1.194  0.00  0.00     0.001 C 
HETATM   31  C   UNK N   1      -3.422  -5.104  -0.487  0.00  0.00     0.006 C 
BRANCH  31  32
HETATM   32  C   UNK N   1      -4.599  -5.927  -0.125  0.00  0.00    -0.065 C 
HETATM   33  C   UNK N   1      -5.502  -5.376   0.696  0.00  0.00    -0.013 C 
HETATM   34  C   UNK N   1      -4.902  -7.207  -0.853  0.00  0.00     0.048 C 
BRANCH  33  35
HETATM   35  C   UNK N   1      -6.898  -5.911   0.904  0.00  0.00     0.034 C 
HETATM   36  C   UNK N   1      -6.911  -7.326   1.467  0.00  0.00     0.017 C 
BRANCH  35  37
HETATM   37  C   UNK N   1      -7.648  -5.810  -0.438  0.00  0.00     0.143 C 
HETATM   38  C   UNK N   1      -9.152  -6.080  -0.291  0.00  0.00     0.063 C 
HETATM   39  C   UNK N   1      -9.885  -4.875   0.248  0.00  0.00     0.019 C 
HETATM   40  C   UNK N   1      -9.383  -3.630   0.115  0.00  0.00     0.140 C 
HETATM   41  C   UNK N   1      -8.088  -3.464  -0.573  0.00  0.00     0.316 C 
HETATM   42  O   UNK N   1      -7.626  -2.351  -0.773  0.00  0.00    -0.257 OA
HETATM   43  O   UNK N   1      -7.424  -4.562  -1.004  0.00  0.00    -0.310 OA
BRANCH  40  44
HETATM   44  O   UNK N   1     -10.048  -2.537   0.569  0.00  0.00    -0.350 OA
HETATM   45  C   UNK N   1     -11.292  -2.598   1.155  0.00  0.00     0.210 C 
ENDBRANCH  40  44
ENDBRANCH  35  37
ENDBRANCH  33  35
ENDBRANCH  31  32
ENDBRANCH  29  30
ENDBRANCH  25  28
ENDBRANCH   1  24
TORSDOF 16
