MODEL 1
REMARK VINA RESULT:      -3.9      0.000      0.000
REMARK  5 active torsions:
REMARK  status: ('A' for Active; 'I' for Inactive)
REMARK    1  A    between atoms: C_1  and  C_2 
REMARK    2  A    between atoms: C_1  and  C_5 
REMARK    3  A    between atoms: C_5  and  S_6 
REMARK    4  A    between atoms: S_6  and  C_7 
REMARK    5  A    between atoms: C_7  and  N_10 
ROOT
HETATM    1  C   UNK N   1      33.108  17.243   8.095  0.00  0.00     0.124 C 
HETATM    2  C   UNK N   1      34.163  18.237   8.244  0.00  0.00     0.059 C 
HETATM    3  N   UNK N   1      34.982  19.050   8.335  0.00  0.00    -0.197 NA
ENDROOT
BRANCH   1   4
HETATM    4  C   UNK N   1      31.842  17.970   8.458  0.00  0.00     0.025 C 
BRANCH   4   5
HETATM    5  C   UNK N   1      30.656  17.054   8.521  0.00  0.00     0.083 C 
BRANCH   5   6
HETATM    6  S   UNK N   1      29.548  17.596   7.195  0.00  0.00    -0.095 SA
BRANCH   6   7
HETATM    7  C   UNK N   1      28.035  17.513   8.153  0.00  0.00     0.131 C 
HETATM    8  N   UNK N   1      27.870  18.329   9.124  0.00  0.00    -0.380 N 
HETATM    9  H   UNK N   1      27.045  18.295   9.660  0.00  0.00     0.158 HD
ATOM     10  HN  UNK N   1      28.592  19.016   9.342  1.00  0.00     0.158 HD
BRANCH   7  11
HETATM   11  N   UNK N   1      27.030  16.565   7.857  0.00  0.00    -0.380 N 
HETATM   12  H   UNK N   1      26.084  16.780   8.024  0.00  0.00     0.158 HD
HETATM   13  H   UNK N   1      27.276  15.688   7.482  0.00  0.00     0.158 HD
ENDBRANCH   7  11
ENDBRANCH   6   7
ENDBRANCH   5   6
ENDBRANCH   4   5
ENDBRANCH   1   4
TORSDOF 5
ENDMDL
MODEL 2
REMARK VINA RESULT:      -3.8      4.224      4.991
REMARK  5 active torsions:
REMARK  status: ('A' for Active; 'I' for Inactive)
REMARK    1  A    between atoms: C_1  and  C_2 
REMARK    2  A    between atoms: C_1  and  C_5 
REMARK    3  A    between atoms: C_5  and  S_6 
REMARK    4  A    between atoms: S_6  and  C_7 
REMARK    5  A    between atoms: C_7  and  N_10 
ROOT
HETATM    1  C   UNK N   1      33.257  17.602   7.742  0.00  0.00     0.124 C 
HETATM    2  C   UNK N   1      34.362  18.450   8.169  0.00  0.00     0.059 C 
HETATM    3  N   UNK N   1      35.266  19.097   8.490  0.00  0.00    -0.197 NA
ENDROOT
BRANCH   1   4
HETATM    4  C   UNK N   1      33.379  17.537   6.244  0.00  0.00     0.025 C 
BRANCH   4   5
HETATM    5  C   UNK N   1      32.110  17.080   5.587  0.00  0.00     0.083 C 
BRANCH   5   6
HETATM    6  S   UNK N   1      32.509  15.500   4.796  0.00  0.00    -0.095 SA
BRANCH   6   7
HETATM    7  C   UNK N   1      32.740  16.157   3.145  0.00  0.00     0.131 C 
HETATM    8  N   UNK N   1      33.613  15.621   2.380  0.00  0.00    -0.380 N 
HETATM    9  H   UNK N   1      33.753  15.972   1.471  0.00  0.00     0.158 HD
ATOM     10  HN  UNK N   1      34.166  14.830   2.712  1.00  0.00     0.158 HD
BRANCH   7  11
HETATM   11  N   UNK N   1      31.979  17.253   2.678  0.00  0.00    -0.380 N 
HETATM   12  H   UNK N   1      32.404  18.132   2.553  0.00  0.00     0.158 HD
HETATM   13  H   UNK N   1      31.022  17.137   2.477  0.00  0.00     0.158 HD
ENDBRANCH   7  11
ENDBRANCH   6   7
ENDBRANCH   5   6
ENDBRANCH   4   5
ENDBRANCH   1   4
TORSDOF 5
ENDMDL
MODEL 3
REMARK VINA RESULT:      -3.8      0.952      1.182
REMARK  5 active torsions:
REMARK  status: ('A' for Active; 'I' for Inactive)
REMARK    1  A    between atoms: C_1  and  C_2 
REMARK    2  A    between atoms: C_1  and  C_5 
REMARK    3  A    between atoms: C_5  and  S_6 
REMARK    4  A    between atoms: S_6  and  C_7 
REMARK    5  A    between atoms: C_7  and  N_10 
ROOT
HETATM    1  C   UNK N   1      33.047  17.192   8.633  0.00  0.00     0.124 C 
HETATM    2  C   UNK N   1      34.115  18.122   8.293  0.00  0.00     0.059 C 
HETATM    3  N   UNK N   1      34.962  18.848   7.983  0.00  0.00    -0.197 NA
ENDROOT
BRANCH   1   4
HETATM    4  C   UNK N   1      31.902  17.576   7.736  0.00  0.00     0.025 C 
BRANCH   4   5
HETATM    5  C   UNK N   1      30.585  17.563   8.452  0.00  0.00     0.083 C 
BRANCH   5   6
HETATM    6  S   UNK N   1      29.322  17.502   7.155  0.00  0.00    -0.095 SA
BRANCH   6   7
HETATM    7  C   UNK N   1      28.132  18.554   7.986  0.00  0.00     0.131 C 
HETATM    8  N   UNK N   1      27.839  18.315   9.208  0.00  0.00    -0.380 N 
HETATM    9  H   UNK N   1      27.186  18.882   9.677  0.00  0.00     0.158 HD
ATOM     10  HN  UNK N   1      28.280  17.536   9.696  1.00  0.00     0.158 HD
BRANCH   7  11
HETATM   11  N   UNK N   1      27.516  19.636   7.317  0.00  0.00    -0.380 N 
HETATM   12  H   UNK N   1      27.174  19.518   6.401  0.00  0.00     0.158 HD
HETATM   13  H   UNK N   1      27.429  20.507   7.766  0.00  0.00     0.158 HD
ENDBRANCH   7  11
ENDBRANCH   6   7
ENDBRANCH   5   6
ENDBRANCH   4   5
ENDBRANCH   1   4
TORSDOF 5
ENDMDL
MODEL 4
REMARK VINA RESULT:      -3.7      9.817     10.926
REMARK  5 active torsions:
REMARK  status: ('A' for Active; 'I' for Inactive)
REMARK    1  A    between atoms: C_1  and  C_2 
REMARK    2  A    between atoms: C_1  and  C_5 
REMARK    3  A    between atoms: C_5  and  S_6 
REMARK    4  A    between atoms: S_6  and  C_7 
REMARK    5  A    between atoms: C_7  and  N_10 
ROOT
HETATM    1  C   UNK N   1      19.945  15.072   9.066  0.00  0.00     0.124 C 
HETATM    2  C   UNK N   1      20.236  16.434   8.638  0.00  0.00     0.059 C 
HETATM    3  N   UNK N   1      20.491  17.520   8.331  0.00  0.00    -0.197 NA
ENDROOT
BRANCH   1   4
HETATM    4  C   UNK N   1      21.287  14.397   9.139  0.00  0.00     0.025 C 
BRANCH   4   5
HETATM    5  C   UNK N   1      21.318  13.296  10.157  0.00  0.00     0.083 C 
BRANCH   5   6
HETATM    6  S   UNK N   1      22.621  12.162   9.613  0.00  0.00    -0.095 SA
BRANCH   6   7
HETATM    7  C   UNK N   1      23.463  12.054  11.192  0.00  0.00     0.131 C 
HETATM    8  N   UNK N   1      22.804  11.686  12.223  0.00  0.00    -0.380 N 
HETATM    9  H   UNK N   1      23.252  11.624  13.097  0.00  0.00     0.158 HD
ATOM     10  HN  UNK N   1      21.813  11.456  12.141  1.00  0.00     0.158 HD
BRANCH   7  11
HETATM   11  N   UNK N   1      24.835  12.371  11.314  0.00  0.00    -0.380 N 
HETATM   12  H   UNK N   1      25.481  12.028  10.654  0.00  0.00     0.158 HD
HETATM   13  H   UNK N   1      25.146  12.934  12.059  0.00  0.00     0.158 HD
ENDBRANCH   7  11
ENDBRANCH   6   7
ENDBRANCH   5   6
ENDBRANCH   4   5
ENDBRANCH   1   4
TORSDOF 5
ENDMDL
MODEL 5
REMARK VINA RESULT:      -3.7      7.025      8.091
REMARK  5 active torsions:
REMARK  status: ('A' for Active; 'I' for Inactive)
REMARK    1  A    between atoms: C_1  and  C_2 
REMARK    2  A    between atoms: C_1  and  C_5 
REMARK    3  A    between atoms: C_5  and  S_6 
REMARK    4  A    between atoms: S_6  and  C_7 
REMARK    5  A    between atoms: C_7  and  N_10 
ROOT
HETATM    1  C   UNK N   1      36.577  13.410  14.845  0.00  0.00     0.124 C 
HETATM    2  C   UNK N   1      35.245  13.158  15.380  0.00  0.00     0.059 C 
HETATM    3  N   UNK N   1      34.183  13.000  15.812  0.00  0.00    -0.197 NA
ENDROOT
BRANCH   1   4
HETATM    4  C   UNK N   1      36.357  14.357  13.697  0.00  0.00     0.025 C 
BRANCH   4   5
HETATM    5  C   UNK N   1      35.612  13.718  12.563  0.00  0.00     0.083 C 
BRANCH   5   6
HETATM    6  S   UNK N   1      36.203  14.542  11.063  0.00  0.00    -0.095 SA
BRANCH   6   7
HETATM    7  C   UNK N   1      34.795  15.635  10.869  0.00  0.00     0.131 C 
HETATM    8  N   UNK N   1      34.990  16.898  10.833  0.00  0.00    -0.380 N 
HETATM    9  H   UNK N   1      34.227  17.511  10.729  0.00  0.00     0.158 HD
ATOM     10  HN  UNK N   1      35.936  17.271  10.913  1.00  0.00     0.158 HD
BRANCH   7  11
HETATM   11  N   UNK N   1      33.481  15.125  10.758  0.00  0.00    -0.380 N 
HETATM   12  H   UNK N   1      33.210  14.634   9.949  0.00  0.00     0.158 HD
HETATM   13  H   UNK N   1      32.837  15.262  11.490  0.00  0.00     0.158 HD
ENDBRANCH   7  11
ENDBRANCH   6   7
ENDBRANCH   5   6
ENDBRANCH   4   5
ENDBRANCH   1   4
TORSDOF 5
ENDMDL
MODEL 6
REMARK VINA RESULT:      -3.6      8.789      9.853
REMARK  5 active torsions:
REMARK  status: ('A' for Active; 'I' for Inactive)
REMARK    1  A    between atoms: C_1  and  C_2 
REMARK    2  A    between atoms: C_1  and  C_5 
REMARK    3  A    between atoms: C_5  and  S_6 
REMARK    4  A    between atoms: S_6  and  C_7 
REMARK    5  A    between atoms: C_7  and  N_10 
ROOT
HETATM    1  C   UNK N   1      34.112  10.550  14.664  0.00  0.00     0.124 C 
HETATM    2  C   UNK N   1      34.288  11.925  15.112  0.00  0.00     0.059 C 
HETATM    3  N   UNK N   1      34.464  13.018  15.447  0.00  0.00    -0.197 NA
ENDROOT
BRANCH   1   4
HETATM    4  C   UNK N   1      34.145  10.628  13.162  0.00  0.00     0.025 C 
BRANCH   4   5
HETATM    5  C   UNK N   1      35.508  10.969  12.637  0.00  0.00     0.083 C 
BRANCH   5   6
HETATM    6  S   UNK N   1      35.291  12.468  11.645  0.00  0.00    -0.095 SA
BRANCH   6   7
HETATM    7  C   UNK N   1      36.746  13.320  12.252  0.00  0.00     0.131 C 
HETATM    8  N   UNK N   1      37.872  13.107  11.684  0.00  0.00    -0.380 N 
HETATM    9  H   UNK N   1      38.681  13.566  12.007  0.00  0.00     0.158 HD
ATOM     10  HN  UNK N   1      37.933  12.461  10.897  1.00  0.00     0.158 HD
BRANCH   7  11
HETATM   11  N   UNK N   1      36.670  14.217  13.342  0.00  0.00    -0.380 N 
HETATM   12  H   UNK N   1      35.828  14.313  13.844  0.00  0.00     0.158 HD
HETATM   13  H   UNK N   1      37.459  14.747  13.599  0.00  0.00     0.158 HD
ENDBRANCH   7  11
ENDBRANCH   6   7
ENDBRANCH   5   6
ENDBRANCH   4   5
ENDBRANCH   1   4
TORSDOF 5
ENDMDL
MODEL 7
REMARK VINA RESULT:      -3.5      9.019     10.592
REMARK  5 active torsions:
REMARK  status: ('A' for Active; 'I' for Inactive)
REMARK    1  A    between atoms: C_1  and  C_2 
REMARK    2  A    between atoms: C_1  and  C_5 
REMARK    3  A    between atoms: C_5  and  S_6 
REMARK    4  A    between atoms: S_6  and  C_7 
REMARK    5  A    between atoms: C_7  and  N_10 
ROOT
HETATM    1  C   UNK N   1      21.361  14.616   8.505  0.00  0.00     0.124 C 
HETATM    2  C   UNK N   1      20.696  13.881   9.573  0.00  0.00     0.059 C 
HETATM    3  N   UNK N   1      20.152  13.271  10.392  0.00  0.00    -0.197 NA
ENDROOT
BRANCH   1   4
HETATM    4  C   UNK N   1      22.226  13.597   7.817  0.00  0.00     0.025 C 
BRANCH   4   5
HETATM    5  C   UNK N   1      23.572  13.459   8.466  0.00  0.00     0.083 C 
BRANCH   5   6
HETATM    6  S   UNK N   1      23.725  11.710   8.909  0.00  0.00    -0.095 SA
BRANCH   6   7
HETATM    7  C   UNK N   1      23.832  11.962  10.681  0.00  0.00     0.131 C 
HETATM    8  N   UNK N   1      24.878  12.513  11.168  0.00  0.00    -0.380 N 
HETATM    9  H   UNK N   1      24.952  12.656  12.138  0.00  0.00     0.158 HD
ATOM     10  HN  UNK N   1      25.637  12.803  10.550  1.00  0.00     0.158 HD
BRANCH   7  11
HETATM   11  N   UNK N   1      22.785  11.563  11.543  0.00  0.00    -0.380 N 
HETATM   12  H   UNK N   1      22.326  10.704  11.396  0.00  0.00     0.158 HD
HETATM   13  H   UNK N   1      22.515  12.143  12.290  0.00  0.00     0.158 HD
ENDBRANCH   7  11
ENDBRANCH   6   7
ENDBRANCH   5   6
ENDBRANCH   4   5
ENDBRANCH   1   4
TORSDOF 5
ENDMDL
MODEL 8
REMARK VINA RESULT:      -3.5      7.177      8.047
REMARK  5 active torsions:
REMARK  status: ('A' for Active; 'I' for Inactive)
REMARK    1  A    between atoms: C_1  and  C_2 
REMARK    2  A    between atoms: C_1  and  C_5 
REMARK    3  A    between atoms: C_5  and  S_6 
REMARK    4  A    between atoms: S_6  and  C_7 
REMARK    5  A    between atoms: C_7  and  N_10 
ROOT
HETATM    1  C   UNK N   1      36.753  13.371  14.885  0.00  0.00     0.124 C 
HETATM    2  C   UNK N   1      37.172  14.585  15.574  0.00  0.00     0.059 C 
HETATM    3  N   UNK N   1      37.518  15.564  16.085  0.00  0.00    -0.197 NA
ENDROOT
BRANCH   1   4
HETATM    4  C   UNK N   1      35.762  13.837  13.854  0.00  0.00     0.025 C 
BRANCH   4   5
HETATM    5  C   UNK N   1      36.349  13.879  12.474  0.00  0.00     0.083 C 
BRANCH   5   6
HETATM    6  S   UNK N   1      35.641  15.347  11.685  0.00  0.00    -0.095 SA
BRANCH   6   7
HETATM    7  C   UNK N   1      34.268  14.506  10.896  0.00  0.00     0.131 C 
HETATM    8  N   UNK N   1      34.396  13.273  10.578  0.00  0.00    -0.380 N 
HETATM    9  H   UNK N   1      33.652  12.799  10.143  0.00  0.00     0.158 HD
ATOM     10  HN  UNK N   1      35.268  12.783  10.776  1.00  0.00     0.158 HD
BRANCH   7  11
HETATM   11  N   UNK N   1      33.057  15.179  10.619  0.00  0.00    -0.380 N 
HETATM   12  H   UNK N   1      32.201  14.801  10.926  0.00  0.00     0.158 HD
HETATM   13  H   UNK N   1      33.069  16.027  10.118  0.00  0.00     0.158 HD
ENDBRANCH   7  11
ENDBRANCH   6   7
ENDBRANCH   5   6
ENDBRANCH   4   5
ENDBRANCH   1   4
TORSDOF 5
ENDMDL
MODEL 9
REMARK VINA RESULT:      -3.5     11.218     11.931
REMARK  5 active torsions:
REMARK  status: ('A' for Active; 'I' for Inactive)
REMARK    1  A    between atoms: C_1  and  C_2 
REMARK    2  A    between atoms: C_1  and  C_5 
REMARK    3  A    between atoms: C_5  and  S_6 
REMARK    4  A    between atoms: S_6  and  C_7 
REMARK    5  A    between atoms: C_7  and  N_10 
ROOT
HETATM    1  C   UNK N   1      35.855  13.022  15.201  0.00  0.00     0.124 C 
HETATM    2  C   UNK N   1      35.330  13.360  13.884  0.00  0.00     0.059 C 
HETATM    3  N   UNK N   1      34.887  13.596  12.842  0.00  0.00    -0.197 NA
ENDROOT
BRANCH   1   4
HETATM    4  C   UNK N   1      34.663  13.078  16.116  0.00  0.00     0.025 C 
BRANCH   4   5
HETATM    5  C   UNK N   1      35.056  13.232  17.556  0.00  0.00     0.083 C 
BRANCH   5   6
HETATM    6  S   UNK N   1      35.374  11.554  18.159  0.00  0.00    -0.095 SA
BRANCH   6   7
HETATM    7  C   UNK N   1      35.355  11.963  19.904  0.00  0.00     0.131 C 
HETATM    8  N   UNK N   1      35.781  11.102  20.748  0.00  0.00    -0.380 N 
HETATM    9  H   UNK N   1      35.775  11.311  21.709  0.00  0.00     0.158 HD
ATOM     10  HN  UNK N   1      36.128  10.198  20.425  1.00  0.00     0.158 HD
BRANCH   7  11
HETATM   11  N   UNK N   1      34.877  13.213  20.359  0.00  0.00    -0.380 N 
HETATM   12  H   UNK N   1      34.086  13.621  19.939  0.00  0.00     0.158 HD
HETATM   13  H   UNK N   1      35.335  13.675  21.098  0.00  0.00     0.158 HD
ENDBRANCH   7  11
ENDBRANCH   6   7
ENDBRANCH   5   6
ENDBRANCH   4   5
ENDBRANCH   1   4
TORSDOF 5
ENDMDL
