MODEL 1
REMARK VINA RESULT:      -4.4      0.000      0.000
REMARK  4 active torsions:
REMARK  status: ('A' for Active; 'I' for Inactive)
REMARK    1  A    between atoms: C_2  and  C_3 
REMARK    2  A    between atoms: C_3  and  C_5 
REMARK    3  A    between atoms: C_5  and  C_6 
REMARK    4  A    between atoms: C_5  and  C_8 
REMARK       I    between atoms: C_8  and  N_10 
ROOT
HETATM    1  C   UNK N   1      33.489  17.692   7.668  0.00  0.00     0.081 C 
ENDROOT
BRANCH   1   2
HETATM    2  C   UNK N   1      33.810  17.030   6.295  0.00  0.00    -0.006 C 
HETATM    3  C   UNK N   1      34.619  15.742   6.189  0.00  0.00     0.011 C 
BRANCH   2   4
HETATM    4  C   UNK N   1      33.298  17.691   5.006  0.00  0.00     0.000 C 
HETATM    5  C   UNK N   1      31.912  17.240   4.574  0.00  0.00     0.005 C 
ENDBRANCH   2   4
ENDBRANCH   1   2
BRANCH   1   6
HETATM    6  C   UNK N   1      32.072  17.971   8.218  0.00  0.00     0.010 C 
HETATM    7  C   UNK N   1      31.204  16.772   8.545  0.00  0.00     0.006 C 
ENDBRANCH   1   6
BRANCH   1   8
HETATM    8  C   UNK N   1      34.615  18.121   8.588  0.00  0.00     0.219 C 
HETATM    9  O   UNK N   1      35.244  19.148   8.371  0.00  0.00    -0.273 OA
HETATM   10  N   UNK N   1      34.939  17.374   9.659  0.00  0.00    -0.370 N 
HETATM   11  H   UNK N   1      34.444  16.545   9.848  0.00  0.00     0.159 HD
HETATM   12  H   UNK N   1      35.671  17.657  10.253  0.00  0.00     0.159 HD
ENDBRANCH   1   8
TORSDOF 4
ENDMDL
MODEL 2
REMARK VINA RESULT:      -4.3      9.407     10.198
REMARK  4 active torsions:
REMARK  status: ('A' for Active; 'I' for Inactive)
REMARK    1  A    between atoms: C_2  and  C_3 
REMARK    2  A    between atoms: C_3  and  C_5 
REMARK    3  A    between atoms: C_5  and  C_6 
REMARK    4  A    between atoms: C_5  and  C_8 
REMARK       I    between atoms: C_8  and  N_10 
ROOT
HETATM    1  C   UNK N   1      35.915  12.980  15.868  0.00  0.00     0.081 C 
ENDROOT
BRANCH   1   2
HETATM    2  C   UNK N   1      36.055  11.486  15.451  0.00  0.00    -0.006 C 
HETATM    3  C   UNK N   1      37.355  10.924  14.888  0.00  0.00     0.011 C 
BRANCH   2   4
HETATM    4  C   UNK N   1      34.849  10.546  15.609  0.00  0.00     0.000 C 
HETATM    5  C   UNK N   1      33.717  10.804  14.628  0.00  0.00     0.005 C 
ENDBRANCH   2   4
ENDBRANCH   1   2
BRANCH   1   6
HETATM    6  C   UNK N   1      34.940  13.523  16.938  0.00  0.00     0.010 C 
HETATM    7  C   UNK N   1      35.201  13.133  18.379  0.00  0.00     0.006 C 
ENDBRANCH   1   6
BRANCH   1   8
HETATM    8  C   UNK N   1      36.777  14.039  15.209  0.00  0.00     0.219 C 
HETATM    9  O   UNK N   1      37.532  14.734  15.875  0.00  0.00    -0.273 OA
HETATM   10  N   UNK N   1      36.721  14.228  13.878  0.00  0.00    -0.370 N 
HETATM   11  H   UNK N   1      36.119  13.677  13.328  0.00  0.00     0.159 HD
HETATM   12  H   UNK N   1      37.283  14.917  13.455  0.00  0.00     0.159 HD
ENDBRANCH   1   8
TORSDOF 4
ENDMDL
MODEL 3
REMARK VINA RESULT:      -4.3      9.466     10.773
REMARK  4 active torsions:
REMARK  status: ('A' for Active; 'I' for Inactive)
REMARK    1  A    between atoms: C_2  and  C_3 
REMARK    2  A    between atoms: C_3  and  C_5 
REMARK    3  A    between atoms: C_5  and  C_6 
REMARK    4  A    between atoms: C_5  and  C_8 
REMARK       I    between atoms: C_8  and  N_10 
ROOT
HETATM    1  C   UNK N   1      34.914  12.385  15.627  0.00  0.00     0.081 C 
ENDROOT
BRANCH   1   2
HETATM    2  C   UNK N   1      35.194  12.490  17.156  0.00  0.00    -0.006 C 
HETATM    3  C   UNK N   1      35.207  13.829  17.883  0.00  0.00     0.011 C 
BRANCH   2   4
HETATM    4  C   UNK N   1      35.467  11.209  17.958  0.00  0.00     0.000 C 
HETATM    5  C   UNK N   1      36.440  10.246  17.297  0.00  0.00     0.005 C 
ENDBRANCH   2   4
ENDBRANCH   1   2
BRANCH   1   6
HETATM    6  C   UNK N   1      33.845  11.479  14.973  0.00  0.00     0.010 C 
HETATM    7  C   UNK N   1      34.337  10.321  14.128  0.00  0.00     0.006 C 
ENDBRANCH   1   6
BRANCH   1   8
HETATM    8  C   UNK N   1      35.721  13.212  14.646  0.00  0.00     0.219 C 
HETATM    9  O   UNK N   1      35.175  13.790  13.716  0.00  0.00    -0.273 OA
HETATM   10  N   UNK N   1      37.055  13.321  14.787  0.00  0.00    -0.370 N 
HETATM   11  H   UNK N   1      37.510  12.863  15.529  0.00  0.00     0.159 HD
HETATM   12  H   UNK N   1      37.575  13.860  14.147  0.00  0.00     0.159 HD
ENDBRANCH   1   8
TORSDOF 4
ENDMDL
MODEL 4
REMARK VINA RESULT:      -4.3     10.325     11.908
REMARK  4 active torsions:
REMARK  status: ('A' for Active; 'I' for Inactive)
REMARK    1  A    between atoms: C_2  and  C_3 
REMARK    2  A    between atoms: C_3  and  C_5 
REMARK    3  A    between atoms: C_5  and  C_6 
REMARK    4  A    between atoms: C_5  and  C_8 
REMARK       I    between atoms: C_8  and  N_10 
ROOT
HETATM    1  C   UNK N   1      22.848  12.264  10.462  0.00  0.00     0.081 C 
ENDROOT
BRANCH   1   2
HETATM    2  C   UNK N   1      23.746  12.143   9.195  0.00  0.00    -0.006 C 
HETATM    3  C   UNK N   1      23.649  10.953   8.247  0.00  0.00     0.011 C 
BRANCH   2   4
HETATM    4  C   UNK N   1      24.762  13.254   8.887  0.00  0.00     0.000 C 
HETATM    5  C   UNK N   1      25.057  13.447   7.409  0.00  0.00     0.005 C 
ENDBRANCH   2   4
ENDBRANCH   1   2
BRANCH   1   6
HETATM    6  C   UNK N   1      21.377  12.737  10.475  0.00  0.00     0.010 C 
HETATM    7  C   UNK N   1      21.047  14.003   9.708  0.00  0.00     0.006 C 
ENDBRANCH   1   6
BRANCH   1   8
HETATM    8  C   UNK N   1      23.403  11.902  11.825  0.00  0.00     0.219 C 
HETATM    9  O   UNK N   1      24.607  11.935  12.040  0.00  0.00    -0.273 OA
HETATM   10  N   UNK N   1      22.574  11.538  12.821  0.00  0.00    -0.370 N 
HETATM   11  H   UNK N   1      21.603  11.506  12.665  0.00  0.00     0.159 HD
HETATM   12  H   UNK N   1      22.939  11.304  13.705  0.00  0.00     0.159 HD
ENDBRANCH   1   8
TORSDOF 4
ENDMDL
MODEL 5
REMARK VINA RESULT:      -4.2      0.885      2.982
REMARK  4 active torsions:
REMARK  status: ('A' for Active; 'I' for Inactive)
REMARK    1  A    between atoms: C_2  and  C_3 
REMARK    2  A    between atoms: C_3  and  C_5 
REMARK    3  A    between atoms: C_5  and  C_6 
REMARK    4  A    between atoms: C_5  and  C_8 
REMARK       I    between atoms: C_8  and  N_10 
ROOT
HETATM    1  C   UNK N   1      33.496  17.620   7.786  0.00  0.00     0.081 C 
ENDROOT
BRANCH   1   2
HETATM    2  C   UNK N   1      32.122  17.257   8.424  0.00  0.00    -0.006 C 
HETATM    3  C   UNK N   1      31.759  15.825   8.798  0.00  0.00     0.011 C 
BRANCH   2   4
HETATM    4  C   UNK N   1      31.099  18.373   8.686  0.00  0.00     0.000 C 
HETATM    5  C   UNK N   1      29.804  17.902   9.328  0.00  0.00     0.005 C 
ENDBRANCH   2   4
ENDBRANCH   1   2
BRANCH   1   6
HETATM    6  C   UNK N   1      33.841  17.517   6.283  0.00  0.00     0.010 C 
HETATM    7  C   UNK N   1      32.683  17.404   5.310  0.00  0.00     0.006 C 
ENDBRANCH   1   6
BRANCH   1   8
HETATM    8  C   UNK N   1      34.631  18.122   8.657  0.00  0.00     0.219 C 
HETATM    9  O   UNK N   1      35.223  19.156   8.379  0.00  0.00    -0.273 OA
HETATM   10  N   UNK N   1      35.003  17.433   9.751  0.00  0.00    -0.370 N 
HETATM   11  H   UNK N   1      34.537  16.599   9.989  0.00  0.00     0.159 HD
HETATM   12  H   UNK N   1      35.741  17.763  10.314  0.00  0.00     0.159 HD
ENDBRANCH   1   8
TORSDOF 4
ENDMDL
MODEL 6
REMARK VINA RESULT:      -4.1      8.721     10.017
REMARK  4 active torsions:
REMARK  status: ('A' for Active; 'I' for Inactive)
REMARK    1  A    between atoms: C_2  and  C_3 
REMARK    2  A    between atoms: C_3  and  C_5 
REMARK    3  A    between atoms: C_5  and  C_6 
REMARK    4  A    between atoms: C_5  and  C_8 
REMARK       I    between atoms: C_8  and  N_10 
ROOT
HETATM    1  C   UNK N   1      36.238  12.568  14.887  0.00  0.00     0.081 C 
ENDROOT
BRANCH   1   2
HETATM    2  C   UNK N   1      35.258  12.166  16.029  0.00  0.00    -0.006 C 
HETATM    3  C   UNK N   1      35.048  13.042  17.258  0.00  0.00     0.011 C 
BRANCH   2   4
HETATM    4  C   UNK N   1      34.478  10.846  15.917  0.00  0.00     0.000 C 
HETATM    5  C   UNK N   1      33.665  10.701  14.641  0.00  0.00     0.005 C 
ENDBRANCH   2   4
ENDBRANCH   1   2
BRANCH   1   6
HETATM    6  C   UNK N   1      37.597  11.893  14.592  0.00  0.00     0.010 C 
HETATM    7  C   UNK N   1      37.576  10.427  14.209  0.00  0.00     0.006 C 
ENDBRANCH   1   6
BRANCH   1   8
HETATM    8  C   UNK N   1      35.888  13.709  13.951  0.00  0.00     0.219 C 
HETATM    9  O   UNK N   1      34.865  13.678  13.279  0.00  0.00    -0.273 OA
HETATM   10  N   UNK N   1      36.702  14.776  13.847  0.00  0.00    -0.370 N 
HETATM   11  H   UNK N   1      37.529  14.817  14.380  0.00  0.00     0.159 HD
HETATM   12  H   UNK N   1      36.471  15.514  13.238  0.00  0.00     0.159 HD
ENDBRANCH   1   8
TORSDOF 4
ENDMDL
MODEL 7
REMARK VINA RESULT:      -4.1      7.939      9.519
REMARK  4 active torsions:
REMARK  status: ('A' for Active; 'I' for Inactive)
REMARK    1  A    between atoms: C_2  and  C_3 
REMARK    2  A    between atoms: C_3  and  C_5 
REMARK    3  A    between atoms: C_5  and  C_6 
REMARK    4  A    between atoms: C_5  and  C_8 
REMARK       I    between atoms: C_8  and  N_10 
ROOT
HETATM    1  C   UNK N   1      36.424  13.351  13.891  0.00  0.00     0.081 C 
ENDROOT
BRANCH   1   2
HETATM    2  C   UNK N   1      36.368  13.816  15.376  0.00  0.00    -0.006 C 
HETATM    3  C   UNK N   1      37.242  14.949  15.900  0.00  0.00     0.011 C 
BRANCH   2   4
HETATM    4  C   UNK N   1      35.404  13.115  16.346  0.00  0.00     0.000 C 
HETATM    5  C   UNK N   1      35.284  13.782  17.707  0.00  0.00     0.005 C 
ENDBRANCH   2   4
ENDBRANCH   1   2
BRANCH   1   6
HETATM    6  C   UNK N   1      37.119  12.068  13.380  0.00  0.00     0.010 C 
HETATM    7  C   UNK N   1      37.940  11.276  14.379  0.00  0.00     0.006 C 
ENDBRANCH   1   6
BRANCH   1   8
HETATM    8  C   UNK N   1      35.761  14.179  12.808  0.00  0.00     0.219 C 
HETATM    9  O   UNK N   1      34.616  13.941  12.450  0.00  0.00    -0.273 OA
HETATM   10  N   UNK N   1      36.428  15.192  12.224  0.00  0.00    -0.370 N 
HETATM   11  H   UNK N   1      37.351  15.396  12.500  0.00  0.00     0.159 HD
HETATM   12  H   UNK N   1      35.994  15.727  11.521  0.00  0.00     0.159 HD
ENDBRANCH   1   8
TORSDOF 4
ENDMDL
MODEL 8
REMARK VINA RESULT:      -4.0     10.614     11.671
REMARK  4 active torsions:
REMARK  status: ('A' for Active; 'I' for Inactive)
REMARK    1  A    between atoms: C_2  and  C_3 
REMARK    2  A    between atoms: C_3  and  C_5 
REMARK    3  A    between atoms: C_5  and  C_6 
REMARK    4  A    between atoms: C_5  and  C_8 
REMARK       I    between atoms: C_8  and  N_10 
ROOT
HETATM    1  C   UNK N   1      35.448  12.104  17.798  0.00  0.00     0.081 C 
ENDROOT
BRANCH   1   2
HETATM    2  C   UNK N   1      35.407  12.376  16.265  0.00  0.00    -0.006 C 
HETATM    3  C   UNK N   1      34.118  12.262  15.460  0.00  0.00     0.011 C 
BRANCH   2   4
HETATM    4  C   UNK N   1      36.702  12.772  15.539  0.00  0.00     0.000 C 
HETATM    5  C   UNK N   1      36.900  14.270  15.376  0.00  0.00     0.005 C 
ENDBRANCH   2   4
ENDBRANCH   1   2
BRANCH   1   6
HETATM    6  C   UNK N   1      35.680  10.725  18.458  0.00  0.00     0.010 C 
HETATM    7  C   UNK N   1      34.638   9.652  18.211  0.00  0.00     0.006 C 
ENDBRANCH   1   6
BRANCH   1   8
HETATM    8  C   UNK N   1      35.252  13.244  18.779  0.00  0.00     0.219 C 
HETATM    9  O   UNK N   1      35.268  14.407  18.399  0.00  0.00    -0.273 OA
HETATM   10  N   UNK N   1      35.058  12.989  20.086  0.00  0.00    -0.370 N 
HETATM   11  H   UNK N   1      35.042  12.059  20.409  0.00  0.00     0.159 HD
HETATM   12  H   UNK N   1      34.931  13.732  20.719  0.00  0.00     0.159 HD
ENDBRANCH   1   8
TORSDOF 4
ENDMDL
MODEL 9
REMARK VINA RESULT:      -4.0      8.951     10.087
REMARK  4 active torsions:
REMARK  status: ('A' for Active; 'I' for Inactive)
REMARK    1  A    between atoms: C_2  and  C_3 
REMARK    2  A    between atoms: C_3  and  C_5 
REMARK    3  A    between atoms: C_5  and  C_6 
REMARK    4  A    between atoms: C_5  and  C_8 
REMARK       I    between atoms: C_8  and  N_10 
ROOT
HETATM    1  C   UNK N   1      35.479  12.756  15.085  0.00  0.00     0.081 C 
ENDROOT
BRANCH   1   2
HETATM    2  C   UNK N   1      35.097  11.251  14.967  0.00  0.00    -0.006 C 
HETATM    3  C   UNK N   1      33.655  10.797  14.774  0.00  0.00     0.011 C 
BRANCH   2   4
HETATM    4  C   UNK N   1      36.203  10.187  15.047  0.00  0.00     0.000 C 
HETATM    5  C   UNK N   1      36.708   9.907  16.453  0.00  0.00     0.005 C 
ENDBRANCH   2   4
ENDBRANCH   1   2
BRANCH   1   6
HETATM    6  C   UNK N   1      35.743  13.512  16.407  0.00  0.00     0.010 C 
HETATM    7  C   UNK N   1      35.031  13.011  17.648  0.00  0.00     0.006 C 
ENDBRANCH   1   6
BRANCH   1   8
HETATM    8  C   UNK N   1      35.622  13.605  13.837  0.00  0.00     0.219 C 
HETATM    9  O   UNK N   1      34.724  13.654  13.007  0.00  0.00    -0.273 OA
HETATM   10  N   UNK N   1      36.742  14.319  13.625  0.00  0.00    -0.370 N 
HETATM   11  H   UNK N   1      37.474  14.291  14.283  0.00  0.00     0.159 HD
HETATM   12  H   UNK N   1      36.830  14.869  12.813  0.00  0.00     0.159 HD
ENDBRANCH   1   8
TORSDOF 4
ENDMDL
