MODEL 1
REMARK VINA RESULT:      -8.2      0.000      0.000
REMARK  17 active torsions:
REMARK  status: ('A' for Active; 'I' for Inactive)
REMARK    1  A    between atoms: C_6  and  C_7 
REMARK    2  A    between atoms: C_7  and  N_8 
REMARK    3  A    between atoms: C_7  and  N_10 
REMARK    4  A    between atoms: C_12  and  C_15 
REMARK    5  A    between atoms: C_17  and  C_33 
REMARK    6  A    between atoms: C_19  and  C_22 
REMARK    7  A    between atoms: C_20  and  O_21 
REMARK    8  A    between atoms: C_24  and  S_29 
REMARK    9  A    between atoms: C_27  and  O_28 
REMARK   10  A    between atoms: S_29  and  N_32 
REMARK   11  A    between atoms: C_33  and  C_34 
REMARK       I    between atoms: C_34  and  N_36 
REMARK   12  A    between atoms: C_37  and  N_36 
REMARK   13  A    between atoms: C_37  and  C_38 
REMARK   14  A    between atoms: C_37  and  C_42 
REMARK   15  A    between atoms: C_38  and  C_39 
REMARK   16  A    between atoms: C_39  and  O_41 
REMARK   17  A    between atoms: C_42  and  O_44 
ROOT
HETATM    1  C   UNK N   1      28.134  17.443   4.122  0.00  0.00     0.043 A 
HETATM    2  C   UNK N   1      27.592  18.727   4.209  0.00  0.00     0.025 A 
HETATM    3  C   UNK N   1      26.269  18.953   3.840  0.00  0.00    -0.048 A 
HETATM    4  C   UNK N   1      25.458  17.881   3.431  0.00  0.00     0.022 A 
HETATM    5  C   UNK N   1      25.966  16.578   3.352  0.00  0.00     0.011 A 
HETATM    6  C   UNK N   1      27.335  16.375   3.656  0.00  0.00     0.090 A 
ENDROOT
BRANCH   1   7
HETATM    7  C   UNK N   1      29.481  17.176   4.673  0.00  0.00     0.119 A 
HETATM    8  N   UNK N   1      29.697  17.061   6.006  0.00  0.00    -0.340 N 
HETATM    9  C   UNK N   1      31.016  17.163   6.134  0.00  0.00     0.061 A 
HETATM   10  H   UNK N   1      29.029  16.930   6.718  0.00  0.00     0.167 HD
HETATM   11  C   UNK N   1      31.588  17.321   4.915  0.00  0.00     0.060 A 
HETATM   12  C   UNK N   1      31.730  17.240   7.316  0.00  0.00     0.047 A 
HETATM   13  C   UNK N   1      32.954  17.545   4.772  0.00  0.00     0.033 A 
HETATM   14  N   UNK N   1      30.633  17.328   3.967  0.00  0.00    -0.340 N 
HETATM   15  C   UNK N   1      33.722  17.639   5.954  0.00  0.00     0.017 A 
HETATM   16  C   UNK N   1      33.108  17.500   7.232  0.00  0.00     0.009 A 
ATOM     17  HN  UNK N   1      30.747  17.426   2.958  1.00  0.00     0.167 HD
BRANCH  16  18
HETATM   18  C   UNK N   1      33.878  17.699   8.477  0.00  0.00     0.102 C 
BRANCH  18  19
HETATM   19  N   UNK N   1      33.729  16.899   9.466  0.00  0.00    -0.385 N 
HETATM   20  H   UNK N   1      33.768  15.918   9.394  0.00  0.00     0.157 HD
ATOM     21  HN  UNK N   1      33.556  17.303  10.387  1.00  0.00     0.157 HD
ENDBRANCH  18  19
BRANCH  18  22
HETATM   22  N   UNK N   1      34.871  18.705   8.542  0.00  0.00    -0.385 N 
HETATM   23  H   UNK N   1      35.670  18.682   7.967  0.00  0.00     0.157 HD
HETATM   24  H   UNK N   1      34.761  19.448   9.179  0.00  0.00     0.157 HD
ENDBRANCH  18  22
ENDBRANCH  16  18
ENDBRANCH   1   7
BRANCH   6  25
HETATM   25  O   UNK N   1      27.890  15.162   3.496  0.00  0.00    -0.359 OA
HETATM   26  H   UNK N   1      28.716  14.969   3.097  0.00  0.00     0.217 HD
ENDBRANCH   6  25
BRANCH   3  27
HETATM   27  C   UNK N   1      25.716  20.341   3.876  0.00  0.00     0.141 C 
BRANCH  27  28
HETATM   28  C   UNK N   1      24.411  20.330   3.156  0.00  0.00     0.222 C 
HETATM   29  O   UNK N   1      24.357  20.720   1.998  0.00  0.00    -0.273 OA
HETATM   30  N   UNK N   1      23.328  19.783   3.765  0.00  0.00    -0.346 N 
HETATM   31  H   UNK N   1      23.387  19.600   4.730  0.00  0.00     0.163 HD
BRANCH  30  32
HETATM   32  C   UNK N   1      22.093  19.452   3.085  0.00  0.00     0.192 C 
BRANCH  32  33
HETATM   33  C   UNK N   1      21.369  18.272   3.724  0.00  0.00     0.146 C 
BRANCH  33  34
HETATM   34  C   UNK N   1      21.717  18.156   5.166  0.00  0.00     0.141 C 
HETATM   35  O   UNK N   1      22.589  17.380   5.516  0.00  0.00    -0.650 OA
BRANCH  34  36
HETATM   36  O   UNK N   1      21.084  18.915   6.079  0.00  0.00    -0.776 OA
HETATM   37  H   UNK N   1      21.510  19.130   6.886  0.00  0.00     0.167 HD
ENDBRANCH  34  36
ENDBRANCH  33  34
ENDBRANCH  32  33
BRANCH  32  38
HETATM   38  C   UNK N   1      21.210  20.661   3.009  0.00  0.00     0.164 C 
HETATM   39  O   UNK N   1      20.277  20.774   3.785  0.00  0.00    -0.648 OA
BRANCH  38  40
HETATM   40  O   UNK N   1      21.421  21.610   2.076  0.00  0.00    -0.775 OA
HETATM   41  H   UNK N   1      22.085  21.795   1.440  0.00  0.00     0.167 HD
ENDBRANCH  38  40
ENDBRANCH  32  38
ENDBRANCH  30  32
ENDBRANCH  27  28
ENDBRANCH   3  27
BRANCH   5  42
HETATM   42  C   UNK N   1      25.026  15.453   3.000  0.00  0.00     0.011 A 
HETATM   43  C   UNK N   1      24.330  14.786   4.034  0.00  0.00     0.040 A 
HETATM   44  C   UNK N   1      23.475  13.705   3.738  0.00  0.00     0.080 A 
HETATM   45  C   UNK N   1      23.308  13.293   2.421  0.00  0.00     0.028 A 
HETATM   46  C   UNK N   1      24.008  13.908   1.399  0.00  0.00     0.039 A 
HETATM   47  C   UNK N   1      24.874  14.963   1.668  0.00  0.00     0.076 A 
BRANCH  44  48
HETATM   48  S   UNK N   1      22.596  12.792   5.003  0.00  0.00     0.256 S 
HETATM   49  O   UNK N   1      21.089  12.850   5.285  0.00  0.00    -0.201 OA
HETATM   50  O   UNK N   1      23.311  12.409   6.307  0.00  0.00    -0.201 OA
BRANCH  48  51
HETATM   51  N   UNK N   1      22.584  14.415   5.699  0.00  0.00    -0.324 N 
HETATM   52  H   UNK N   1      22.368  15.227   6.278  0.00  0.00     0.169 HD
HETATM   53  H   UNK N   1      23.294  14.840   5.103  0.00  0.00     0.169 HD
ENDBRANCH  48  51
ENDBRANCH  44  48
BRANCH  47  54
HETATM   54  O   UNK N   1      25.602  15.433   0.645  0.00  0.00    -0.360 OA
HETATM   55  H   UNK N   1      26.045  14.850   0.060  0.00  0.00     0.217 HD
ENDBRANCH  47  54
ENDBRANCH   5  42
TORSDOF 17
ENDMDL
MODEL 2
REMARK VINA RESULT:      -8.2      1.489      2.089
REMARK  17 active torsions:
REMARK  status: ('A' for Active; 'I' for Inactive)
REMARK    1  A    between atoms: C_6  and  C_7 
REMARK    2  A    between atoms: C_7  and  N_8 
REMARK    3  A    between atoms: C_7  and  N_10 
REMARK    4  A    between atoms: C_12  and  C_15 
REMARK    5  A    between atoms: C_17  and  C_33 
REMARK    6  A    between atoms: C_19  and  C_22 
REMARK    7  A    between atoms: C_20  and  O_21 
REMARK    8  A    between atoms: C_24  and  S_29 
REMARK    9  A    between atoms: C_27  and  O_28 
REMARK   10  A    between atoms: S_29  and  N_32 
REMARK   11  A    between atoms: C_33  and  C_34 
REMARK       I    between atoms: C_34  and  N_36 
REMARK   12  A    between atoms: C_37  and  N_36 
REMARK   13  A    between atoms: C_37  and  C_38 
REMARK   14  A    between atoms: C_37  and  C_42 
REMARK   15  A    between atoms: C_38  and  C_39 
REMARK   16  A    between atoms: C_39  and  O_41 
REMARK   17  A    between atoms: C_42  and  O_44 
ROOT
HETATM    1  C   UNK N   1      28.050  17.387   4.254  0.00  0.00     0.043 A 
HETATM    2  C   UNK N   1      27.565  18.695   4.189  0.00  0.00     0.025 A 
HETATM    3  C   UNK N   1      26.227  18.929   3.884  0.00  0.00    -0.048 A 
HETATM    4  C   UNK N   1      25.349  17.850   3.693  0.00  0.00     0.022 A 
HETATM    5  C   UNK N   1      25.800  16.525   3.770  0.00  0.00     0.011 A 
HETATM    6  C   UNK N   1      27.179  16.303   4.005  0.00  0.00     0.090 A 
ENDROOT
BRANCH   1   7
HETATM    7  C   UNK N   1      29.424  17.137   4.743  0.00  0.00     0.119 A 
HETATM    8  N   UNK N   1      29.701  17.023   6.066  0.00  0.00    -0.340 N 
HETATM    9  C   UNK N   1      31.023  17.143   6.135  0.00  0.00     0.061 A 
HETATM   10  H   UNK N   1      29.067  16.883   6.806  0.00  0.00     0.167 HD
HETATM   11  C   UNK N   1      31.538  17.310   4.891  0.00  0.00     0.060 A 
HETATM   12  C   UNK N   1      31.788  17.228   7.284  0.00  0.00     0.047 A 
HETATM   13  C   UNK N   1      32.893  17.552   4.688  0.00  0.00     0.033 A 
HETATM   14  N   UNK N   1      30.542  17.306   3.987  0.00  0.00    -0.340 N 
HETATM   15  C   UNK N   1      33.711  17.654   5.835  0.00  0.00     0.017 A 
HETATM   16  C   UNK N   1      33.158  17.506   7.138  0.00  0.00     0.009 A 
ATOM     17  HN  UNK N   1      30.609  17.406   2.974  1.00  0.00     0.167 HD
BRANCH  16  18
HETATM   18  C   UNK N   1      33.980  17.714   8.348  0.00  0.00     0.102 C 
BRANCH  18  19
HETATM   19  N   UNK N   1      34.790  18.703   8.419  0.00  0.00    -0.385 N 
HETATM   20  H   UNK N   1      34.699  19.531   7.893  0.00  0.00     0.157 HD
ATOM     21  HN  UNK N   1      35.580  18.629   9.060  1.00  0.00     0.157 HD
ENDBRANCH  18  19
BRANCH  18  22
HETATM   22  N   UNK N   1      33.791  16.889   9.482  0.00  0.00    -0.385 N 
HETATM   23  H   UNK N   1      34.524  16.351   9.860  0.00  0.00     0.157 HD
HETATM   24  H   UNK N   1      32.902  16.851   9.905  0.00  0.00     0.157 HD
ENDBRANCH  18  22
ENDBRANCH  16  18
ENDBRANCH   1   7
BRANCH   6  25
HETATM   25  O   UNK N   1      27.675  15.055   3.987  0.00  0.00    -0.359 OA
HETATM   26  H   UNK N   1      27.355  14.314   4.465  0.00  0.00     0.217 HD
ENDBRANCH   6  25
BRANCH   3  27
HETATM   27  C   UNK N   1      25.731  20.332   3.755  0.00  0.00     0.141 C 
BRANCH  27  28
HETATM   28  C   UNK N   1      24.410  20.287   3.066  0.00  0.00     0.222 C 
HETATM   29  O   UNK N   1      24.332  20.607   1.888  0.00  0.00    -0.273 OA
HETATM   30  N   UNK N   1      23.338  19.784   3.731  0.00  0.00    -0.346 N 
HETATM   31  H   UNK N   1      23.418  19.658   4.704  0.00  0.00     0.163 HD
BRANCH  30  32
HETATM   32  C   UNK N   1      22.086  19.421   3.100  0.00  0.00     0.192 C 
BRANCH  32  33
HETATM   33  C   UNK N   1      21.390  18.260   3.801  0.00  0.00     0.146 C 
BRANCH  33  34
HETATM   34  C   UNK N   1      21.733  18.234   5.249  0.00  0.00     0.141 C 
HETATM   35  O   UNK N   1      22.610  17.488   5.649  0.00  0.00    -0.650 OA
BRANCH  34  36
HETATM   36  O   UNK N   1      21.092  19.042   6.112  0.00  0.00    -0.776 OA
HETATM   37  H   UNK N   1      21.076  18.835   7.026  0.00  0.00     0.167 HD
ENDBRANCH  34  36
ENDBRANCH  33  34
ENDBRANCH  32  33
BRANCH  32  38
HETATM   38  C   UNK N   1      21.192  20.621   3.006  0.00  0.00     0.164 C 
HETATM   39  O   UNK N   1      20.284  20.758   3.808  0.00  0.00    -0.648 OA
BRANCH  38  40
HETATM   40  O   UNK N   1      21.366  21.534   2.031  0.00  0.00    -0.775 OA
HETATM   41  H   UNK N   1      22.000  22.195   1.831  0.00  0.00     0.167 HD
ENDBRANCH  38  40
ENDBRANCH  32  38
ENDBRANCH  30  32
ENDBRANCH  27  28
ENDBRANCH   3  27
BRANCH   5  42
HETATM   42  C   UNK N   1      24.794  15.408   3.653  0.00  0.00     0.011 A 
HETATM   43  C   UNK N   1      24.331  15.027   2.374  0.00  0.00     0.040 A 
HETATM   44  C   UNK N   1      23.362  14.013   2.237  0.00  0.00     0.080 A 
HETATM   45  C   UNK N   1      22.860  13.376   3.366  0.00  0.00     0.028 A 
HETATM   46  C   UNK N   1      23.273  13.759   4.629  0.00  0.00     0.039 A 
HETATM   47  C   UNK N   1      24.212  14.772   4.791  0.00  0.00     0.076 A 
BRANCH  44  48
HETATM   48  S   UNK N   1      22.703  13.511   0.649  0.00  0.00     0.256 S 
HETATM   49  O   UNK N   1      21.265  13.061   0.362  0.00  0.00    -0.201 OA
HETATM   50  O   UNK N   1      23.624  12.852  -0.388  0.00  0.00    -0.201 OA
BRANCH  48  51
HETATM   51  N   UNK N   1      22.813  11.951   1.469  0.00  0.00    -0.324 N 
HETATM   52  H   UNK N   1      23.169  11.086   1.877  0.00  0.00     0.169 HD
HETATM   53  H   UNK N   1      21.827  11.830   1.696  0.00  0.00     0.169 HD
ENDBRANCH  48  51
ENDBRANCH  44  48
BRANCH  47  54
HETATM   54  O   UNK N   1      24.479  15.166   6.045  0.00  0.00    -0.360 OA
HETATM   55  H   UNK N   1      24.680  14.541   6.715  0.00  0.00     0.217 HD
ENDBRANCH  47  54
ENDBRANCH   5  42
TORSDOF 17
ENDMDL
MODEL 3
REMARK VINA RESULT:      -8.1      1.542      1.932
REMARK  17 active torsions:
REMARK  status: ('A' for Active; 'I' for Inactive)
REMARK    1  A    between atoms: C_6  and  C_7 
REMARK    2  A    between atoms: C_7  and  N_8 
REMARK    3  A    between atoms: C_7  and  N_10 
REMARK    4  A    between atoms: C_12  and  C_15 
REMARK    5  A    between atoms: C_17  and  C_33 
REMARK    6  A    between atoms: C_19  and  C_22 
REMARK    7  A    between atoms: C_20  and  O_21 
REMARK    8  A    between atoms: C_24  and  S_29 
REMARK    9  A    between atoms: C_27  and  O_28 
REMARK   10  A    between atoms: S_29  and  N_32 
REMARK   11  A    between atoms: C_33  and  C_34 
REMARK       I    between atoms: C_34  and  N_36 
REMARK   12  A    between atoms: C_37  and  N_36 
REMARK   13  A    between atoms: C_37  and  C_38 
REMARK   14  A    between atoms: C_37  and  C_42 
REMARK   15  A    between atoms: C_38  and  C_39 
REMARK   16  A    between atoms: C_39  and  O_41 
REMARK   17  A    between atoms: C_42  and  O_44 
ROOT
HETATM    1  C   UNK N   1      27.735  17.446   4.513  0.00  0.00     0.043 A 
HETATM    2  C   UNK N   1      27.368  18.746   4.160  0.00  0.00     0.025 A 
HETATM    3  C   UNK N   1      26.033  19.052   3.910  0.00  0.00    -0.048 A 
HETATM    4  C   UNK N   1      25.044  18.066   4.065  0.00  0.00     0.022 A 
HETATM    5  C   UNK N   1      25.378  16.757   4.437  0.00  0.00     0.011 A 
HETATM    6  C   UNK N   1      26.747  16.441   4.612  0.00  0.00     0.090 A 
ENDROOT
BRANCH   1   7
HETATM    7  C   UNK N   1      29.123  17.166   4.942  0.00  0.00     0.119 A 
HETATM    8  N   UNK N   1      29.460  17.066   6.251  0.00  0.00    -0.340 N 
HETATM    9  C   UNK N   1      30.786  17.150   6.256  0.00  0.00     0.061 A 
HETATM   10  H   UNK N   1      28.859  16.955   7.023  0.00  0.00     0.167 HD
HETATM   11  C   UNK N   1      31.246  17.282   4.987  0.00  0.00     0.060 A 
HETATM   12  C   UNK N   1      31.607  17.232   7.366  0.00  0.00     0.047 A 
HETATM   13  C   UNK N   1      32.596  17.483   4.716  0.00  0.00     0.033 A 
HETATM   14  N   UNK N   1      30.208  17.291   4.130  0.00  0.00    -0.340 N 
HETATM   15  C   UNK N   1      33.471  17.581   5.821  0.00  0.00     0.017 A 
HETATM   16  C   UNK N   1      32.975  17.470   7.152  0.00  0.00     0.009 A 
ATOM     17  HN  UNK N   1      30.230  17.373   3.114  1.00  0.00     0.167 HD
BRANCH  16  18
HETATM   18  C   UNK N   1      33.859  17.674   8.318  0.00  0.00     0.102 C 
BRANCH  18  19
HETATM   19  N   UNK N   1      34.702  18.639   8.331  0.00  0.00    -0.385 N 
HETATM   20  H   UNK N   1      35.477  18.704   7.727  0.00  0.00     0.157 HD
ATOM     21  HN  UNK N   1      34.562  19.386   9.012  1.00  0.00     0.157 HD
ENDBRANCH  18  19
BRANCH  18  22
HETATM   22  N   UNK N   1      33.698  16.877   9.476  0.00  0.00    -0.385 N 
HETATM   23  H   UNK N   1      33.560  15.904   9.420  0.00  0.00     0.157 HD
HETATM   24  H   UNK N   1      33.726  17.306  10.362  0.00  0.00     0.157 HD
ENDBRANCH  18  22
ENDBRANCH  16  18
ENDBRANCH   1   7
BRANCH   6  25
HETATM   25  O   UNK N   1      27.122  15.177   4.869  0.00  0.00    -0.359 OA
HETATM   26  H   UNK N   1      27.905  14.751   4.577  0.00  0.00     0.217 HD
ENDBRANCH   6  25
BRANCH   3  27
HETATM   27  C   UNK N   1      25.657  20.429   3.472  0.00  0.00     0.141 C 
BRANCH  27  28
HETATM   28  C   UNK N   1      24.301  20.359   2.859  0.00  0.00     0.222 C 
HETATM   29  O   UNK N   1      24.161  20.619   1.672  0.00  0.00    -0.273 OA
HETATM   30  N   UNK N   1      23.265  19.898   3.605  0.00  0.00    -0.346 N 
HETATM   31  H   UNK N   1      23.396  19.821   4.577  0.00  0.00     0.163 HD
BRANCH  30  32
HETATM   32  C   UNK N   1      21.978  19.512   3.061  0.00  0.00     0.192 C 
BRANCH  32  33
HETATM   33  C   UNK N   1      21.327  18.376   3.843  0.00  0.00     0.146 C 
BRANCH  33  34
HETATM   34  C   UNK N   1      20.669  17.410   2.922  0.00  0.00     0.141 C 
HETATM   35  O   UNK N   1      21.293  16.448   2.509  0.00  0.00    -0.650 OA
BRANCH  34  36
HETATM   36  O   UNK N   1      19.385  17.586   2.559  0.00  0.00    -0.776 OA
HETATM   37  H   UNK N   1      18.794  16.859   2.560  0.00  0.00     0.167 HD
ENDBRANCH  34  36
ENDBRANCH  33  34
ENDBRANCH  32  33
BRANCH  32  38
HETATM   38  C   UNK N   1      21.078  20.707   2.977  0.00  0.00     0.164 C 
HETATM   39  O   UNK N   1      20.227  20.879   3.833  0.00  0.00    -0.648 OA
BRANCH  38  40
HETATM   40  O   UNK N   1      21.182  21.576   1.953  0.00  0.00    -0.775 OA
HETATM   41  H   UNK N   1      21.747  22.290   1.729  0.00  0.00     0.167 HD
ENDBRANCH  38  40
ENDBRANCH  32  38
ENDBRANCH  30  32
ENDBRANCH  27  28
ENDBRANCH   3  27
BRANCH   5  42
HETATM   42  C   UNK N   1      24.267  15.767   4.682  0.00  0.00     0.011 A 
HETATM   43  C   UNK N   1      23.433  15.929   5.811  0.00  0.00     0.040 A 
HETATM   44  C   UNK N   1      22.413  14.997   6.086  0.00  0.00     0.080 A 
HETATM   45  C   UNK N   1      22.217  13.911   5.240  0.00  0.00     0.028 A 
HETATM   46  C   UNK N   1      23.046  13.714   4.151  0.00  0.00     0.039 A 
HETATM   47  C   UNK N   1      24.074  14.609   3.870  0.00  0.00     0.076 A 
BRANCH  44  48
HETATM   48  S   UNK N   1      21.348  15.122   7.521  0.00  0.00     0.256 S 
HETATM   49  O   UNK N   1      20.206  14.169   7.892  0.00  0.00    -0.201 OA
HETATM   50  O   UNK N   1      21.035  16.500   8.124  0.00  0.00    -0.201 OA
BRANCH  48  51
HETATM   51  N   UNK N   1      20.241  15.631   6.243  0.00  0.00    -0.324 N 
HETATM   52  H   UNK N   1      19.852  15.899   5.339  0.00  0.00     0.169 HD
HETATM   53  H   UNK N   1      19.393  15.715   6.803  0.00  0.00     0.169 HD
ENDBRANCH  48  51
ENDBRANCH  44  48
BRANCH  47  54
HETATM   54  O   UNK N   1      24.904  14.291   2.866  0.00  0.00    -0.360 OA
HETATM   55  H   UNK N   1      25.444  13.526   2.910  0.00  0.00     0.217 HD
ENDBRANCH  47  54
ENDBRANCH   5  42
TORSDOF 17
ENDMDL
MODEL 4
REMARK VINA RESULT:      -8.0      4.633     10.064
REMARK  17 active torsions:
REMARK  status: ('A' for Active; 'I' for Inactive)
REMARK    1  A    between atoms: C_6  and  C_7 
REMARK    2  A    between atoms: C_7  and  N_8 
REMARK    3  A    between atoms: C_7  and  N_10 
REMARK    4  A    between atoms: C_12  and  C_15 
REMARK    5  A    between atoms: C_17  and  C_33 
REMARK    6  A    between atoms: C_19  and  C_22 
REMARK    7  A    between atoms: C_20  and  O_21 
REMARK    8  A    between atoms: C_24  and  S_29 
REMARK    9  A    between atoms: C_27  and  O_28 
REMARK   10  A    between atoms: S_29  and  N_32 
REMARK   11  A    between atoms: C_33  and  C_34 
REMARK       I    between atoms: C_34  and  N_36 
REMARK   12  A    between atoms: C_37  and  N_36 
REMARK   13  A    between atoms: C_37  and  C_38 
REMARK   14  A    between atoms: C_37  and  C_42 
REMARK   15  A    between atoms: C_38  and  C_39 
REMARK   16  A    between atoms: C_39  and  O_41 
REMARK   17  A    between atoms: C_42  and  O_44 
ROOT
HETATM    1  C   UNK N   1      28.641  17.785   5.733  0.00  0.00     0.043 A 
HETATM    2  C   UNK N   1      28.954  17.785   7.094  0.00  0.00     0.025 A 
HETATM    3  C   UNK N   1      30.074  17.098   7.554  0.00  0.00    -0.048 A 
HETATM    4  C   UNK N   1      30.923  16.447   6.644  0.00  0.00     0.022 A 
HETATM    5  C   UNK N   1      30.648  16.444   5.270  0.00  0.00     0.011 A 
HETATM    6  C   UNK N   1      29.464  17.081   4.825  0.00  0.00     0.090 A 
ENDROOT
BRANCH   1   7
HETATM    7  C   UNK N   1      27.553  18.651   5.229  0.00  0.00     0.119 A 
HETATM    8  N   UNK N   1      26.256  18.433   5.560  0.00  0.00    -0.340 N 
HETATM    9  C   UNK N   1      25.568  19.161   4.687  0.00  0.00     0.061 A 
HETATM   10  H   UNK N   1      25.904  17.866   6.284  0.00  0.00     0.167 HD
HETATM   11  C   UNK N   1      26.419  19.815   3.857  0.00  0.00     0.060 A 
HETATM   12  C   UNK N   1      24.195  19.177   4.520  0.00  0.00     0.047 A 
HETATM   13  C   UNK N   1      25.958  20.577   2.789  0.00  0.00     0.033 A 
HETATM   14  N   UNK N   1      27.689  19.511   4.184  0.00  0.00    -0.340 N 
HETATM   15  C   UNK N   1      24.562  20.615   2.576  0.00  0.00     0.017 A 
HETATM   16  C   UNK N   1      23.676  19.903   3.434  0.00  0.00     0.009 A 
ATOM     17  HN  UNK N   1      28.549  19.845   3.750  1.00  0.00     0.167 HD
BRANCH  16  18
HETATM   18  C   UNK N   1      22.225  19.848   3.164  0.00  0.00     0.102 C 
BRANCH  18  19
HETATM   19  N   UNK N   1      21.713  20.560   2.230  0.00  0.00    -0.385 N 
HETATM   20  H   UNK N   1      20.925  20.295   1.702  0.00  0.00     0.157 HD
ATOM     21  HN  UNK N   1      22.149  21.458   2.019  1.00  0.00     0.157 HD
ENDBRANCH  18  19
BRANCH  18  22
HETATM   22  N   UNK N   1      21.411  18.921   3.856  0.00  0.00    -0.385 N 
HETATM   23  H   UNK N   1      21.174  18.048   3.467  0.00  0.00     0.157 HD
HETATM   24  H   UNK N   1      21.072  19.154   4.750  0.00  0.00     0.157 HD
ENDBRANCH  18  22
ENDBRANCH  16  18
ENDBRANCH   1   7
BRANCH   6  25
HETATM   25  O   UNK N   1      29.106  17.017   3.532  0.00  0.00    -0.359 OA
HETATM   26  H   UNK N   1      28.752  17.711   3.010  0.00  0.00     0.217 HD
ENDBRANCH   6  25
BRANCH   3  27
HETATM   27  C   UNK N   1      30.367  17.051   9.018  0.00  0.00     0.141 C 
BRANCH  27  28
HETATM   28  C   UNK N   1      31.591  16.226   9.212  0.00  0.00     0.222 C 
HETATM   29  O   UNK N   1      31.496  15.007   9.265  0.00  0.00    -0.273 OA
HETATM   30  N   UNK N   1      32.803  16.837   9.215  0.00  0.00    -0.346 N 
HETATM   31  H   UNK N   1      32.824  17.818   9.295  0.00  0.00     0.163 HD
BRANCH  30  32
HETATM   32  C   UNK N   1      34.068  16.139   9.107  0.00  0.00     0.192 C 
BRANCH  32  33
HETATM   33  C   UNK N   1      34.899  16.608   7.919  0.00  0.00     0.146 C 
BRANCH  33  34
HETATM   34  C   UNK N   1      34.516  17.989   7.518  0.00  0.00     0.141 C 
HETATM   35  O   UNK N   1      33.844  18.164   6.517  0.00  0.00    -0.650 OA
BRANCH  34  36
HETATM   36  O   UNK N   1      34.895  19.042   8.267  0.00  0.00    -0.776 OA
HETATM   37  H   UNK N   1      34.291  19.739   8.436  0.00  0.00     0.167 HD
ENDBRANCH  34  36
ENDBRANCH  33  34
ENDBRANCH  32  33
BRANCH  32  38
HETATM   38  C   UNK N   1      34.831  16.258  10.392  0.00  0.00     0.164 C 
HETATM   39  O   UNK N   1      34.650  15.439  11.276  0.00  0.00    -0.648 OA
BRANCH  38  40
HETATM   40  O   UNK N   1      35.694  17.274  10.587  0.00  0.00    -0.775 OA
HETATM   41  H   UNK N   1      36.601  17.356  10.810  0.00  0.00     0.167 HD
ENDBRANCH  38  40
ENDBRANCH  32  38
ENDBRANCH  30  32
ENDBRANCH  27  28
ENDBRANCH   3  27
BRANCH   5  42
HETATM   42  C   UNK N   1      31.645  15.813   4.331  0.00  0.00     0.011 A 
HETATM   43  C   UNK N   1      31.652  14.409   4.173  0.00  0.00     0.040 A 
HETATM   44  C   UNK N   1      32.598  13.789   3.333  0.00  0.00     0.080 A 
HETATM   45  C   UNK N   1      33.530  14.560   2.647  0.00  0.00     0.028 A 
HETATM   46  C   UNK N   1      33.563  15.933   2.817  0.00  0.00     0.039 A 
HETATM   47  C   UNK N   1      32.653  16.566   3.657  0.00  0.00     0.076 A 
BRANCH  44  48
HETATM   48  S   UNK N   1      32.688  12.012   3.120  0.00  0.00     0.256 S 
HETATM   49  O   UNK N   1      32.228  11.219   1.890  0.00  0.00    -0.201 OA
HETATM   50  O   UNK N   1      32.597  11.089   4.344  0.00  0.00    -0.201 OA
BRANCH  48  51
HETATM   51  N   UNK N   1      30.955  12.227   3.380  0.00  0.00    -0.324 N 
HETATM   52  H   UNK N   1      29.959  12.050   3.516  0.00  0.00     0.169 HD
HETATM   53  H   UNK N   1      30.935  13.245   3.430  0.00  0.00     0.169 HD
ENDBRANCH  48  51
ENDBRANCH  44  48
BRANCH  47  54
HETATM   54  O   UNK N   1      32.819  17.881   3.859  0.00  0.00    -0.360 OA
HETATM   55  H   UNK N   1      33.473  18.363   3.391  0.00  0.00     0.217 HD
ENDBRANCH  47  54
ENDBRANCH   5  42
TORSDOF 17
ENDMDL
MODEL 5
REMARK VINA RESULT:      -7.9      3.334      7.668
REMARK  17 active torsions:
REMARK  status: ('A' for Active; 'I' for Inactive)
REMARK    1  A    between atoms: C_6  and  C_7 
REMARK    2  A    between atoms: C_7  and  N_8 
REMARK    3  A    between atoms: C_7  and  N_10 
REMARK    4  A    between atoms: C_12  and  C_15 
REMARK    5  A    between atoms: C_17  and  C_33 
REMARK    6  A    between atoms: C_19  and  C_22 
REMARK    7  A    between atoms: C_20  and  O_21 
REMARK    8  A    between atoms: C_24  and  S_29 
REMARK    9  A    between atoms: C_27  and  O_28 
REMARK   10  A    between atoms: S_29  and  N_32 
REMARK   11  A    between atoms: C_33  and  C_34 
REMARK       I    between atoms: C_34  and  N_36 
REMARK   12  A    between atoms: C_37  and  N_36 
REMARK   13  A    between atoms: C_37  and  C_38 
REMARK   14  A    between atoms: C_37  and  C_42 
REMARK   15  A    between atoms: C_38  and  C_39 
REMARK   16  A    between atoms: C_39  and  O_41 
REMARK   17  A    between atoms: C_42  and  O_44 
ROOT
HETATM    1  C   UNK N   1      26.769  16.763   3.711  0.00  0.00     0.043 A 
HETATM    2  C   UNK N   1      26.336  18.044   3.366  0.00  0.00     0.025 A 
HETATM    3  C   UNK N   1      26.752  19.146   4.109  0.00  0.00    -0.048 A 
HETATM    4  C   UNK N   1      27.651  18.978   5.175  0.00  0.00     0.022 A 
HETATM    5  C   UNK N   1      28.119  17.707   5.535  0.00  0.00     0.011 A 
HETATM    6  C   UNK N   1      27.628  16.587   4.820  0.00  0.00     0.090 A 
ENDROOT
BRANCH   1   7
HETATM    7  C   UNK N   1      26.464  15.620   2.823  0.00  0.00     0.119 A 
HETATM    8  N   UNK N   1      25.198  15.348   2.419  0.00  0.00    -0.340 N 
HETATM    9  C   UNK N   1      25.266  14.110   1.940  0.00  0.00     0.061 A 
HETATM   10  H   UNK N   1      24.409  15.935   2.467  0.00  0.00     0.167 HD
HETATM   11  C   UNK N   1      26.537  13.645   2.036  0.00  0.00     0.060 A 
HETATM   12  C   UNK N   1      24.207  13.324   1.524  0.00  0.00     0.047 A 
HETATM   13  C   UNK N   1      26.866  12.339   1.690  0.00  0.00     0.033 A 
HETATM   14  N   UNK N   1      27.320  14.588   2.591  0.00  0.00    -0.340 N 
HETATM   15  C   UNK N   1      25.812  11.497   1.266  0.00  0.00     0.017 A 
HETATM   16  C   UNK N   1      24.476  11.984   1.195  0.00  0.00     0.009 A 
ATOM     17  HN  UNK N   1      28.319  14.541   2.790  1.00  0.00     0.167 HD
BRANCH  16  18
HETATM   18  C   UNK N   1      23.351  11.089   0.855  0.00  0.00     0.102 C 
BRANCH  18  19
HETATM   19  N   UNK N   1      22.248  11.572   0.418  0.00  0.00    -0.385 N 
HETATM   20  H   UNK N   1      22.186  12.349  -0.184  0.00  0.00     0.157 HD
ATOM     21  HN  UNK N   1      21.380  11.125   0.713  1.00  0.00     0.157 HD
ENDBRANCH  18  19
BRANCH  18  22
HETATM   22  N   UNK N   1      23.526   9.686   0.899  0.00  0.00    -0.385 N 
HETATM   23  H   UNK N   1      22.854   9.068   0.528  0.00  0.00     0.157 HD
HETATM   24  H   UNK N   1      24.341   9.316   1.310  0.00  0.00     0.157 HD
ENDBRANCH  18  22
ENDBRANCH  16  18
ENDBRANCH   1   7
BRANCH   6  25
HETATM   25  O   UNK N   1      27.969  15.343   5.194  0.00  0.00    -0.359 OA
HETATM   26  H   UNK N   1      27.549  14.544   4.943  0.00  0.00     0.217 HD
ENDBRANCH   6  25
BRANCH   3  27
HETATM   27  C   UNK N   1      26.235  20.506   3.771  0.00  0.00     0.141 C 
BRANCH  27  28
HETATM   28  C   UNK N   1      24.893  20.341   3.145  0.00  0.00     0.222 C 
HETATM   29  O   UNK N   1      24.730  20.658   1.975  0.00  0.00    -0.273 OA
HETATM   30  N   UNK N   1      23.906  19.737   3.855  0.00  0.00    -0.346 N 
HETATM   31  H   UNK N   1      24.043  19.614   4.821  0.00  0.00     0.163 HD
BRANCH  30  32
HETATM   32  C   UNK N   1      22.664  19.261   3.280  0.00  0.00     0.192 C 
BRANCH  32  33
HETATM   33  C   UNK N   1      22.177  17.968   3.923  0.00  0.00     0.146 C 
BRANCH  33  34
HETATM   34  C   UNK N   1      22.763  17.798   5.280  0.00  0.00     0.141 C 
HETATM   35  O   UNK N   1      23.697  17.032   5.444  0.00  0.00    -0.650 OA
BRANCH  34  36
HETATM   36  O   UNK N   1      22.277  18.499   6.321  0.00  0.00    -0.776 OA
HETATM   37  H   UNK N   1      21.687  19.212   6.172  0.00  0.00     0.167 HD
ENDBRANCH  34  36
ENDBRANCH  33  34
ENDBRANCH  32  33
BRANCH  32  38
HETATM   38  C   UNK N   1      21.622  20.336   3.350  0.00  0.00     0.164 C 
HETATM   39  O   UNK N   1      20.648  20.182   4.067  0.00  0.00    -0.648 OA
BRANCH  38  40
HETATM   40  O   UNK N   1      21.738  21.456   2.610  0.00  0.00    -0.775 OA
HETATM   41  H   UNK N   1      22.428  21.892   2.149  0.00  0.00     0.167 HD
ENDBRANCH  38  40
ENDBRANCH  32  38
ENDBRANCH  30  32
ENDBRANCH  27  28
ENDBRANCH   3  27
BRANCH   5  42
HETATM   42  C   UNK N   1      29.156  17.598   6.624  0.00  0.00     0.011 A 
HETATM   43  C   UNK N   1      30.510  17.400   6.271  0.00  0.00     0.040 A 
HETATM   44  C   UNK N   1      31.495  17.254   7.268  0.00  0.00     0.080 A 
HETATM   45  C   UNK N   1      31.138  17.311   8.611  0.00  0.00     0.028 A 
HETATM   46  C   UNK N   1      29.813  17.466   8.977  0.00  0.00     0.039 A 
HETATM   47  C   UNK N   1      28.820  17.591   8.011  0.00  0.00     0.076 A 
BRANCH  44  48
HETATM   48  S   UNK N   1      33.221  16.961   6.890  0.00  0.00     0.256 S 
HETATM   49  O   UNK N   1      34.263  18.022   6.516  0.00  0.00    -0.201 OA
HETATM   50  O   UNK N   1      33.650  15.628   6.259  0.00  0.00    -0.201 OA
BRANCH  48  51
HETATM   51  N   UNK N   1      32.584  17.309   5.280  0.00  0.00    -0.324 N 
HETATM   52  H   UNK N   1      32.014  17.302   4.434  0.00  0.00     0.169 HD
HETATM   53  H   UNK N   1      33.265  18.013   4.998  0.00  0.00     0.169 HD
ENDBRANCH  48  51
ENDBRANCH  44  48
BRANCH  47  54
HETATM   54  O   UNK N   1      27.550  17.625   8.440  0.00  0.00    -0.360 OA
HETATM   55  H   UNK N   1      27.180  16.904   8.913  0.00  0.00     0.217 HD
ENDBRANCH  47  54
ENDBRANCH   5  42
TORSDOF 17
ENDMDL
MODEL 6
REMARK VINA RESULT:      -7.9      3.181      5.291
REMARK  17 active torsions:
REMARK  status: ('A' for Active; 'I' for Inactive)
REMARK    1  A    between atoms: C_6  and  C_7 
REMARK    2  A    between atoms: C_7  and  N_8 
REMARK    3  A    between atoms: C_7  and  N_10 
REMARK    4  A    between atoms: C_12  and  C_15 
REMARK    5  A    between atoms: C_17  and  C_33 
REMARK    6  A    between atoms: C_19  and  C_22 
REMARK    7  A    between atoms: C_20  and  O_21 
REMARK    8  A    between atoms: C_24  and  S_29 
REMARK    9  A    between atoms: C_27  and  O_28 
REMARK   10  A    between atoms: S_29  and  N_32 
REMARK   11  A    between atoms: C_33  and  C_34 
REMARK       I    between atoms: C_34  and  N_36 
REMARK   12  A    between atoms: C_37  and  N_36 
REMARK   13  A    between atoms: C_37  and  C_38 
REMARK   14  A    between atoms: C_37  and  C_42 
REMARK   15  A    between atoms: C_38  and  C_39 
REMARK   16  A    between atoms: C_39  and  O_41 
REMARK   17  A    between atoms: C_42  and  O_44 
ROOT
HETATM    1  C   UNK N   1      26.065  15.404   6.431  0.00  0.00     0.043 A 
HETATM    2  C   UNK N   1      25.639  14.431   7.336  0.00  0.00     0.025 A 
HETATM    3  C   UNK N   1      24.675  13.499   6.958  0.00  0.00    -0.048 A 
HETATM    4  C   UNK N   1      24.168  13.503   5.648  0.00  0.00     0.022 A 
HETATM    5  C   UNK N   1      24.588  14.455   4.710  0.00  0.00     0.011 A 
HETATM    6  C   UNK N   1      25.511  15.444   5.131  0.00  0.00     0.090 A 
ENDROOT
BRANCH   1   7
HETATM    7  C   UNK N   1      27.205  16.281   6.777  0.00  0.00     0.119 A 
HETATM    8  N   UNK N   1      28.435  16.099   6.237  0.00  0.00    -0.340 N 
HETATM    9  C   UNK N   1      29.242  16.820   7.008  0.00  0.00     0.061 A 
HETATM   10  H   UNK N   1      28.676  15.556   5.452  0.00  0.00     0.167 HD
HETATM   11  C   UNK N   1      28.524  17.436   7.981  0.00  0.00     0.060 A 
HETATM   12  C   UNK N   1      30.623  16.861   6.953  0.00  0.00     0.047 A 
HETATM   13  C   UNK N   1      29.138  18.182   8.982  0.00  0.00     0.033 A 
HETATM   14  N   UNK N   1      27.224  17.113   7.854  0.00  0.00    -0.340 N 
HETATM   15  C   UNK N   1      30.550  18.244   8.969  0.00  0.00     0.017 A 
HETATM   16  C   UNK N   1      31.297  17.572   7.961  0.00  0.00     0.009 A 
ATOM     17  HN  UNK N   1      26.439  17.418   8.429  1.00  0.00     0.167 HD
BRANCH  16  18
HETATM   18  C   UNK N   1      32.774  17.541   7.994  0.00  0.00     0.102 C 
BRANCH  18  19
HETATM   19  N   UNK N   1      33.453  17.906   6.971  0.00  0.00    -0.385 N 
HETATM   20  H   UNK N   1      34.375  18.250   7.014  0.00  0.00     0.157 HD
ATOM     21  HN  UNK N   1      33.011  17.839   6.055  1.00  0.00     0.157 HD
ENDBRANCH  18  19
BRANCH  18  22
HETATM   22  N   UNK N   1      33.448  17.221   9.197  0.00  0.00    -0.385 N 
HETATM   23  H   UNK N   1      34.163  16.545   9.226  0.00  0.00     0.157 HD
HETATM   24  H   UNK N   1      33.196  17.687  10.027  0.00  0.00     0.157 HD
ENDBRANCH  18  22
ENDBRANCH  16  18
ENDBRANCH   1   7
BRANCH   6  25
HETATM   25  O   UNK N   1      25.865  16.436   4.298  0.00  0.00    -0.359 OA
HETATM   26  H   UNK N   1      26.721  16.806   4.193  0.00  0.00     0.217 HD
ENDBRANCH   6  25
BRANCH   3  27
HETATM   27  C   UNK N   1      24.180  12.500   7.952  0.00  0.00     0.141 C 
BRANCH  27  28
HETATM   28  C   UNK N   1      23.251  13.203   8.880  0.00  0.00     0.222 C 
HETATM   29  O   UNK N   1      23.534  13.290  10.067  0.00  0.00    -0.273 OA
HETATM   30  N   UNK N   1      22.161  13.830   8.370  0.00  0.00    -0.346 N 
HETATM   31  H   UNK N   1      21.908  13.631   7.440  0.00  0.00     0.163 HD
BRANCH  30  32
HETATM   32  C   UNK N   1      21.347  14.776   9.106  0.00  0.00     0.192 C 
BRANCH  32  33
HETATM   33  C   UNK N   1      20.885  15.948   8.247  0.00  0.00     0.146 C 
BRANCH  33  34
HETATM   34  C   UNK N   1      21.510  15.893   6.898  0.00  0.00     0.141 C 
HETATM   35  O   UNK N   1      20.985  15.238   6.014  0.00  0.00    -0.650 OA
BRANCH  34  36
HETATM   36  O   UNK N   1      22.642  16.576   6.646  0.00  0.00    -0.776 OA
HETATM   37  H   UNK N   1      22.812  16.902   5.784  0.00  0.00     0.167 HD
ENDBRANCH  34  36
ENDBRANCH  33  34
ENDBRANCH  32  33
BRANCH  32  38
HETATM   38  C   UNK N   1      20.186  14.069   9.738  0.00  0.00     0.164 C 
HETATM   39  O   UNK N   1      19.071  14.556   9.660  0.00  0.00    -0.648 OA
BRANCH  38  40
HETATM   40  O   UNK N   1      20.366  12.917  10.414  0.00  0.00    -0.775 OA
HETATM   41  H   UNK N   1      21.020  12.566  10.987  0.00  0.00     0.167 HD
ENDBRANCH  38  40
ENDBRANCH  32  38
ENDBRANCH  30  32
ENDBRANCH  27  28
ENDBRANCH   3  27
BRANCH   5  42
HETATM   42  C   UNK N   1      24.083  14.351   3.294  0.00  0.00     0.011 A 
HETATM   43  C   UNK N   1      22.827  14.910   2.965  0.00  0.00     0.040 A 
HETATM   44  C   UNK N   1      22.312  14.793   1.659  0.00  0.00     0.080 A 
HETATM   45  C   UNK N   1      23.044  14.129   0.681  0.00  0.00     0.028 A 
HETATM   46  C   UNK N   1      24.257  13.543   0.991  0.00  0.00     0.039 A 
HETATM   47  C   UNK N   1      24.777  13.626   2.278  0.00  0.00     0.076 A 
BRANCH  44  48
HETATM   48  S   UNK N   1      20.711  15.443   1.187  0.00  0.00     0.256 S 
HETATM   49  O   UNK N   1      20.246  16.899   1.318  0.00  0.00    -0.201 OA
HETATM   50  O   UNK N   1      19.471  14.539   1.246  0.00  0.00    -0.201 OA
BRANCH  48  51
HETATM   51  N   UNK N   1      20.565  15.449   2.947  0.00  0.00    -0.324 N 
HETATM   52  H   UNK N   1      20.693  15.666   3.936  0.00  0.00     0.169 HD
HETATM   53  H   UNK N   1      19.848  14.731   3.041  0.00  0.00     0.169 HD
ENDBRANCH  48  51
ENDBRANCH  44  48
BRANCH  47  54
HETATM   54  O   UNK N   1      25.900  12.939   2.531  0.00  0.00    -0.360 OA
HETATM   55  H   UNK N   1      26.207  12.821   3.409  0.00  0.00     0.217 HD
ENDBRANCH  47  54
ENDBRANCH   5  42
TORSDOF 17
ENDMDL
MODEL 7
REMARK VINA RESULT:      -7.8      4.055     10.261
REMARK  17 active torsions:
REMARK  status: ('A' for Active; 'I' for Inactive)
REMARK    1  A    between atoms: C_6  and  C_7 
REMARK    2  A    between atoms: C_7  and  N_8 
REMARK    3  A    between atoms: C_7  and  N_10 
REMARK    4  A    between atoms: C_12  and  C_15 
REMARK    5  A    between atoms: C_17  and  C_33 
REMARK    6  A    between atoms: C_19  and  C_22 
REMARK    7  A    between atoms: C_20  and  O_21 
REMARK    8  A    between atoms: C_24  and  S_29 
REMARK    9  A    between atoms: C_27  and  O_28 
REMARK   10  A    between atoms: S_29  and  N_32 
REMARK   11  A    between atoms: C_33  and  C_34 
REMARK       I    between atoms: C_34  and  N_36 
REMARK   12  A    between atoms: C_37  and  N_36 
REMARK   13  A    between atoms: C_37  and  C_38 
REMARK   14  A    between atoms: C_37  and  C_42 
REMARK   15  A    between atoms: C_38  and  C_39 
REMARK   16  A    between atoms: C_39  and  O_41 
REMARK   17  A    between atoms: C_42  and  O_44 
ROOT
HETATM    1  C   UNK N   1      26.609  17.807   4.368  0.00  0.00     0.043 A 
HETATM    2  C   UNK N   1      27.064  16.911   3.399  0.00  0.00     0.025 A 
HETATM    3  C   UNK N   1      28.299  16.286   3.550  0.00  0.00    -0.048 A 
HETATM    4  C   UNK N   1      29.067  16.515   4.703  0.00  0.00     0.022 A 
HETATM    5  C   UNK N   1      28.631  17.394   5.703  0.00  0.00     0.011 A 
HETATM    6  C   UNK N   1      27.409  18.081   5.501  0.00  0.00     0.090 A 
ENDROOT
BRANCH   1   7
HETATM    7  C   UNK N   1      25.229  18.336   4.290  0.00  0.00     0.119 A 
HETATM    8  N   UNK N   1      24.150  17.552   4.529  0.00  0.00    -0.340 N 
HETATM    9  C   UNK N   1      23.125  18.249   4.049  0.00  0.00     0.061 A 
HETATM   10  H   UNK N   1      24.129  16.667   4.961  0.00  0.00     0.167 HD
HETATM   11  C   UNK N   1      23.565  19.430   3.545  0.00  0.00     0.060 A 
HETATM   12  C   UNK N   1      21.815  17.823   3.932  0.00  0.00     0.047 A 
HETATM   13  C   UNK N   1      22.707  20.313   2.897  0.00  0.00     0.033 A 
HETATM   14  N   UNK N   1      24.900  19.512   3.690  0.00  0.00    -0.340 N 
HETATM   15  C   UNK N   1      21.359  19.914   2.749  0.00  0.00     0.017 A 
HETATM   16  C   UNK N   1      20.912  18.661   3.255  0.00  0.00     0.009 A 
ATOM     17  HN  UNK N   1      25.518  20.275   3.415  1.00  0.00     0.167 HD
BRANCH  16  18
HETATM   18  C   UNK N   1      19.534  18.186   3.016  0.00  0.00     0.102 C 
BRANCH  18  19
HETATM   19  N   UNK N   1      18.712  18.895   2.336  0.00  0.00    -0.385 N 
HETATM   20  H   UNK N   1      18.983  19.546   1.649  0.00  0.00     0.157 HD
ATOM     21  HN  UNK N   1      17.715  18.779   2.518  1.00  0.00     0.157 HD
ENDBRANCH  18  19
BRANCH  18  22
HETATM   22  N   UNK N   1      19.149  16.891   3.438  0.00  0.00    -0.385 N 
HETATM   23  H   UNK N   1      18.418  16.751   4.082  0.00  0.00     0.157 HD
HETATM   24  H   UNK N   1      19.625  16.108   3.077  0.00  0.00     0.157 HD
ENDBRANCH  18  22
ENDBRANCH  16  18
ENDBRANCH   1   7
BRANCH   6  25
HETATM   25  O   UNK N   1      27.000  19.008   6.383  0.00  0.00    -0.359 OA
HETATM   26  H   UNK N   1      27.237  19.068   7.288  0.00  0.00     0.217 HD
ENDBRANCH   6  25
BRANCH   3  27
HETATM   27  C   UNK N   1      28.806  15.377   2.478  0.00  0.00     0.141 C 
BRANCH  27  28
HETATM   28  C   UNK N   1      29.619  14.313   3.130  0.00  0.00     0.222 C 
HETATM   29  O   UNK N   1      29.132  13.205   3.309  0.00  0.00    -0.273 OA
HETATM   30  N   UNK N   1      30.924  14.562   3.412  0.00  0.00    -0.346 N 
HETATM   31  H   UNK N   1      31.234  15.494   3.368  0.00  0.00     0.163 HD
BRANCH  30  32
HETATM   32  C   UNK N   1      31.887  13.542   3.774  0.00  0.00     0.192 C 
BRANCH  32  33
HETATM   33  C   UNK N   1      33.324  13.966   3.494  0.00  0.00     0.146 C 
BRANCH  33  34
HETATM   34  C   UNK N   1      33.437  15.449   3.440  0.00  0.00     0.141 C 
HETATM   35  O   UNK N   1      33.552  16.008   2.363  0.00  0.00    -0.650 OA
BRANCH  34  36
HETATM   36  O   UNK N   1      33.395  16.174   4.573  0.00  0.00    -0.776 OA
HETATM   37  H   UNK N   1      32.867  15.889   5.293  0.00  0.00     0.167 HD
ENDBRANCH  34  36
ENDBRANCH  33  34
ENDBRANCH  32  33
BRANCH  32  38
HETATM   38  C   UNK N   1      31.701  13.146   5.207  0.00  0.00     0.164 C 
HETATM   39  O   UNK N   1      31.610  14.010   6.062  0.00  0.00    -0.648 OA
BRANCH  38  40
HETATM   40  O   UNK N   1      31.660  11.847   5.562  0.00  0.00    -0.775 OA
HETATM   41  H   UNK N   1      32.289  11.172   5.728  0.00  0.00     0.167 HD
ENDBRANCH  38  40
ENDBRANCH  32  38
ENDBRANCH  30  32
ENDBRANCH  27  28
ENDBRANCH   3  27
BRANCH   5  42
HETATM   42  C   UNK N   1      29.450  17.525   6.962  0.00  0.00     0.011 A 
HETATM   43  C   UNK N   1      30.850  17.691   6.862  0.00  0.00     0.040 A 
HETATM   44  C   UNK N   1      31.644  17.777   8.022  0.00  0.00     0.080 A 
HETATM   45  C   UNK N   1      31.051  17.705   9.277  0.00  0.00     0.028 A 
HETATM   46  C   UNK N   1      29.688  17.506   9.397  0.00  0.00     0.039 A 
HETATM   47  C   UNK N   1      28.885  17.397   8.266  0.00  0.00     0.076 A 
BRANCH  44  48
HETATM   48  S   UNK N   1      33.427  17.946   7.965  0.00  0.00     0.256 S 
HETATM   49  O   UNK N   1      34.305  17.900   6.708  0.00  0.00    -0.201 OA
HETATM   50  O   UNK N   1      34.278  17.489   9.158  0.00  0.00    -0.201 OA
BRANCH  48  51
HETATM   51  N   UNK N   1      33.249  16.216   7.661  0.00  0.00    -0.324 N 
HETATM   52  H   UNK N   1      33.028  15.225   7.763  0.00  0.00     0.169 HD
HETATM   53  H   UNK N   1      33.647  16.186   6.723  0.00  0.00     0.169 HD
ENDBRANCH  48  51
ENDBRANCH  44  48
BRANCH  47  54
HETATM   54  O   UNK N   1      27.593  17.092   8.460  0.00  0.00    -0.360 OA
HETATM   55  H   UNK N   1      27.251  16.257   8.207  0.00  0.00     0.217 HD
ENDBRANCH  47  54
ENDBRANCH   5  42
TORSDOF 17
ENDMDL
MODEL 8
REMARK VINA RESULT:      -7.7      3.592      6.213
REMARK  17 active torsions:
REMARK  status: ('A' for Active; 'I' for Inactive)
REMARK    1  A    between atoms: C_6  and  C_7 
REMARK    2  A    between atoms: C_7  and  N_8 
REMARK    3  A    between atoms: C_7  and  N_10 
REMARK    4  A    between atoms: C_12  and  C_15 
REMARK    5  A    between atoms: C_17  and  C_33 
REMARK    6  A    between atoms: C_19  and  C_22 
REMARK    7  A    between atoms: C_20  and  O_21 
REMARK    8  A    between atoms: C_24  and  S_29 
REMARK    9  A    between atoms: C_27  and  O_28 
REMARK   10  A    between atoms: S_29  and  N_32 
REMARK   11  A    between atoms: C_33  and  C_34 
REMARK       I    between atoms: C_34  and  N_36 
REMARK   12  A    between atoms: C_37  and  N_36 
REMARK   13  A    between atoms: C_37  and  C_38 
REMARK   14  A    between atoms: C_37  and  C_42 
REMARK   15  A    between atoms: C_38  and  C_39 
REMARK   16  A    between atoms: C_39  and  O_41 
REMARK   17  A    between atoms: C_42  and  O_44 
ROOT
HETATM    1  C   UNK N   1      26.060  15.798   6.295  0.00  0.00     0.043 A 
HETATM    2  C   UNK N   1      25.901  14.534   6.866  0.00  0.00     0.025 A 
HETATM    3  C   UNK N   1      24.659  13.906   6.838  0.00  0.00    -0.048 A 
HETATM    4  C   UNK N   1      23.574  14.518   6.189  0.00  0.00     0.022 A 
HETATM    5  C   UNK N   1      23.705  15.778   5.590  0.00  0.00     0.011 A 
HETATM    6  C   UNK N   1      24.954  16.440   5.693  0.00  0.00     0.090 A 
ENDROOT
BRANCH   1   7
HETATM    7  C   UNK N   1      27.412  16.386   6.177  0.00  0.00     0.119 A 
HETATM    8  N   UNK N   1      28.151  16.253   5.048  0.00  0.00    -0.340 N 
HETATM    9  C   UNK N   1      29.381  16.596   5.419  0.00  0.00     0.061 A 
HETATM   10  H   UNK N   1      27.847  15.970   4.156  0.00  0.00     0.167 HD
HETATM   11  C   UNK N   1      29.389  16.940   6.731  0.00  0.00     0.060 A 
HETATM   12  C   UNK N   1      30.533  16.500   4.659  0.00  0.00     0.047 A 
HETATM   13  C   UNK N   1      30.569  17.252   7.397  0.00  0.00     0.033 A 
HETATM   14  N   UNK N   1      28.148  16.820   7.236  0.00  0.00    -0.340 N 
HETATM   15  C   UNK N   1      31.772  17.160   6.661  0.00  0.00     0.017 A 
HETATM   16  C   UNK N   1      31.758  16.770   5.292  0.00  0.00     0.009 A 
ATOM     17  HN  UNK N   1      27.833  17.008   8.188  1.00  0.00     0.167 HD
BRANCH  16  18
HETATM   18  C   UNK N   1      33.013  16.569   4.539  0.00  0.00     0.102 C 
BRANCH  18  19
HETATM   19  N   UNK N   1      33.076  16.863   3.294  0.00  0.00    -0.385 N 
HETATM   20  H   UNK N   1      33.586  17.624   2.931  0.00  0.00     0.157 HD
ATOM     21  HN  UNK N   1      32.566  16.273   2.637  1.00  0.00     0.157 HD
ENDBRANCH  18  19
BRANCH  18  22
HETATM   22  N   UNK N   1      34.187  16.161   5.216  0.00  0.00    -0.385 N 
HETATM   23  H   UNK N   1      34.733  15.406   4.898  0.00  0.00     0.157 HD
HETATM   24  H   UNK N   1      34.465  16.645   6.028  0.00  0.00     0.157 HD
ENDBRANCH  18  22
ENDBRANCH  16  18
ENDBRANCH   1   7
BRANCH   6  25
HETATM   25  O   UNK N   1      25.097  17.690   5.223  0.00  0.00    -0.359 OA
HETATM   26  H   UNK N   1      25.884  18.200   5.209  0.00  0.00     0.217 HD
ENDBRANCH   6  25
BRANCH   3  27
HETATM   27  C   UNK N   1      24.483  12.581   7.506  0.00  0.00     0.141 C 
BRANCH  27  28
HETATM   28  C   UNK N   1      23.890  12.824   8.851  0.00  0.00     0.222 C 
HETATM   29  O   UNK N   1      24.619  13.118   9.788  0.00  0.00    -0.273 OA
HETATM   30  N   UNK N   1      22.539  12.823   8.985  0.00  0.00    -0.346 N 
HETATM   31  H   UNK N   1      22.004  12.462   8.242  0.00  0.00     0.163 HD
BRANCH  30  32
HETATM   32  C   UNK N   1      21.836  13.319  10.150  0.00  0.00     0.192 C 
BRANCH  32  33
HETATM   33  C   UNK N   1      20.551  14.057   9.791  0.00  0.00     0.146 C 
BRANCH  33  34
HETATM   34  C   UNK N   1      20.636  14.630   8.421  0.00  0.00     0.141 C 
HETATM   35  O   UNK N   1      21.137  15.728   8.255  0.00  0.00    -0.650 OA
BRANCH  34  36
HETATM   36  O   UNK N   1      20.177  13.933   7.365  0.00  0.00    -0.776 OA
HETATM   37  H   UNK N   1      19.585  14.335   6.759  0.00  0.00     0.167 HD
ENDBRANCH  34  36
ENDBRANCH  33  34
ENDBRANCH  32  33
BRANCH  32  38
HETATM   38  C   UNK N   1      21.575  12.197  11.108  0.00  0.00     0.164 C 
HETATM   39  O   UNK N   1      20.485  12.109  11.648  0.00  0.00    -0.648 OA
BRANCH  38  40
HETATM   40  O   UNK N   1      22.539  11.301  11.398  0.00  0.00    -0.775 OA
HETATM   41  H   UNK N   1      23.442  11.338  11.646  0.00  0.00     0.167 HD
ENDBRANCH  38  40
ENDBRANCH  32  38
ENDBRANCH  30  32
ENDBRANCH  27  28
ENDBRANCH   3  27
BRANCH   5  42
HETATM   42  C   UNK N   1      22.536  16.343   4.825  0.00  0.00     0.011 A 
HETATM   43  C   UNK N   1      22.223  15.815   3.552  0.00  0.00     0.040 A 
HETATM   44  C   UNK N   1      21.160  16.351   2.797  0.00  0.00     0.080 A 
HETATM   45  C   UNK N   1      20.407  17.402   3.307  0.00  0.00     0.028 A 
HETATM   46  C   UNK N   1      20.719  17.957   4.535  0.00  0.00     0.039 A 
HETATM   47  C   UNK N   1      21.777  17.460   5.289  0.00  0.00     0.076 A 
BRANCH  44  48
HETATM   48  S   UNK N   1      20.738  15.755   1.161  0.00  0.00     0.256 S 
HETATM   49  O   UNK N   1      19.654  16.325   0.238  0.00  0.00    -0.201 OA
HETATM   50  O   UNK N   1      20.929  14.272   0.814  0.00  0.00    -0.201 OA
BRANCH  48  51
HETATM   51  N   UNK N   1      19.355  15.172   2.092  0.00  0.00    -0.324 N 
HETATM   52  H   UNK N   1      18.777  14.708   2.792  0.00  0.00     0.169 HD
HETATM   53  H   UNK N   1      18.612  15.606   1.545  0.00  0.00     0.169 HD
ENDBRANCH  48  51
ENDBRANCH  44  48
BRANCH  47  54
HETATM   54  O   UNK N   1      22.091  18.120   6.414  0.00  0.00    -0.360 OA
HETATM   55  H   UNK N   1      21.779  17.828   7.248  0.00  0.00     0.217 HD
ENDBRANCH  47  54
ENDBRANCH   5  42
TORSDOF 17
ENDMDL
MODEL 9
REMARK VINA RESULT:      -7.7      8.734     13.994
REMARK  17 active torsions:
REMARK  status: ('A' for Active; 'I' for Inactive)
REMARK    1  A    between atoms: C_6  and  C_7 
REMARK    2  A    between atoms: C_7  and  N_8 
REMARK    3  A    between atoms: C_7  and  N_10 
REMARK    4  A    between atoms: C_12  and  C_15 
REMARK    5  A    between atoms: C_17  and  C_33 
REMARK    6  A    between atoms: C_19  and  C_22 
REMARK    7  A    between atoms: C_20  and  O_21 
REMARK    8  A    between atoms: C_24  and  S_29 
REMARK    9  A    between atoms: C_27  and  O_28 
REMARK   10  A    between atoms: S_29  and  N_32 
REMARK   11  A    between atoms: C_33  and  C_34 
REMARK       I    between atoms: C_34  and  N_36 
REMARK   12  A    between atoms: C_37  and  N_36 
REMARK   13  A    between atoms: C_37  and  C_38 
REMARK   14  A    between atoms: C_37  and  C_42 
REMARK   15  A    between atoms: C_38  and  C_39 
REMARK   16  A    between atoms: C_39  and  O_41 
REMARK   17  A    between atoms: C_42  and  O_44 
ROOT
HETATM    1  C   UNK N   1      35.966  13.108  12.021  0.00  0.00     0.043 A 
HETATM    2  C   UNK N   1      37.283  12.895  11.609  0.00  0.00     0.025 A 
HETATM    3  C   UNK N   1      37.742  13.457  10.420  0.00  0.00    -0.048 A 
HETATM    4  C   UNK N   1      36.898  14.284   9.660  0.00  0.00     0.022 A 
HETATM    5  C   UNK N   1      35.578  14.533  10.057  0.00  0.00     0.011 A 
HETATM    6  C   UNK N   1      35.100  13.893  11.227  0.00  0.00     0.090 A 
ENDROOT
BRANCH   1   7
HETATM    7  C   UNK N   1      35.533  12.653  13.361  0.00  0.00     0.119 A 
HETATM    8  N   UNK N   1      35.271  13.529  14.362  0.00  0.00    -0.340 N 
HETATM    9  C   UNK N   1      35.249  12.778  15.458  0.00  0.00     0.061 A 
HETATM   10  H   UNK N   1      35.128  14.501  14.292  0.00  0.00     0.167 HD
HETATM   11  C   UNK N   1      35.476  11.481  15.134  0.00  0.00     0.060 A 
HETATM   12  C   UNK N   1      35.149  13.221  16.764  0.00  0.00     0.047 A 
HETATM   13  C   UNK N   1      35.598  10.495  16.108  0.00  0.00     0.033 A 
HETATM   14  N   UNK N   1      35.657  11.373  13.805  0.00  0.00    -0.340 N 
HETATM   15  C   UNK N   1      35.510  10.904  17.458  0.00  0.00     0.017 A 
HETATM   16  C   UNK N   1      35.299  12.273  17.790  0.00  0.00     0.009 A 
ATOM     17  HN  UNK N   1      35.843  10.531  13.260  1.00  0.00     0.167 HD
BRANCH  16  18
HETATM   18  C   UNK N   1      35.310  12.731  19.195  0.00  0.00     0.102 C 
BRANCH  18  19
HETATM   19  N   UNK N   1      34.919  13.914  19.493  0.00  0.00    -0.385 N 
HETATM   20  H   UNK N   1      34.373  14.132  20.283  0.00  0.00     0.157 HD
ATOM     21  HN  UNK N   1      35.189  14.678  18.874  1.00  0.00     0.157 HD
ENDBRANCH  18  19
BRANCH  18  22
HETATM   22  N   UNK N   1      35.640  11.826  20.231  0.00  0.00    -0.385 N 
HETATM   23  H   UNK N   1      34.966  11.503  20.871  0.00  0.00     0.157 HD
HETATM   24  H   UNK N   1      36.570  11.511  20.315  0.00  0.00     0.157 HD
ENDBRANCH  18  22
ENDBRANCH  16  18
ENDBRANCH   1   7
BRANCH   6  25
HETATM   25  O   UNK N   1      33.813  14.020  11.590  0.00  0.00    -0.359 OA
HETATM   26  H   UNK N   1      33.465  13.966  12.459  0.00  0.00     0.217 HD
ENDBRANCH   6  25
BRANCH   3  27
HETATM   27  C   UNK N   1      39.132  13.173   9.955  0.00  0.00     0.141 C 
BRANCH  27  28
HETATM   28  C   UNK N   1      39.056  12.725   8.536  0.00  0.00     0.222 C 
HETATM   29  O   UNK N   1      38.513  11.662   8.267  0.00  0.00    -0.273 OA
HETATM   30  N   UNK N   1      39.491  13.559   7.558  0.00  0.00    -0.346 N 
HETATM   31  H   UNK N   1      40.028  14.340   7.824  0.00  0.00     0.163 HD
BRANCH  30  32
HETATM   32  C   UNK N   1      39.216  13.375   6.148  0.00  0.00     0.192 C 
BRANCH  32  33
HETATM   33  C   UNK N   1      38.390  14.512   5.557  0.00  0.00     0.146 C 
BRANCH  33  34
HETATM   34  C   UNK N   1      36.947  14.338   5.875  0.00  0.00     0.141 C 
HETATM   35  O   UNK N   1      36.169  15.255   5.675  0.00  0.00    -0.650 OA
BRANCH  34  36
HETATM   36  O   UNK N   1      36.497  13.169   6.366  0.00  0.00    -0.776 OA
HETATM   37  H   UNK N   1      36.914  12.781   7.111  0.00  0.00     0.167 HD
ENDBRANCH  34  36
ENDBRANCH  33  34
ENDBRANCH  32  33
BRANCH  32  38
HETATM   38  C   UNK N   1      40.497  13.179   5.396  0.00  0.00     0.164 C 
HETATM   39  O   UNK N   1      41.490  13.806   5.727  0.00  0.00    -0.648 OA
BRANCH  38  40
HETATM   40  O   UNK N   1      40.557  12.339   4.344  0.00  0.00    -0.775 OA
HETATM   41  H   UNK N   1      41.096  11.617   4.087  0.00  0.00     0.167 HD
ENDBRANCH  38  40
ENDBRANCH  32  38
ENDBRANCH  30  32
ENDBRANCH  27  28
ENDBRANCH   3  27
BRANCH   5  42
HETATM   42  C   UNK N   1      34.750  15.505   9.255  0.00  0.00     0.011 A 
HETATM   43  C   UNK N   1      33.925  15.017   8.216  0.00  0.00     0.040 A 
HETATM   44  C   UNK N   1      33.171  15.906   7.425  0.00  0.00     0.080 A 
HETATM   45  C   UNK N   1      33.231  17.274   7.667  0.00  0.00     0.028 A 
HETATM   46  C   UNK N   1      34.061  17.774   8.654  0.00  0.00     0.039 A 
HETATM   47  C   UNK N   1      34.831  16.918   9.435  0.00  0.00     0.076 A 
BRANCH  44  48
HETATM   48  S   UNK N   1      32.138  15.357   6.068  0.00  0.00     0.256 S 
HETATM   49  O   UNK N   1      31.193  14.149   6.075  0.00  0.00    -0.201 OA
HETATM   50  O   UNK N   1      32.581  15.608   4.619  0.00  0.00    -0.201 OA
BRANCH  48  51
HETATM   51  N   UNK N   1      33.397  14.119   6.047  0.00  0.00    -0.324 N 
HETATM   52  H   UNK N   1      33.913  13.255   5.879  0.00  0.00     0.169 HD
HETATM   53  H   UNK N   1      34.112  14.622   6.572  0.00  0.00     0.169 HD
ENDBRANCH  48  51
ENDBRANCH  44  48
BRANCH  47  54
HETATM   54  O   UNK N   1      35.693  17.482  10.294  0.00  0.00    -0.360 OA
HETATM   55  H   UNK N   1      36.389  16.984  10.676  0.00  0.00     0.217 HD
ENDBRANCH  47  54
ENDBRANCH   5  42
TORSDOF 17
ENDMDL
