MODEL 1
REMARK VINA RESULT:      -7.2      0.000      0.000
REMARK  2 active torsions:
REMARK  status: ('A' for Active; 'I' for Inactive)
REMARK    1  A    between atoms: C_12  and  C_10 
REMARK       I    between atoms: N_16  and  C_14 
REMARK       I    between atoms: N_25  and  C_15 
REMARK    2  A    between atoms: S_30  and  N_26 
ROOT
HETATM    1  C   UNK N   1      35.226  14.698   7.201  0.00  0.00     0.066 A 
HETATM    2  C   UNK N   1      35.095  14.740   5.650  0.00  0.00     0.148 A 
HETATM    3  C   UNK N   1      29.897  17.785   9.472  0.00  0.00     0.167 C 
HETATM    4  C   UNK N   1      29.572  17.776   7.014  0.00  0.00     0.167 C 
HETATM    5  C   UNK N   1      28.454  17.279   9.555  0.00  0.00     0.188 C 
HETATM    6  C   UNK N   1      28.161  17.263   7.308  0.00  0.00     0.188 C 
HETATM    7  C   UNK N   1      33.984  15.395   7.660  0.00  0.00     0.017 A 
HETATM    8  C   UNK N   1      33.573  15.752   8.956  0.00  0.00     0.072 A 
HETATM    9  C   UNK N   1      33.222  15.741   6.601  0.00  0.00     0.141 A 
HETATM   10  C   UNK N   1      31.627  16.757   7.993  0.00  0.00     0.682 A 
HETATM   11  N   UNK N   1      32.390  16.428   9.085  0.00  0.00    -0.190 N 
ATOM     12  HN  UNK N   1      32.068  16.695  10.015  1.00  0.00     0.184 HD
HETATM   13  N   UNK N   1      32.059  16.422   6.742  0.00  0.00    -0.175 N 
ATOM     14  HN  UNK N   1      31.510  16.680   5.921  1.00  0.00     0.186 HD
HETATM   15  N   UNK N   1      30.404  17.463   8.156  0.00  0.00    -0.213 N 
HETATM   16  N   UNK N   1      33.804  15.359   5.388  0.00  0.00    -0.260 N 
HETATM   17  O   UNK N   1      27.697  17.841   8.507  0.00  0.00    -0.388 OA
ENDROOT
BRANCH   8  18
HETATM   18  C   UNK N   1      34.394  15.467  10.163  0.00  0.00     0.024 A 
HETATM   19  C   UNK N   1      35.458  16.306  10.509  0.00  0.00     0.121 A 
HETATM   20  N   UNK N   1      36.237  16.015  11.584  0.00  0.00    -0.201 N 
HETATM   21  C   UNK N   1      35.996  14.913  12.343  0.00  0.00     0.675 A 
HETATM   22  H   UNK N   1      36.986  16.611  11.816  0.00  0.00     0.183 HD
HETATM   23  N   UNK N   1      36.745  14.652  13.344  0.00  0.00    -0.234 N 
HETATM   24  N   UNK N   1      34.963  14.089  12.034  0.00  0.00    -0.201 N 
HETATM   25  H   UNK N   1      36.668  13.783  13.802  0.00  0.00     0.174 HD
ATOM     26  HN  UNK N   1      37.422  15.342  13.670  1.00  0.00     0.174 HD
HETATM   27  C   UNK N   1      34.167  14.343  10.965  0.00  0.00     0.121 A 
ATOM     28  HN  UNK N   1      34.783  13.268  12.614  1.00  0.00     0.183 HD
ENDBRANCH   8  18
BRANCH  16  29
HETATM   29  S   UNK N   1      33.326  16.029   3.801  0.00  0.00     0.230 S 
HETATM   30  C   UNK N   1      31.955  17.117   3.329  0.00  0.00     0.186 C 
HETATM   31  O   UNK N   1      33.278  17.325   4.627  0.00  0.00    -0.206 OA
HETATM   32  O   UNK N   1      31.961  15.432   4.182  0.00  0.00    -0.206 OA
ENDBRANCH  16  29
TORSDOF 2
ENDMDL
MODEL 2
REMARK VINA RESULT:      -6.9      8.055     13.018
REMARK  2 active torsions:
REMARK  status: ('A' for Active; 'I' for Inactive)
REMARK    1  A    between atoms: C_12  and  C_10 
REMARK       I    between atoms: N_16  and  C_14 
REMARK       I    between atoms: N_25  and  C_15 
REMARK    2  A    between atoms: S_30  and  N_26 
ROOT
HETATM    1  C   UNK N   1      20.031  16.657   5.271  0.00  0.00     0.066 A 
HETATM    2  C   UNK N   1      19.826  15.687   6.471  0.00  0.00     0.148 A 
HETATM    3  C   UNK N   1      26.534  17.115   4.506  0.00  0.00     0.167 C 
HETATM    4  C   UNK N   1      26.269  15.470   6.343  0.00  0.00     0.167 C 
HETATM    5  C   UNK N   1      27.504  16.104   3.887  0.00  0.00     0.188 C 
HETATM    6  C   UNK N   1      27.254  14.598   5.562  0.00  0.00     0.188 C 
HETATM    7  C   UNK N   1      21.520  16.708   5.132  0.00  0.00     0.017 A 
HETATM    8  C   UNK N   1      22.324  17.486   4.282  0.00  0.00     0.072 A 
HETATM    9  C   UNK N   1      22.103  15.889   6.033  0.00  0.00     0.141 A 
HETATM   10  C   UNK N   1      24.249  16.507   5.311  0.00  0.00     0.682 A 
HETATM   11  N   UNK N   1      23.682  17.358   4.396  0.00  0.00    -0.190 N 
ATOM     12  HN  UNK N   1      24.287  17.908   3.787  1.00  0.00     0.184 HD
HETATM   13  N   UNK N   1      23.449  15.780   6.145  0.00  0.00    -0.175 N 
ATOM     14  HN  UNK N   1      23.860  15.160   6.843  1.00  0.00     0.186 HD
HETATM   15  N   UNK N   1      25.664  16.397   5.410  0.00  0.00    -0.213 N 
HETATM   16  N   UNK N   1      21.160  15.234   6.834  0.00  0.00    -0.260 N 
HETATM   17  O   UNK N   1      28.194  15.425   4.912  0.00  0.00    -0.388 OA
ENDROOT
BRANCH   8  18
HETATM   18  C   UNK N   1      21.755  18.462   3.315  0.00  0.00     0.024 A 
HETATM   19  C   UNK N   1      20.804  18.054   2.374  0.00  0.00     0.121 A 
HETATM   20  N   UNK N   1      20.323  18.937   1.459  0.00  0.00    -0.201 N 
HETATM   21  C   UNK N   1      20.750  20.228   1.444  0.00  0.00     0.675 A 
HETATM   22  H   UNK N   1      19.657  18.638   0.799  0.00  0.00     0.183 HD
HETATM   23  N   UNK N   1      20.292  21.041   0.572  0.00  0.00    -0.234 N 
HETATM   24  N   UNK N   1      21.663  20.652   2.354  0.00  0.00    -0.201 N 
HETATM   25  H   UNK N   1      20.706  21.928   0.462  0.00  0.00     0.174 HD
ATOM     26  HN  UNK N   1      19.501  20.772  -0.012  1.00  0.00     0.174 HD
HETATM   27  C   UNK N   1      22.171  19.798   3.278  0.00  0.00     0.121 A 
ATOM     28  HN  UNK N   1      21.972  21.625   2.342  1.00  0.00     0.183 HD
ENDBRANCH   8  18
BRANCH  16  29
HETATM   29  S   UNK N   1      21.555  14.444   8.389  0.00  0.00     0.230 S 
HETATM   30  C   UNK N   1      20.513  14.013   9.807  0.00  0.00     0.186 C 
HETATM   31  O   UNK N   1      20.334  13.596   7.999  0.00  0.00    -0.206 OA
HETATM   32  O   UNK N   1      20.838  15.674   8.970  0.00  0.00    -0.206 OA
ENDBRANCH  16  29
TORSDOF 2
ENDMDL
MODEL 3
REMARK VINA RESULT:      -6.8      8.903     12.539
REMARK  2 active torsions:
REMARK  status: ('A' for Active; 'I' for Inactive)
REMARK    1  A    between atoms: C_12  and  C_10 
REMARK       I    between atoms: N_16  and  C_14 
REMARK       I    between atoms: N_25  and  C_15 
REMARK    2  A    between atoms: S_30  and  N_26 
ROOT
HETATM    1  C   UNK N   1      24.650  17.507   3.533  0.00  0.00     0.066 A 
HETATM    2  C   UNK N   1      25.779  16.576   4.066  0.00  0.00     0.148 A 
HETATM    3  C   UNK N   1      19.344  16.005   7.092  0.00  0.00     0.167 C 
HETATM    4  C   UNK N   1      21.130  14.586   8.065  0.00  0.00     0.167 C 
HETATM    5  C   UNK N   1      19.014  16.391   8.537  0.00  0.00     0.188 C 
HETATM    6  C   UNK N   1      20.652  15.100   9.424  0.00  0.00     0.188 C 
HETATM    7  C   UNK N   1      23.479  17.135   4.387  0.00  0.00     0.017 A 
HETATM    8  C   UNK N   1      22.143  17.565   4.326  0.00  0.00     0.072 A 
HETATM    9  C   UNK N   1      23.840  16.205   5.296  0.00  0.00     0.141 A 
HETATM   10  C   UNK N   1      21.653  16.089   6.145  0.00  0.00     0.682 A 
HETATM   11  N   UNK N   1      21.259  17.023   5.221  0.00  0.00    -0.190 N 
ATOM     12  HN  UNK N   1      20.284  17.322   5.201  1.00  0.00     0.184 HD
HETATM   13  N   UNK N   1      22.952  15.668   6.168  0.00  0.00    -0.175 N 
ATOM     14  HN  UNK N   1      23.252  14.958   6.837  1.00  0.00     0.186 HD
HETATM   15  N   UNK N   1      20.713  15.540   7.060  0.00  0.00    -0.213 N 
HETATM   16  N   UNK N   1      25.189  15.852   5.181  0.00  0.00    -0.260 N 
HETATM   17  O   UNK N   1      19.255  15.291   9.385  0.00  0.00    -0.388 OA
ENDROOT
BRANCH   8  18
HETATM   18  C   UNK N   1      21.658  18.533   3.306  0.00  0.00     0.024 A 
HETATM   19  C   UNK N   1      20.759  18.125   2.315  0.00  0.00     0.121 A 
HETATM   20  N   UNK N   1      20.357  19.000   1.355  0.00  0.00    -0.201 N 
HETATM   21  C   UNK N   1      20.813  20.280   1.343  0.00  0.00     0.675 A 
HETATM   22  H   UNK N   1      19.728  18.701   0.660  0.00  0.00     0.183 HD
HETATM   23  N   UNK N   1      20.430  21.085   0.427  0.00  0.00    -0.234 N 
HETATM   24  N   UNK N   1      21.676  20.703   2.300  0.00  0.00    -0.201 N 
HETATM   25  H   UNK N   1      20.869  21.961   0.327  0.00  0.00     0.174 HD
ATOM     26  HN  UNK N   1      19.671  20.821  -0.200  1.00  0.00     0.174 HD
HETATM   27  C   UNK N   1      22.106  19.858   3.271  0.00  0.00     0.121 A 
ATOM     28  HN  UNK N   1      22.007  21.669   2.289  1.00  0.00     0.183 HD
ENDBRANCH   8  18
BRANCH  16  29
HETATM   29  S   UNK N   1      25.892  14.369   5.889  0.00  0.00     0.230 S 
HETATM   30  C   UNK N   1      25.163  13.087   6.942  0.00  0.00     0.186 C 
HETATM   31  O   UNK N   1      24.613  13.759   5.293  0.00  0.00    -0.206 OA
HETATM   32  O   UNK N   1      25.315  14.953   7.189  0.00  0.00    -0.206 OA
ENDBRANCH  16  29
TORSDOF 2
ENDMDL
MODEL 4
REMARK VINA RESULT:      -6.6      3.840      5.251
REMARK  2 active torsions:
REMARK  status: ('A' for Active; 'I' for Inactive)
REMARK    1  A    between atoms: C_12  and  C_10 
REMARK       I    between atoms: N_16  and  C_14 
REMARK       I    between atoms: N_25  and  C_15 
REMARK    2  A    between atoms: S_30  and  N_26 
ROOT
HETATM    1  C   UNK N   1      30.872  14.311   5.330  0.00  0.00     0.066 A 
HETATM    2  C   UNK N   1      30.087  13.402   4.339  0.00  0.00     0.148 A 
HETATM    3  C   UNK N   1      27.823  20.121   5.138  0.00  0.00     0.167 C 
HETATM    4  C   UNK N   1      26.462  18.688   3.639  0.00  0.00     0.167 C 
HETATM    5  C   UNK N   1      26.492  20.531   5.775  0.00  0.00     0.188 C 
HETATM    6  C   UNK N   1      25.250  19.215   4.411  0.00  0.00     0.188 C 
HETATM    7  C   UNK N   1      30.126  15.607   5.259  0.00  0.00     0.017 A 
HETATM    8  C   UNK N   1      30.405  16.846   5.859  0.00  0.00     0.072 A 
HETATM    9  C   UNK N   1      29.066  15.491   4.431  0.00  0.00     0.141 A 
HETATM   10  C   UNK N   1      28.483  17.743   4.752  0.00  0.00     0.682 A 
HETATM   11  N   UNK N   1      29.563  17.890   5.587  0.00  0.00    -0.190 N 
ATOM     12  HN  UNK N   1      29.741  18.799   6.014  1.00  0.00     0.184 HD
HETATM   13  N   UNK N   1      28.246  16.535   4.160  0.00  0.00    -0.175 N 
ATOM     14  HN  UNK N   1      27.459  16.421   3.522  1.00  0.00     0.186 HD
HETATM   15  N   UNK N   1      27.626  18.846   4.484  0.00  0.00    -0.213 N 
HETATM   16  N   UNK N   1      28.968  14.209   3.878  0.00  0.00    -0.260 N 
HETATM   17  O   UNK N   1      25.485  20.553   4.789  0.00  0.00    -0.388 OA
ENDROOT
BRANCH   8  18
HETATM   18  C   UNK N   1      31.594  17.066   6.725  0.00  0.00     0.024 A 
HETATM   19  C   UNK N   1      31.486  16.961   8.116  0.00  0.00     0.121 A 
HETATM   20  N   UNK N   1      32.563  17.212   8.907  0.00  0.00    -0.201 N 
HETATM   21  C   UNK N   1      33.760  17.562   8.365  0.00  0.00     0.675 A 
HETATM   22  H   UNK N   1      32.474  17.139   9.884  0.00  0.00     0.183 HD
HETATM   23  N   UNK N   1      34.758  17.802   9.125  0.00  0.00    -0.234 N 
HETATM   24  N   UNK N   1      33.894  17.660   7.018  0.00  0.00    -0.201 N 
HETATM   25  H   UNK N   1      35.578  18.199   8.750  0.00  0.00     0.174 HD
ATOM     26  HN  UNK N   1      34.707  17.584  10.120  1.00  0.00     0.174 HD
HETATM   27  C   UNK N   1      32.840  17.423   6.197  0.00  0.00     0.121 A 
ATOM     28  HN  UNK N   1      34.798  17.914   6.619  1.00  0.00     0.183 HD
ENDBRANCH   8  18
BRANCH  16  29
HETATM   29  S   UNK N   1      27.991  13.824   2.431  0.00  0.00     0.230 S 
HETATM   30  C   UNK N   1      26.677  12.603   2.169  0.00  0.00     0.186 C 
HETATM   31  O   UNK N   1      26.853  13.938   3.458  0.00  0.00    -0.206 OA
HETATM   32  O   UNK N   1      28.467  12.393   2.735  0.00  0.00    -0.206 OA
ENDBRANCH  16  29
TORSDOF 2
ENDMDL
MODEL 5
REMARK VINA RESULT:      -6.6     14.605     18.219
REMARK  2 active torsions:
REMARK  status: ('A' for Active; 'I' for Inactive)
REMARK    1  A    between atoms: C_12  and  C_10 
REMARK       I    between atoms: N_16  and  C_14 
REMARK       I    between atoms: N_25  and  C_15 
REMARK    2  A    between atoms: S_30  and  N_26 
ROOT
HETATM    1  C   UNK N   1      25.799  25.980  -7.560  0.00  0.00     0.066 A 
HETATM    2  C   UNK N   1      25.564  24.840  -8.595  0.00  0.00     0.148 A 
HETATM    3  C   UNK N   1      30.011  23.500  -3.179  0.00  0.00     0.167 C 
HETATM    4  C   UNK N   1      29.772  21.691  -4.859  0.00  0.00     0.167 C 
HETATM    5  C   UNK N   1      31.520  23.277  -3.315  0.00  0.00     0.188 C 
HETATM    6  C   UNK N   1      31.300  21.630  -4.856  0.00  0.00     0.188 C 
HETATM    7  C   UNK N   1      26.773  25.368  -6.604  0.00  0.00     0.017 A 
HETATM    8  C   UNK N   1      27.300  25.871  -5.402  0.00  0.00     0.072 A 
HETATM    9  C   UNK N   1      27.108  24.124  -7.008  0.00  0.00     0.141 A 
HETATM   10  C   UNK N   1      28.491  23.813  -5.136  0.00  0.00     0.682 A 
HETATM   11  N   UNK N   1      28.156  25.069  -4.696  0.00  0.00    -0.190 N 
ATOM     12  HN  UNK N   1      28.555  25.413  -3.823  1.00  0.00     0.184 HD
HETATM   13  N   UNK N   1      27.947  23.336  -6.294  0.00  0.00    -0.175 N 
ATOM     14  HN  UNK N   1      28.173  22.395  -6.619  1.00  0.00     0.186 HD
HETATM   15  N   UNK N   1      29.380  23.000  -4.381  0.00  0.00    -0.213 N 
HETATM   16  N   UNK N   1      26.453  23.762  -8.190  0.00  0.00    -0.260 N 
HETATM   17  O   UNK N   1      31.775  21.912  -3.559  0.00  0.00    -0.388 OA
ENDROOT
BRANCH   8  18
HETATM   18  C   UNK N   1      26.922  27.203  -4.858  0.00  0.00     0.024 A 
HETATM   19  C   UNK N   1      27.519  28.366  -5.356  0.00  0.00     0.121 A 
HETATM   20  N   UNK N   1      27.208  29.577  -4.822  0.00  0.00    -0.201 N 
HETATM   21  C   UNK N   1      26.313  29.682  -3.805  0.00  0.00     0.675 A 
HETATM   22  H   UNK N   1      27.638  30.388  -5.178  0.00  0.00     0.183 HD
HETATM   23  N   UNK N   1      26.040  30.828  -3.312  0.00  0.00    -0.234 N 
HETATM   24  N   UNK N   1      25.711  28.570  -3.313  0.00  0.00    -0.201 N 
HETATM   25  H   UNK N   1      25.511  30.893  -2.483  0.00  0.00     0.174 HD
ATOM     26  HN  UNK N   1      26.370  31.675  -3.774  1.00  0.00     0.174 HD
HETATM   27  C   UNK N   1      26.000  27.343  -3.814  0.00  0.00     0.121 A 
ATOM     28  HN  UNK N   1      25.032  28.658  -2.555  1.00  0.00     0.183 HD
ENDBRANCH   8  18
BRANCH  16  29
HETATM   29  S   UNK N   1      26.298  22.076  -8.764  0.00  0.00     0.230 S 
HETATM   30  C   UNK N   1      26.713  21.313 -10.355  0.00  0.00     0.186 C 
HETATM   31  O   UNK N   1      27.751  22.336  -9.192  0.00  0.00    -0.206 OA
HETATM   32  O   UNK N   1      25.562  22.750  -9.934  0.00  0.00    -0.206 OA
ENDBRANCH  16  29
TORSDOF 2
ENDMDL
MODEL 6
REMARK VINA RESULT:      -6.6      6.769     11.165
REMARK  2 active torsions:
REMARK  status: ('A' for Active; 'I' for Inactive)
REMARK    1  A    between atoms: C_12  and  C_10 
REMARK       I    between atoms: N_16  and  C_14 
REMARK       I    between atoms: N_25  and  C_15 
REMARK    2  A    between atoms: S_30  and  N_26 
ROOT
HETATM    1  C   UNK N   1      25.027  18.526   3.944  0.00  0.00     0.066 A 
HETATM    2  C   UNK N   1      26.569  18.513   4.160  0.00  0.00     0.148 A 
HETATM    3  C   UNK N   1      22.733  13.530   7.530  0.00  0.00     0.167 C 
HETATM    4  C   UNK N   1      25.166  13.535   8.010  0.00  0.00     0.167 C 
HETATM    5  C   UNK N   1      22.544  13.442   9.048  0.00  0.00     0.188 C 
HETATM    6  C   UNK N   1      24.768  13.455   9.485  0.00  0.00     0.188 C 
HETATM    7  C   UNK N   1      24.560  17.386   4.793  0.00  0.00     0.017 A 
HETATM    8  C   UNK N   1      23.276  16.836   4.944  0.00  0.00     0.072 A 
HETATM    9  C   UNK N   1      25.604  16.827   5.441  0.00  0.00     0.141 A 
HETATM   10  C   UNK N   1      24.215  15.212   6.429  0.00  0.00     0.682 A 
HETATM   11  N   UNK N   1      23.140  15.753   5.770  0.00  0.00    -0.190 N 
ATOM     12  HN  UNK N   1      22.217  15.339   5.900  1.00  0.00     0.184 HD
HETATM   13  N   UNK N   1      25.458  15.748   6.247  0.00  0.00    -0.175 N 
ATOM     14  HN  UNK N   1      26.267  15.340   6.715  1.00  0.00     0.186 HD
HETATM   15  N   UNK N   1      24.045  14.085   7.279  0.00  0.00    -0.213 N 
HETATM   16  N   UNK N   1      26.813  17.462   5.136  0.00  0.00    -0.260 N 
HETATM   17  O   UNK N   1      23.593  12.685   9.609  0.00  0.00    -0.388 OA
ENDROOT
BRANCH   8  18
HETATM   18  C   UNK N   1      22.092  17.354   4.207  0.00  0.00     0.024 A 
HETATM   19  C   UNK N   1      21.590  18.630   4.482  0.00  0.00     0.121 A 
HETATM   20  N   UNK N   1      20.478  19.080   3.843  0.00  0.00    -0.201 N 
HETATM   21  C   UNK N   1      19.839  18.307   2.926  0.00  0.00     0.675 A 
HETATM   22  H   UNK N   1      20.131  19.979   4.047  0.00  0.00     0.183 HD
HETATM   23  N   UNK N   1      18.791  18.744   2.341  0.00  0.00    -0.234 N 
HETATM   24  N   UNK N   1      20.313  17.069   2.633  0.00  0.00    -0.201 N 
HETATM   25  H   UNK N   1      18.244  18.136   1.793  0.00  0.00     0.174 HD
ATOM     26  HN  UNK N   1      18.520  19.722   2.443  1.00  0.00     0.174 HD
HETATM   27  C   UNK N   1      21.416  16.582   3.255  0.00  0.00     0.121 A 
ATOM     28  HN  UNK N   1      19.833  16.498   1.936  1.00  0.00     0.183 HD
ENDBRANCH   8  18
BRANCH  16  29
HETATM   29  S   UNK N   1      28.419  16.738   5.438  0.00  0.00     0.230 S 
HETATM   30  C   UNK N   1      29.816  17.307   6.442  0.00  0.00     0.186 C 
HETATM   31  O   UNK N   1      28.025  17.047   6.891  0.00  0.00    -0.206 OA
HETATM   32  O   UNK N   1      28.909  18.130   5.004  0.00  0.00    -0.206 OA
ENDBRANCH  16  29
TORSDOF 2
ENDMDL
MODEL 7
REMARK VINA RESULT:      -6.6     13.876     16.746
REMARK  2 active torsions:
REMARK  status: ('A' for Active; 'I' for Inactive)
REMARK    1  A    between atoms: C_12  and  C_10 
REMARK       I    between atoms: N_16  and  C_14 
REMARK       I    between atoms: N_25  and  C_15 
REMARK    2  A    between atoms: S_30  and  N_26 
ROOT
HETATM    1  C   UNK N   1      28.916  21.210  -7.106  0.00  0.00     0.066 A 
HETATM    2  C   UNK N   1      27.978  21.180  -8.349  0.00  0.00     0.148 A 
HETATM    3  C   UNK N   1      27.735  26.965  -4.181  0.00  0.00     0.167 C 
HETATM    4  C   UNK N   1      26.132  26.924  -6.073  0.00  0.00     0.167 C 
HETATM    5  C   UNK N   1      26.538  27.379  -3.318  0.00  0.00     0.188 C 
HETATM    6  C   UNK N   1      25.073  27.332  -5.047  0.00  0.00     0.188 C 
HETATM    7  C   UNK N   1      28.592  22.526  -6.473  0.00  0.00     0.017 A 
HETATM    8  C   UNK N   1      29.176  23.167  -5.368  0.00  0.00     0.072 A 
HETATM    9  C   UNK N   1      27.612  23.148  -7.162  0.00  0.00     0.141 A 
HETATM   10  C   UNK N   1      27.694  25.010  -5.733  0.00  0.00     0.682 A 
HETATM   11  N   UNK N   1      28.702  24.404  -5.025  0.00  0.00    -0.190 N 
ATOM     12  HN  UNK N   1      29.106  24.889  -4.223  1.00  0.00     0.184 HD
HETATM   13  N   UNK N   1      27.159  24.378  -6.820  0.00  0.00    -0.175 N 
ATOM     14  HN  UNK N   1      26.425  24.828  -7.366  1.00  0.00     0.186 HD
HETATM   15  N   UNK N   1      27.223  26.297  -5.357  0.00  0.00    -0.213 N 
HETATM   16  N   UNK N   1      27.185  22.396  -8.262  0.00  0.00    -0.260 N 
HETATM   17  O   UNK N   1      25.661  28.176  -4.082  0.00  0.00    -0.388 OA
ENDROOT
BRANCH   8  18
HETATM   18  C   UNK N   1      30.307  22.575  -4.604  0.00  0.00     0.024 A 
HETATM   19  C   UNK N   1      31.620  22.993  -4.847  0.00  0.00     0.121 A 
HETATM   20  N   UNK N   1      32.656  22.415  -4.183  0.00  0.00    -0.201 N 
HETATM   21  C   UNK N   1      32.438  21.429  -3.273  0.00  0.00     0.675 A 
HETATM   22  H   UNK N   1      33.576  22.714  -4.365  0.00  0.00     0.183 HD
HETATM   23  N   UNK N   1      33.425  20.891  -2.666  0.00  0.00    -0.234 N 
HETATM   24  N   UNK N   1      31.173  21.013  -3.012  0.00  0.00    -0.201 N 
HETATM   25  H   UNK N   1      33.286  20.082  -2.123  0.00  0.00     0.174 HD
ATOM     26  HN  UNK N   1      34.356  21.300  -2.744  1.00  0.00     0.174 HD
HETATM   27  C   UNK N   1      30.114  21.562  -3.659  0.00  0.00     0.121 A 
ATOM     28  HN  UNK N   1      31.017  20.278  -2.321  1.00  0.00     0.183 HD
ENDBRANCH   8  18
BRANCH  16  29
HETATM   29  S   UNK N   1      26.252  23.076  -9.628  0.00  0.00     0.230 S 
HETATM   30  C   UNK N   1      25.537  24.721  -9.884  0.00  0.00     0.186 C 
HETATM   31  O   UNK N   1      27.279  24.207  -9.460  0.00  0.00    -0.206 OA
HETATM   32  O   UNK N   1      25.267  23.455  -8.509  0.00  0.00    -0.206 OA
ENDBRANCH  16  29
TORSDOF 2
ENDMDL
MODEL 8
REMARK VINA RESULT:      -6.6      2.504      4.792
REMARK  2 active torsions:
REMARK  status: ('A' for Active; 'I' for Inactive)
REMARK    1  A    between atoms: C_12  and  C_10 
REMARK       I    between atoms: N_16  and  C_14 
REMARK       I    between atoms: N_25  and  C_15 
REMARK    2  A    between atoms: S_30  and  N_26 
ROOT
HETATM    1  C   UNK N   1      30.918  18.043   8.988  0.00  0.00     0.066 A 
HETATM    2  C   UNK N   1      29.600  18.639   8.411  0.00  0.00     0.148 A 
HETATM    3  C   UNK N   1      32.323  12.908   5.149  0.00  0.00     0.167 C 
HETATM    4  C   UNK N   1      30.292  13.884   4.112  0.00  0.00     0.167 C 
HETATM    5  C   UNK N   1      32.908  12.897   3.733  0.00  0.00     0.188 C 
HETATM    6  C   UNK N   1      31.054  13.796   2.788  0.00  0.00     0.188 C 
HETATM    7  C   UNK N   1      31.197  16.896   8.069  0.00  0.00     0.017 A 
HETATM    8  C   UNK N   1      32.202  15.915   8.125  0.00  0.00     0.072 A 
HETATM    9  C   UNK N   1      30.265  16.840   7.094  0.00  0.00     0.141 A 
HETATM   10  C   UNK N   1      31.248  14.917   6.171  0.00  0.00     0.682 A 
HETATM   11  N   UNK N   1      32.198  14.944   7.160  0.00  0.00    -0.190 N 
ATOM     12  HN  UNK N   1      32.920  14.224   7.176  1.00  0.00     0.184 HD
HETATM   13  N   UNK N   1      30.266  15.867   6.151  0.00  0.00    -0.175 N 
ATOM     14  HN  UNK N   1      29.542  15.843   5.433  1.00  0.00     0.186 HD
HETATM   15  N   UNK N   1      31.266  13.895   5.183  0.00  0.00    -0.213 N 
HETATM   16  N   UNK N   1      29.311  17.856   7.220  0.00  0.00    -0.260 N 
HETATM   17  O   UNK N   1      31.879  12.652   2.801  0.00  0.00    -0.388 OA
ENDROOT
BRANCH   8  18
HETATM   18  C   UNK N   1      33.219  15.872   9.209  0.00  0.00     0.024 A 
HETATM   19  C   UNK N   1      34.206  16.859   9.294  0.00  0.00     0.121 A 
HETATM   20  N   UNK N   1      35.163  16.789  10.256  0.00  0.00    -0.201 N 
HETATM   21  C   UNK N   1      35.177  15.768  11.153  0.00  0.00     0.675 A 
HETATM   22  H   UNK N   1      35.855  17.488  10.303  0.00  0.00     0.183 HD
HETATM   23  N   UNK N   1      36.090  15.715  12.045  0.00  0.00    -0.234 N 
HETATM   24  N   UNK N   1      34.224  14.804  11.100  0.00  0.00    -0.201 N 
HETATM   25  H   UNK N   1      36.192  14.906  12.597  0.00  0.00     0.174 HD
ATOM     26  HN  UNK N   1      36.714  16.510  12.185  1.00  0.00     0.174 HD
HETATM   27  C   UNK N   1      33.256  14.836  10.149  0.00  0.00     0.121 A 
ATOM     28  HN  UNK N   1      34.236  14.045  11.782  1.00  0.00     0.183 HD
ENDBRANCH   8  18
BRANCH  16  29
HETATM   29  S   UNK N   1      27.719  17.830   6.407  0.00  0.00     0.230 S 
HETATM   30  C   UNK N   1      26.968  18.969   5.215  0.00  0.00     0.186 C 
HETATM   31  O   UNK N   1      28.605  18.078   5.176  0.00  0.00    -0.206 OA
HETATM   32  O   UNK N   1      27.636  19.264   6.956  0.00  0.00    -0.206 OA
ENDBRANCH  16  29
TORSDOF 2
ENDMDL
MODEL 9
REMARK VINA RESULT:      -6.5      2.608      5.943
REMARK  2 active torsions:
REMARK  status: ('A' for Active; 'I' for Inactive)
REMARK    1  A    between atoms: C_12  and  C_10 
REMARK       I    between atoms: N_16  and  C_14 
REMARK       I    between atoms: N_25  and  C_15 
REMARK    2  A    between atoms: S_30  and  N_26 
ROOT
HETATM    1  C   UNK N   1      32.131  16.566   4.950  0.00  0.00     0.066 A 
HETATM    2  C   UNK N   1      33.101  15.882   3.942  0.00  0.00     0.148 A 
HETATM    3  C   UNK N   1      34.284  14.799  10.894  0.00  0.00     0.167 C 
HETATM    4  C   UNK N   1      35.932  13.786   9.343  0.00  0.00     0.167 C 
HETATM    5  C   UNK N   1      35.497  15.318  11.671  0.00  0.00     0.188 C 
HETATM    6  C   UNK N   1      37.003  14.399  10.248  0.00  0.00     0.188 C 
HETATM    7  C   UNK N   1      32.678  16.145   6.278  0.00  0.00     0.017 A 
HETATM    8  C   UNK N   1      32.181  16.369   7.573  0.00  0.00     0.072 A 
HETATM    9  C   UNK N   1      33.791  15.401   6.112  0.00  0.00     0.141 A 
HETATM   10  C   UNK N   1      34.011  15.086   8.428  0.00  0.00     0.682 A 
HETATM   11  N   UNK N   1      32.873  15.828   8.623  0.00  0.00    -0.190 N 
ATOM     12  HN  UNK N   1      32.535  15.980   9.574  1.00  0.00     0.184 HD
HETATM   13  N   UNK N   1      34.461  14.861   7.158  0.00  0.00    -0.175 N 
ATOM     14  HN  UNK N   1      35.294  14.294   7.001  1.00  0.00     0.186 HD
HETATM   15  N   UNK N   1      34.708  14.533   9.537  0.00  0.00    -0.213 N 
HETATM   16  N   UNK N   1      34.113  15.232   4.760  0.00  0.00    -0.260 N 
HETATM   17  O   UNK N   1      36.548  14.383  11.583  0.00  0.00    -0.388 OA
ENDROOT
BRANCH   8  18
HETATM   18  C   UNK N   1      30.921  17.118   7.829  0.00  0.00     0.024 A 
HETATM   19  C   UNK N   1      30.885  18.133   8.792  0.00  0.00     0.121 A 
HETATM   20  N   UNK N   1      29.720  18.781   9.058  0.00  0.00    -0.201 N 
HETATM   21  C   UNK N   1      28.577  18.463   8.396  0.00  0.00     0.675 A 
HETATM   22  H   UNK N   1      29.706  19.491   9.741  0.00  0.00     0.183 HD
HETATM   23  N   UNK N   1      27.491  19.078   8.666  0.00  0.00    -0.234 N 
HETATM   24  N   UNK N   1      28.589  17.490   7.450  0.00  0.00    -0.201 N 
HETATM   25  H   UNK N   1      26.636  18.751   8.300  0.00  0.00     0.174 HD
ATOM     26  HN  UNK N   1      27.507  19.906   9.261  1.00  0.00     0.174 HD
HETATM   27  C   UNK N   1      29.730  16.815   7.160  0.00  0.00     0.121 A 
ATOM     28  HN  UNK N   1      27.728  17.263   6.950  1.00  0.00     0.183 HD
ENDBRANCH   8  18
BRANCH  16  29
HETATM   29  S   UNK N   1      35.223  13.968   4.154  0.00  0.00     0.230 S 
HETATM   30  C   UNK N   1      34.918  12.500   3.136  0.00  0.00     0.186 C 
HETATM   31  O   UNK N   1      34.496  14.292   2.839  0.00  0.00    -0.206 OA
HETATM   32  O   UNK N   1      34.187  13.030   4.795  0.00  0.00    -0.206 OA
ENDBRANCH  16  29
TORSDOF 2
ENDMDL
