MODEL 1
REMARK VINA RESULT:      -7.1      0.000      0.000
REMARK  16 active torsions:
REMARK  status: ('A' for Active; 'I' for Inactive)
REMARK    1  A    between atoms: C_3  and  C_2 
REMARK    2  A    between atoms: C_11  and  C_80 
REMARK    3  A    between atoms: C_15  and  C_77 
REMARK    4  A    between atoms: C_19  and  C_72 
REMARK    5  A    between atoms: C_31  and  C_65 
REMARK    6  A    between atoms: C_35  and  C_60 
REMARK    7  A    between atoms: C_39  and  C_56 
REMARK    8  A    between atoms: C_43  and  C_47 
REMARK    9  A    between atoms: C_47  and  C_48 
REMARK   10  A    between atoms: C_47  and  O_54 
REMARK   11  A    between atoms: C_48  and  C_50 
REMARK   12  A    between atoms: C_50  and  C_51 
REMARK   13  A    between atoms: C_60  and  C_61 
REMARK   14  A    between atoms: C_65  and  C_66 
REMARK   15  A    between atoms: C_72  and  C_73 
REMARK   16  A    between atoms: C_80  and  C_82 
ROOT
HETATM    1  C   UNK N   1      36.559  14.124  12.497  0.00  0.00     0.176 C 
HETATM    2  C   UNK N   1      35.951  14.752  11.285  0.00  0.00     0.242 C 
HETATM    3  O   UNK N   1      35.384  15.832  11.391  0.00  0.00    -0.271 OA
HETATM    4  N   UNK N   1      35.946  14.079  10.092  0.00  0.00    -0.346 N 
HETATM    5  C   UNK N   1      35.123  14.506   9.014  0.00  0.00     0.228 C 
HETATM    6  C   UNK N   1      33.650  14.473   9.351  0.00  0.00     0.238 C 
HETATM    7  O   UNK N   1      33.235  15.078  10.327  0.00  0.00    -0.272 OA
HETATM    8  N   UNK N   1      32.798  14.111   8.372  0.00  0.00    -0.341 N 
HETATM    9  C   UNK N   1      31.784  15.076   7.884  0.00  0.00     0.182 C 
HETATM   10  C   UNK N   1      32.059  15.247   6.421  0.00  0.00     0.241 C 
HETATM   11  O   UNK N   1      33.148  15.685   6.074  0.00  0.00    -0.271 OA
HETATM   12  N   UNK N   1      31.218  14.674   5.526  0.00  0.00    -0.346 N 
HETATM   13  C   UNK N   1      31.630  14.290   4.191  0.00  0.00     0.180 C 
HETATM   14  C   UNK N   1      32.717  13.234   4.284  0.00  0.00     0.243 C 
HETATM   15  O   UNK N   1      33.800  13.515   4.779  0.00  0.00    -0.271 OA
HETATM   16  N   UNK N   1      32.470  11.956   3.874  0.00  0.00    -0.341 N 
HETATM   17  C   UNK N   1      31.271  11.666   3.082  0.00  0.00     0.179 C 
HETATM   18  C   UNK N   1      31.242  10.247   2.595  0.00  0.00     0.241 C 
HETATM   19  O   UNK N   1      30.305   9.511   2.864  0.00  0.00    -0.271 OA
HETATM   20  N   UNK N   1      32.262   9.853   1.793  0.00  0.00    -0.346 N 
HETATM   21  C   UNK N   1      32.480   8.620   1.084  0.00  0.00     0.172 C 
HETATM   22  C   UNK N   1      31.524   7.483   1.307  0.00  0.00     0.240 C 
HETATM   23  O   UNK N   1      31.140   6.827   0.350  0.00  0.00    -0.271 OA
HETATM   24  N   UNK N   1      31.467   6.957   2.551  0.00  0.00    -0.346 N 
HETATM   25  C   UNK N   1      32.092   5.692   2.849  0.00  0.00     0.172 C 
HETATM   26  C   UNK N   1      33.579   5.893   2.637  0.00  0.00     0.242 C 
HETATM   27  O   UNK N   1      34.012   6.028   1.504  0.00  0.00    -0.271 OA
HETATM   28  N   UNK N   1      34.400   6.036   3.712  0.00  0.00    -0.341 N 
HETATM   29  C   UNK N   1      33.883   5.737   5.048  0.00  0.00     0.179 C 
HETATM   30  C   UNK N   1      34.759   6.039   6.246  0.00  0.00     0.243 C 
HETATM   31  O   UNK N   1      35.862   6.537   6.068  0.00  0.00    -0.271 OA
HETATM   32  N   UNK N   1      34.351   5.666   7.506  0.00  0.00    -0.341 N 
HETATM   33  C   UNK N   1      35.225   5.542   8.671  0.00  0.00     0.179 C 
HETATM   34  C   UNK N   1      36.630   6.111   8.545  0.00  0.00     0.243 C 
HETATM   35  O   UNK N   1      37.421   5.625   7.751  0.00  0.00    -0.271 OA
HETATM   36  N   UNK N   1      36.982   7.186   9.299  0.00  0.00    -0.341 N 
HETATM   37  C   UNK N   1      36.138   7.573  10.427  0.00  0.00     0.182 C 
HETATM   38  C   UNK N   1      36.420   8.887  11.089  0.00  0.00     0.243 C 
HETATM   39  O   UNK N   1      37.580   9.197  11.317  0.00  0.00    -0.271 OA
HETATM   40  N   UNK N   1      35.387   9.564  11.681  0.00  0.00    -0.339 N 
HETATM   41  C   UNK N   1      35.586  10.480  12.797  0.00  0.00     0.207 C 
HETATM   42  C   UNK N   1      36.373  11.708  12.497  0.00  0.00     0.243 C 
HETATM   43  O   UNK N   1      37.530  11.628  12.110  0.00  0.00    -0.271 OA
HETATM   44  N   UNK N   1      35.818  12.912  12.723  0.00  0.00    -0.346 N 
HETATM   45  C   UNK N   1      34.021   9.199  11.376  0.00  0.00     0.153 C 
HETATM   46  C   UNK N   1      38.245   7.850   9.034  0.00  0.00     0.153 C 
HETATM   47  C   UNK N   1      32.961   5.299   7.714  0.00  0.00     0.153 C 
HETATM   48  C   UNK N   1      35.786   6.405   3.474  0.00  0.00     0.153 C 
HETATM   49  C   UNK N   1      31.527   4.520   2.058  0.00  0.00     0.042 C 
HETATM   50  C   UNK N   1      32.755   8.921  -0.376  0.00  0.00     0.042 C 
HETATM   51  C   UNK N   1      33.446  10.924   4.180  0.00  0.00     0.153 C 
HETATM   52  C   UNK N   1      33.189  13.004   7.516  0.00  0.00     0.153 C 
HETATM   53  C   UNK N   1      36.755  12.917   9.849  0.00  0.00     0.153 C 
HETATM   54  H   UNK N   1      30.286  14.513   5.796  0.00  0.00     0.163 HD
HETATM   55  H   UNK N   1      32.972  10.524   1.675  0.00  0.00     0.163 HD
HETATM   56  H   UNK N   1      30.992   7.444   3.262  0.00  0.00     0.163 HD
HETATM   57  H   UNK N   1      34.890  12.965  13.047  0.00  0.00     0.163 HD
ENDROOT
BRANCH  41  58
HETATM   58  C   UNK N   1      36.125   9.770  14.052  0.00  0.00     0.154 C 
BRANCH  58  59
HETATM   59  C   UNK N   1      35.333  10.040  15.348  0.00  0.00     0.016 C 
HETATM   60  C   UNK N   1      33.951  10.625  15.125  0.00  0.00     0.013 C 
BRANCH  59  61
HETATM   61  C   UNK N   1      36.123  10.914  16.307  0.00  0.00     0.033 C 
BRANCH  61  62
HETATM   62  C   UNK N   1      35.700  10.669  17.725  0.00  0.00    -0.031 C 
HETATM   63  C   UNK N   1      35.258  11.639  18.531  0.00  0.00    -0.035 C 
HETATM   64  C   UNK N   1      35.146  13.059  18.087  0.00  0.00     0.036 C 
ENDBRANCH  61  62
ENDBRANCH  59  61
ENDBRANCH  58  59
BRANCH  58  65
HETATM   65  O   UNK N   1      37.499   9.988  14.194  0.00  0.00    -0.393 OA
HETATM   66  H   UNK N   1      38.328   9.486  14.235  0.00  0.00     0.210 HD
ENDBRANCH  58  65
ENDBRANCH  41  58
BRANCH  37  67
HETATM   67  C   UNK N   1      36.299   6.561  11.584  0.00  0.00     0.009 C 
HETATM   68  C   UNK N   1      35.040   6.298  12.401  0.00  0.00     0.012 C 
HETATM   69  C   UNK N   1      37.541   6.697  12.432  0.00  0.00     0.012 C 
ENDBRANCH  37  67
BRANCH   1  70
HETATM   70  C   UNK N   1      36.444  14.984  13.751  0.00  0.00     0.030 C 
HETATM   71  C   UNK N   1      36.836  14.197  14.984  0.00  0.00     0.007 C 
ENDBRANCH   1  70
BRANCH  33  72
HETATM   72  C   UNK N   1      35.162   4.113   9.250  0.00  0.00     0.039 C 
BRANCH  72  73
HETATM   73  C   UNK N   1      36.419   3.583   9.914  0.00  0.00    -0.020 C 
HETATM   74  C   UNK N   1      36.050   2.973  11.252  0.00  0.00     0.009 C 
HETATM   75  C   UNK N   1      37.002   2.490   9.042  0.00  0.00     0.009 C 
ENDBRANCH  72  73
ENDBRANCH  33  72
BRANCH  29  76
HETATM   76  C   UNK N   1      33.581   4.224   5.086  0.00  0.00     0.039 C 
BRANCH  76  77
HETATM   77  C   UNK N   1      34.829   3.350   4.905  0.00  0.00    -0.020 C 
HETATM   78  C   UNK N   1      35.033   2.354   6.031  0.00  0.00     0.009 C 
HETATM   79  C   UNK N   1      34.730   2.602   3.598  0.00  0.00     0.009 C 
ENDBRANCH  76  77
ENDBRANCH  29  76
BRANCH   9  80
HETATM   80  C   UNK N   1      31.820  16.494   8.566  0.00  0.00     0.013 C 
HETATM   81  C   UNK N   1      32.562  17.592   7.782  0.00  0.00     0.012 C 
BRANCH  80  82
HETATM   82  C   UNK N   1      30.448  17.019   8.986  0.00  0.00     0.002 C 
HETATM   83  C   UNK N   1      30.385  18.545   9.024  0.00  0.00     0.005 C 
ENDBRANCH  80  82
ENDBRANCH   9  80
BRANCH  13  84
HETATM   84  C   UNK N   1      31.796  15.421   3.163  0.00  0.00     0.009 C 
HETATM   85  C   UNK N   1      30.843  16.555   3.481  0.00  0.00     0.012 C 
HETATM   86  C   UNK N   1      33.201  15.962   2.981  0.00  0.00     0.012 C 
ENDBRANCH  13  84
BRANCH  17  87
HETATM   87  C   UNK N   1      31.371  12.528   1.814  0.00  0.00     0.039 C 
BRANCH  87  88
HETATM   88  C   UNK N   1      30.066  12.943   1.169  0.00  0.00    -0.020 C 
HETATM   89  C   UNK N   1      29.845  12.012  -0.005  0.00  0.00     0.009 C 
HETATM   90  C   UNK N   1      28.900  12.797   2.125  0.00  0.00     0.009 C 
ENDBRANCH  87  88
ENDBRANCH  17  87
TORSDOF 16
ENDMDL
MODEL 2
REMARK VINA RESULT:      -6.9      5.735     11.953
REMARK  16 active torsions:
REMARK  status: ('A' for Active; 'I' for Inactive)
REMARK    1  A    between atoms: C_3  and  C_2 
REMARK    2  A    between atoms: C_11  and  C_80 
REMARK    3  A    between atoms: C_15  and  C_77 
REMARK    4  A    between atoms: C_19  and  C_72 
REMARK    5  A    between atoms: C_31  and  C_65 
REMARK    6  A    between atoms: C_35  and  C_60 
REMARK    7  A    between atoms: C_39  and  C_56 
REMARK    8  A    between atoms: C_43  and  C_47 
REMARK    9  A    between atoms: C_47  and  C_48 
REMARK   10  A    between atoms: C_47  and  O_54 
REMARK   11  A    between atoms: C_48  and  C_50 
REMARK   12  A    between atoms: C_50  and  C_51 
REMARK   13  A    between atoms: C_60  and  C_61 
REMARK   14  A    between atoms: C_65  and  C_66 
REMARK   15  A    between atoms: C_72  and  C_73 
REMARK   16  A    between atoms: C_80  and  C_82 
ROOT
HETATM    1  C   UNK N   1      37.957   6.714  17.561  0.00  0.00     0.176 C 
HETATM    2  C   UNK N   1      39.256   6.266  16.976  0.00  0.00     0.242 C 
HETATM    3  O   UNK N   1      40.136   5.852  17.719  0.00  0.00    -0.271 OA
HETATM    4  N   UNK N   1      39.490   6.408  15.633  0.00  0.00    -0.346 N 
HETATM    5  C   UNK N   1      40.801   6.279  15.101  0.00  0.00     0.228 C 
HETATM    6  C   UNK N   1      41.764   7.304  15.655  0.00  0.00     0.238 C 
HETATM    7  O   UNK N   1      41.920   7.404  16.862  0.00  0.00    -0.272 OA
HETATM    8  N   UNK N   1      42.693   7.800  14.815  0.00  0.00    -0.341 N 
HETATM    9  C   UNK N   1      44.132   7.568  15.087  0.00  0.00     0.182 C 
HETATM   10  C   UNK N   1      44.658   6.840  13.888  0.00  0.00     0.241 C 
HETATM   11  O   UNK N   1      44.180   5.750  13.604  0.00  0.00    -0.271 OA
HETATM   12  N   UNK N   1      45.444   7.509  13.010  0.00  0.00    -0.346 N 
HETATM   13  C   UNK N   1      45.555   7.143  11.612  0.00  0.00     0.180 C 
HETATM   14  C   UNK N   1      44.197   7.280  10.947  0.00  0.00     0.243 C 
HETATM   15  O   UNK N   1      43.272   6.558  11.295  0.00  0.00    -0.271 OA
HETATM   16  N   UNK N   1      43.986   8.246  10.008  0.00  0.00    -0.341 N 
HETATM   17  C   UNK N   1      45.130   8.957   9.428  0.00  0.00     0.179 C 
HETATM   18  C   UNK N   1      44.723   9.871   8.310  0.00  0.00     0.241 C 
HETATM   19  O   UNK N   1      44.984  11.063   8.348  0.00  0.00    -0.271 OA
HETATM   20  N   UNK N   1      44.123   9.298   7.237  0.00  0.00    -0.346 N 
HETATM   21  C   UNK N   1      43.712   9.858   5.978  0.00  0.00     0.172 C 
HETATM   22  C   UNK N   1      43.824  11.343   5.780  0.00  0.00     0.240 C 
HETATM   23  O   UNK N   1      44.249  11.774   4.718  0.00  0.00    -0.271 OA
HETATM   24  N   UNK N   1      43.067  12.133   6.573  0.00  0.00    -0.346 N 
HETATM   25  C   UNK N   1      41.875  12.766   6.065  0.00  0.00     0.172 C 
HETATM   26  C   UNK N   1      40.922  11.646   5.699  0.00  0.00     0.242 C 
HETATM   27  O   UNK N   1      41.163  10.946   4.728  0.00  0.00    -0.271 OA
HETATM   28  N   UNK N   1      39.873  11.357   6.515  0.00  0.00    -0.341 N 
HETATM   29  C   UNK N   1      39.531  12.290   7.591  0.00  0.00     0.179 C 
HETATM   30  C   UNK N   1      38.457  11.888   8.580  0.00  0.00     0.243 C 
HETATM   31  O   UNK N   1      37.919  10.795   8.466  0.00  0.00    -0.271 OA
HETATM   32  N   UNK N   1      38.032  12.786   9.533  0.00  0.00    -0.341 N 
HETATM   33  C   UNK N   1      36.780  12.687  10.281  0.00  0.00     0.179 C 
HETATM   34  C   UNK N   1      36.020  11.373  10.187  0.00  0.00     0.243 C 
HETATM   35  O   UNK N   1      35.549  11.009   9.120  0.00  0.00    -0.271 OA
HETATM   36  N   UNK N   1      35.902  10.593  11.295  0.00  0.00    -0.341 N 
HETATM   37  C   UNK N   1      36.217  11.161  12.604  0.00  0.00     0.182 C 
HETATM   38  C   UNK N   1      36.303  10.221  13.767  0.00  0.00     0.243 C 
HETATM   39  O   UNK N   1      35.453   9.352  13.890  0.00  0.00    -0.271 OA
HETATM   40  N   UNK N   1      37.138  10.533  14.808  0.00  0.00    -0.339 N 
HETATM   41  C   UNK N   1      36.901  10.070  16.169  0.00  0.00     0.207 C 
HETATM   42  C   UNK N   1      36.994   8.599  16.381  0.00  0.00     0.243 C 
HETATM   43  O   UNK N   1      36.245   7.835  15.790  0.00  0.00    -0.271 OA
HETATM   44  N   UNK N   1      37.868   8.123  17.286  0.00  0.00    -0.346 N 
HETATM   45  C   UNK N   1      38.156  11.546  14.633  0.00  0.00     0.153 C 
HETATM   46  C   UNK N   1      35.356   9.255  11.160  0.00  0.00     0.153 C 
HETATM   47  C   UNK N   1      38.836  13.966   9.794  0.00  0.00     0.153 C 
HETATM   48  C   UNK N   1      39.087  10.169   6.231  0.00  0.00     0.153 C 
HETATM   49  C   UNK N   1      42.128  13.736   4.920  0.00  0.00     0.042 C 
HETATM   50  C   UNK N   1      44.296   9.036   4.847  0.00  0.00     0.042 C 
HETATM   51  C   UNK N   1      42.629   8.496   9.555  0.00  0.00     0.153 C 
HETATM   52  C   UNK N   1      42.273   8.118  13.461  0.00  0.00     0.153 C 
HETATM   53  C   UNK N   1      38.448   6.693  14.686  0.00  0.00     0.153 C 
HETATM   54  H   UNK N   1      45.964   8.278  13.337  0.00  0.00     0.163 HD
HETATM   55  H   UNK N   1      43.938   8.337   7.338  0.00  0.00     0.163 HD
HETATM   56  H   UNK N   1      43.333  12.277   7.509  0.00  0.00     0.163 HD
HETATM   57  H   UNK N   1      38.458   8.748  17.767  0.00  0.00     0.163 HD
ENDROOT
BRANCH  41  58
HETATM   58  C   UNK N   1      35.598  10.634  16.763  0.00  0.00     0.154 C 
BRANCH  58  59
HETATM   59  C   UNK N   1      35.776  11.840  17.708  0.00  0.00     0.016 C 
HETATM   60  C   UNK N   1      35.316  11.591  19.132  0.00  0.00     0.013 C 
BRANCH  59  61
HETATM   61  C   UNK N   1      35.104  13.084  17.152  0.00  0.00     0.033 C 
BRANCH  61  62
HETATM   62  C   UNK N   1      35.313  14.257  18.063  0.00  0.00    -0.031 C 
HETATM   63  C   UNK N   1      36.186  15.235  17.802  0.00  0.00    -0.035 C 
HETATM   64  C   UNK N   1      37.034  15.244  16.574  0.00  0.00     0.036 C 
ENDBRANCH  61  62
ENDBRANCH  59  61
ENDBRANCH  58  59
BRANCH  58  65
HETATM   65  O   UNK N   1      34.824   9.611  17.322  0.00  0.00    -0.393 OA
HETATM   66  H   UNK N   1      34.768   8.643  17.326  0.00  0.00     0.210 HD
ENDBRANCH  58  65
ENDBRANCH  41  58
BRANCH  37  67
HETATM   67  C   UNK N   1      35.109  12.148  13.037  0.00  0.00     0.009 C 
HETATM   68  C   UNK N   1      35.601  13.460  13.634  0.00  0.00     0.012 C 
HETATM   69  C   UNK N   1      33.934  11.560  13.781  0.00  0.00     0.012 C 
ENDBRANCH  37  67
BRANCH   1  70
HETATM   70  C   UNK N   1      37.872   6.526  19.072  0.00  0.00     0.030 C 
HETATM   71  C   UNK N   1      38.011   7.852  19.791  0.00  0.00     0.007 C 
ENDBRANCH   1  70
BRANCH  33  72
HETATM   72  C   UNK N   1      35.914  13.946  10.061  0.00  0.00     0.039 C 
BRANCH  72  73
HETATM   73  C   UNK N   1      34.409  13.768  10.138  0.00  0.00    -0.020 C 
HETATM   74  C   UNK N   1      33.817  14.915  10.932  0.00  0.00     0.009 C 
HETATM   75  C   UNK N   1      33.844  13.824   8.734  0.00  0.00     0.009 C 
ENDBRANCH  72  73
ENDBRANCH  33  72
BRANCH  29  76
HETATM   76  C   UNK N   1      39.053  13.595   6.920  0.00  0.00     0.039 C 
BRANCH  76  77
HETATM   77  C   UNK N   1      37.845  13.397   5.996  0.00  0.00    -0.020 C 
HETATM   78  C   UNK N   1      36.620  14.179   6.434  0.00  0.00     0.009 C 
HETATM   79  C   UNK N   1      38.216  13.810   4.593  0.00  0.00     0.009 C 
ENDBRANCH  76  77
ENDBRANCH  29  76
BRANCH   9  80
HETATM   80  C   UNK N   1      44.445   6.708  16.369  0.00  0.00     0.013 C 
HETATM   81  C   UNK N   1      44.891   5.259  16.105  0.00  0.00     0.012 C 
BRANCH  80  82
HETATM   82  C   UNK N   1      45.427   7.367  17.336  0.00  0.00     0.002 C 
HETATM   83  C   UNK N   1      45.060   8.815  17.657  0.00  0.00     0.005 C 
ENDBRANCH  80  82
ENDBRANCH   9  80
BRANCH  13  84
HETATM   84  C   UNK N   1      46.408   5.906  11.284  0.00  0.00     0.009 C 
HETATM   85  C   UNK N   1      47.487   5.728  12.332  0.00  0.00     0.012 C 
HETATM   86  C   UNK N   1      45.656   4.605  11.088  0.00  0.00     0.012 C 
ENDBRANCH  13  84
BRANCH  17  87
HETATM   87  C   UNK N   1      46.020   7.887   8.775  0.00  0.00     0.039 C 
BRANCH  87  88
HETATM   88  C   UNK N   1      47.456   8.275   8.494  0.00  0.00    -0.020 C 
HETATM   89  C   UNK N   1      47.949   9.032   9.709  0.00  0.00     0.009 C 
HETATM   90  C   UNK N   1      48.333   7.057   8.296  0.00  0.00     0.009 C 
ENDBRANCH  87  88
ENDBRANCH  17  87
TORSDOF 16
ENDMDL
MODEL 3
REMARK VINA RESULT:      -6.8      7.068     12.019
REMARK  16 active torsions:
REMARK  status: ('A' for Active; 'I' for Inactive)
REMARK    1  A    between atoms: C_3  and  C_2 
REMARK    2  A    between atoms: C_11  and  C_80 
REMARK    3  A    between atoms: C_15  and  C_77 
REMARK    4  A    between atoms: C_19  and  C_72 
REMARK    5  A    between atoms: C_31  and  C_65 
REMARK    6  A    between atoms: C_35  and  C_60 
REMARK    7  A    between atoms: C_39  and  C_56 
REMARK    8  A    between atoms: C_43  and  C_47 
REMARK    9  A    between atoms: C_47  and  C_48 
REMARK   10  A    between atoms: C_47  and  O_54 
REMARK   11  A    between atoms: C_48  and  C_50 
REMARK   12  A    between atoms: C_50  and  C_51 
REMARK   13  A    between atoms: C_60  and  C_61 
REMARK   14  A    between atoms: C_65  and  C_66 
REMARK   15  A    between atoms: C_72  and  C_73 
REMARK   16  A    between atoms: C_80  and  C_82 
ROOT
HETATM    1  C   UNK N   1      32.368  15.685   5.591  0.00  0.00     0.176 C 
HETATM    2  C   UNK N   1      33.016  14.628   4.757  0.00  0.00     0.242 C 
HETATM    3  O   UNK N   1      34.163  14.796   4.363  0.00  0.00    -0.271 OA
HETATM    4  N   UNK N   1      32.298  13.531   4.358  0.00  0.00    -0.346 N 
HETATM    5  C   UNK N   1      32.780  12.675   3.332  0.00  0.00     0.228 C 
HETATM    6  C   UNK N   1      32.950  13.384   2.007  0.00  0.00     0.238 C 
HETATM    7  O   UNK N   1      33.645  14.385   1.937  0.00  0.00    -0.272 OA
HETATM    8  N   UNK N   1      32.659  12.690   0.890  0.00  0.00    -0.341 N 
HETATM    9  C   UNK N   1      33.724  12.410  -0.103  0.00  0.00     0.182 C 
HETATM   10  C   UNK N   1      33.795  10.917  -0.210  0.00  0.00     0.241 C 
HETATM   11  O   UNK N   1      34.075  10.268   0.788  0.00  0.00    -0.271 OA
HETATM   12  N   UNK N   1      33.297  10.317  -1.318  0.00  0.00    -0.346 N 
HETATM   13  C   UNK N   1      32.806   8.953  -1.323  0.00  0.00     0.180 C 
HETATM   14  C   UNK N   1      31.624   8.840  -0.376  0.00  0.00     0.243 C 
HETATM   15  O   UNK N   1      31.786   9.015   0.824  0.00  0.00    -0.271 OA
HETATM   16  N   UNK N   1      30.372   8.606  -0.864  0.00  0.00    -0.341 N 
HETATM   17  C   UNK N   1      30.204   8.176  -2.256  0.00  0.00     0.179 C 
HETATM   18  C   UNK N   1      28.781   7.822  -2.573  0.00  0.00     0.241 C 
HETATM   19  O   UNK N   1      28.184   8.378  -3.481  0.00  0.00    -0.271 OA
HETATM   20  N   UNK N   1      28.226   6.814  -1.855  0.00  0.00    -0.346 N 
HETATM   21  C   UNK N   1      26.946   6.168  -1.973  0.00  0.00     0.172 C 
HETATM   22  C   UNK N   1      25.951   6.717  -2.957  0.00  0.00     0.240 C 
HETATM   23  O   UNK N   1      25.309   5.943  -3.652  0.00  0.00    -0.271 OA
HETATM   24  N   UNK N   1      25.491   7.968  -2.739  0.00  0.00    -0.346 N 
HETATM   25  C   UNK N   1      24.170   8.188  -2.202  0.00  0.00     0.172 C 
HETATM   26  C   UNK N   1      24.170   7.583  -0.813  0.00  0.00     0.242 C 
HETATM   27  O   UNK N   1      24.199   6.370  -0.686  0.00  0.00    -0.271 OA
HETATM   28  N   UNK N   1      24.253   8.394   0.276  0.00  0.00    -0.341 N 
HETATM   29  C   UNK N   1      24.080   9.837   0.104  0.00  0.00     0.179 C 
HETATM   30  C   UNK N   1      24.318  10.741   1.296  0.00  0.00     0.243 C 
HETATM   31  O   UNK N   1      24.663  10.246   2.360  0.00  0.00    -0.271 OA
HETATM   32  N   UNK N   1      24.055  12.088   1.199  0.00  0.00    -0.341 N 
HETATM   33  C   UNK N   1      23.871  12.993   2.332  0.00  0.00     0.179 C 
HETATM   34  C   UNK N   1      24.249  12.464   3.707  0.00  0.00     0.243 C 
HETATM   35  O   UNK N   1      23.632  11.531   4.199  0.00  0.00    -0.271 OA
HETATM   36  N   UNK N   1      25.302  13.017   4.366  0.00  0.00    -0.341 N 
HETATM   37  C   UNK N   1      25.841  14.294   3.902  0.00  0.00     0.182 C 
HETATM   38  C   UNK N   1      27.135  14.759   4.496  0.00  0.00     0.243 C 
HETATM   39  O   UNK N   1      27.304  14.655   5.702  0.00  0.00    -0.271 OA
HETATM   40  N   UNK N   1      27.964  15.546   3.741  0.00  0.00    -0.339 N 
HETATM   41  C   UNK N   1      28.894  16.499   4.332  0.00  0.00     0.207 C 
HETATM   42  C   UNK N   1      29.997  15.914   5.143  0.00  0.00     0.243 C 
HETATM   43  O   UNK N   1      29.753  15.248   6.138  0.00  0.00    -0.271 OA
HETATM   44  N   UNK N   1      31.271  16.185   4.807  0.00  0.00    -0.346 N 
HETATM   45  C   UNK N   1      27.764  15.634   2.311  0.00  0.00     0.153 C 
HETATM   46  C   UNK N   1      25.787  12.385   5.579  0.00  0.00     0.153 C 
HETATM   47  C   UNK N   1      23.878  12.677  -0.117  0.00  0.00     0.153 C 
HETATM   48  C   UNK N   1      24.430   7.779   1.580  0.00  0.00     0.153 C 
HETATM   49  C   UNK N   1      23.047   7.662  -3.085  0.00  0.00     0.042 C 
HETATM   50  C   UNK N   1      27.146   4.668  -2.065  0.00  0.00     0.042 C 
HETATM   51  C   UNK N   1      29.238   8.725   0.036  0.00  0.00     0.153 C 
HETATM   52  C   UNK N   1      31.475  11.847   0.912  0.00  0.00     0.153 C 
HETATM   53  C   UNK N   1      31.033  13.175   4.938  0.00  0.00     0.153 C 
HETATM   54  H   UNK N   1      33.268  10.830  -2.157  0.00  0.00     0.163 HD
HETATM   55  H   UNK N   1      28.795   6.466  -1.132  0.00  0.00     0.163 HD
HETATM   56  H   UNK N   1      26.065   8.740  -2.949  0.00  0.00     0.163 HD
HETATM   57  H   UNK N   1      31.457  16.735   4.011  0.00  0.00     0.163 HD
ENDROOT
BRANCH  41  58
HETATM   58  C   UNK N   1      28.175  17.622   5.102  0.00  0.00     0.154 C 
BRANCH  58  59
HETATM   59  C   UNK N   1      27.839  18.876   4.270  0.00  0.00     0.016 C 
HETATM   60  C   UNK N   1      28.188  20.187   4.950  0.00  0.00     0.013 C 
BRANCH  59  61
HETATM   61  C   UNK N   1      26.382  18.881   3.840  0.00  0.00     0.033 C 
BRANCH  61  62
HETATM   62  C   UNK N   1      26.058  20.123   3.063  0.00  0.00    -0.031 C 
HETATM   63  C   UNK N   1      24.810  20.563   2.880  0.00  0.00    -0.035 C 
HETATM   64  C   UNK N   1      23.621  19.852   3.438  0.00  0.00     0.036 C 
ENDBRANCH  61  62
ENDBRANCH  59  61
ENDBRANCH  58  59
BRANCH  58  65
HETATM   65  O   UNK N   1      28.850  17.918   6.291  0.00  0.00    -0.393 OA
HETATM   66  H   UNK N   1      28.933  17.586   7.198  0.00  0.00     0.210 HD
ENDBRANCH  58  65
ENDBRANCH  41  58
BRANCH  37  67
HETATM   67  C   UNK N   1      24.868  15.442   4.251  0.00  0.00     0.009 C 
HETATM   68  C   UNK N   1      24.685  16.495   3.166  0.00  0.00     0.012 C 
HETATM   69  C   UNK N   1      24.987  16.030   5.637  0.00  0.00     0.012 C 
ENDBRANCH  37  67
BRANCH   1  70
HETATM   70  C   UNK N   1      33.289  16.857   5.912  0.00  0.00     0.030 C 
HETATM   71  C   UNK N   1      32.844  17.563   7.177  0.00  0.00     0.007 C 
ENDBRANCH   1  70
BRANCH  33  72
HETATM   72  C   UNK N   1      22.487  13.674   2.266  0.00  0.00     0.039 C 
BRANCH  72  73
HETATM   73  C   UNK N   1      21.833  14.032   3.587  0.00  0.00    -0.020 C 
HETATM   74  C   UNK N   1      21.296  15.448   3.503  0.00  0.00     0.009 C 
HETATM   75  C   UNK N   1      20.663  13.098   3.816  0.00  0.00     0.009 C 
ENDBRANCH  72  73
ENDBRANCH  33  72
BRANCH  29  76
HETATM   76  C   UNK N   1      22.621  10.066  -0.345  0.00  0.00     0.039 C 
BRANCH  76  77
HETATM   77  C   UNK N   1      21.592   9.750   0.748  0.00  0.00    -0.020 C 
HETATM   78  C   UNK N   1      20.586  10.865   0.967  0.00  0.00     0.009 C 
HETATM   79  C   UNK N   1      20.853   8.484   0.387  0.00  0.00     0.009 C 
ENDBRANCH  76  77
ENDBRANCH  29  76
BRANCH   9  80
HETATM   80  C   UNK N   1      35.154  12.951   0.273  0.00  0.00     0.013 C 
HETATM   81  C   UNK N   1      36.236  11.877   0.487  0.00  0.00     0.012 C 
BRANCH  80  82
HETATM   82  C   UNK N   1      35.687  14.017  -0.683  0.00  0.00     0.002 C 
HETATM   83  C   UNK N   1      35.302  13.753  -2.138  0.00  0.00     0.005 C 
ENDBRANCH  80  82
ENDBRANCH   9  80
BRANCH  13  84
HETATM   84  C   UNK N   1      33.861   7.835  -1.311  0.00  0.00     0.009 C 
HETATM   85  C   UNK N   1      35.134   8.317  -1.977  0.00  0.00     0.012 C 
HETATM   86  C   UNK N   1      34.182   7.229   0.041  0.00  0.00     0.012 C 
ENDBRANCH  13  84
BRANCH  17  87
HETATM   87  C   UNK N   1      30.992   6.864  -2.403  0.00  0.00     0.039 C 
BRANCH  87  88
HETATM   88  C   UNK N   1      31.350   6.438  -3.810  0.00  0.00    -0.020 C 
HETATM   89  C   UNK N   1      31.825   7.681  -4.534  0.00  0.00     0.009 C 
HETATM   90  C   UNK N   1      32.470   5.419  -3.816  0.00  0.00     0.009 C 
ENDBRANCH  87  88
ENDBRANCH  17  87
TORSDOF 16
ENDMDL
MODEL 4
REMARK VINA RESULT:      -6.8      8.041     13.112
REMARK  16 active torsions:
REMARK  status: ('A' for Active; 'I' for Inactive)
REMARK    1  A    between atoms: C_3  and  C_2 
REMARK    2  A    between atoms: C_11  and  C_80 
REMARK    3  A    between atoms: C_15  and  C_77 
REMARK    4  A    between atoms: C_19  and  C_72 
REMARK    5  A    between atoms: C_31  and  C_65 
REMARK    6  A    between atoms: C_35  and  C_60 
REMARK    7  A    between atoms: C_39  and  C_56 
REMARK    8  A    between atoms: C_43  and  C_47 
REMARK    9  A    between atoms: C_47  and  C_48 
REMARK   10  A    between atoms: C_47  and  O_54 
REMARK   11  A    between atoms: C_48  and  C_50 
REMARK   12  A    between atoms: C_50  and  C_51 
REMARK   13  A    between atoms: C_60  and  C_61 
REMARK   14  A    between atoms: C_65  and  C_66 
REMARK   15  A    between atoms: C_72  and  C_73 
REMARK   16  A    between atoms: C_80  and  C_82 
ROOT
HETATM    1  C   UNK N   1      32.216  13.636   3.856  0.00  0.00     0.176 C 
HETATM    2  C   UNK N   1      32.333  12.578   2.808  0.00  0.00     0.242 C 
HETATM    3  O   UNK N   1      33.325  12.553   2.091  0.00  0.00    -0.271 OA
HETATM    4  N   UNK N   1      31.297  11.708   2.590  0.00  0.00    -0.346 N 
HETATM    5  C   UNK N   1      31.251  10.902   1.421  0.00  0.00     0.228 C 
HETATM    6  C   UNK N   1      31.194  11.716   0.149  0.00  0.00     0.238 C 
HETATM    7  O   UNK N   1      32.052  12.555  -0.077  0.00  0.00    -0.272 OA
HETATM    8  N   UNK N   1      30.441  11.238  -0.861  0.00  0.00    -0.341 N 
HETATM    9  C   UNK N   1      31.081  10.868  -2.147  0.00  0.00     0.182 C 
HETATM   10  C   UNK N   1      30.770   9.416  -2.351  0.00  0.00     0.241 C 
HETATM   11  O   UNK N   1      31.166   8.607  -1.523  0.00  0.00    -0.271 OA
HETATM   12  N   UNK N   1      29.849   9.070  -3.283  0.00  0.00    -0.346 N 
HETATM   13  C   UNK N   1      29.075   7.847  -3.210  0.00  0.00     0.180 C 
HETATM   14  C   UNK N   1      28.222   7.864  -1.954  0.00  0.00     0.243 C 
HETATM   15  O   UNK N   1      28.757   7.855  -0.853  0.00  0.00    -0.271 OA
HETATM   16  N   UNK N   1      26.864   7.953  -2.046  0.00  0.00    -0.341 N 
HETATM   17  C   UNK N   1      26.208   7.739  -3.340  0.00  0.00     0.179 C 
HETATM   18  C   UNK N   1      24.712   7.725  -3.223  0.00  0.00     0.241 C 
HETATM   19  O   UNK N   1      24.026   8.498  -3.872  0.00  0.00    -0.271 OA
HETATM   20  N   UNK N   1      24.169   6.774  -2.425  0.00  0.00    -0.346 N 
HETATM   21  C   UNK N   1      22.796   6.423  -2.179  0.00  0.00     0.172 C 
HETATM   22  C   UNK N   1      21.716   7.279  -2.778  0.00  0.00     0.240 C 
HETATM   23  O   UNK N   1      20.740   6.744  -3.284  0.00  0.00    -0.271 OA
HETATM   24  N   UNK N   1      21.641   8.562  -2.362  0.00  0.00    -0.346 N 
HETATM   25  C   UNK N   1      20.619   8.982  -1.435  0.00  0.00     0.172 C 
HETATM   26  C   UNK N   1      20.878   8.226  -0.148  0.00  0.00     0.242 C 
HETATM   27  O   UNK N   1      20.660   7.026  -0.101  0.00  0.00    -0.271 OA
HETATM   28  N   UNK N   1      21.456   8.865   0.905  0.00  0.00    -0.341 N 
HETATM   29  C   UNK N   1      21.581  10.322   0.872  0.00  0.00     0.179 C 
HETATM   30  C   UNK N   1      22.354  11.006   1.980  0.00  0.00     0.243 C 
HETATM   31  O   UNK N   1      22.865  10.326   2.859  0.00  0.00    -0.271 OA
HETATM   32  N   UNK N   1      22.394  12.381   2.041  0.00  0.00    -0.341 N 
HETATM   33  C   UNK N   1      22.758  13.159   3.224  0.00  0.00     0.179 C 
HETATM   34  C   UNK N   1      23.382  12.401   4.386  0.00  0.00     0.243 C 
HETATM   35  O   UNK N   1      22.734  11.562   4.992  0.00  0.00    -0.271 OA
HETATM   36  N   UNK N   1      24.678  12.643   4.718  0.00  0.00    -0.341 N 
HETATM   37  C   UNK N   1      25.343  13.829   4.180  0.00  0.00     0.182 C 
HETATM   38  C   UNK N   1      26.824  13.943   4.373  0.00  0.00     0.243 C 
HETATM   39  O   UNK N   1      27.303  13.660   5.460  0.00  0.00    -0.271 OA
HETATM   40  N   UNK N   1      27.560  14.629   3.443  0.00  0.00    -0.339 N 
HETATM   41  C   UNK N   1      28.815  15.292   3.770  0.00  0.00     0.207 C 
HETATM   42  C   UNK N   1      29.937  14.399   4.171  0.00  0.00     0.243 C 
HETATM   43  O   UNK N   1      29.841  13.681   5.155  0.00  0.00    -0.271 OA
HETATM   44  N   UNK N   1      31.087  14.442   3.475  0.00  0.00    -0.346 N 
HETATM   45  C   UNK N   1      26.984  14.929   2.150  0.00  0.00     0.153 C 
HETATM   46  C   UNK N   1      25.330  11.783   5.688  0.00  0.00     0.153 C 
HETATM   47  C   UNK N   1      21.989  13.148   0.877  0.00  0.00     0.153 C 
HETATM   48  C   UNK N   1      21.852   8.072   2.057  0.00  0.00     0.153 C 
HETATM   49  C   UNK N   1      19.200   8.808  -1.958  0.00  0.00     0.042 C 
HETATM   50  C   UNK N   1      22.607   4.937  -2.409  0.00  0.00     0.042 C 
HETATM   51  C   UNK N   1      26.096   8.192  -0.836  0.00  0.00     0.153 C 
HETATM   52  C   UNK N   1      29.152  10.659  -0.522  0.00  0.00     0.153 C 
HETATM   53  C   UNK N   1      30.205  11.551   3.511  0.00  0.00     0.153 C 
HETATM   54  H   UNK N   1      29.700   9.676  -4.043  0.00  0.00     0.163 HD
HETATM   55  H   UNK N   1      24.825   6.231  -1.931  0.00  0.00     0.163 HD
HETATM   56  H   UNK N   1      22.294   9.219  -2.697  0.00  0.00     0.163 HD
HETATM   57  H   UNK N   1      31.159  15.034   2.691  0.00  0.00     0.163 HD
ENDROOT
BRANCH  41  58
HETATM   58  C   UNK N   1      28.629  16.436   4.783  0.00  0.00     0.154 C 
BRANCH  58  59
HETATM   59  C   UNK N   1      29.234  17.791   4.361  0.00  0.00     0.016 C 
HETATM   60  C   UNK N   1      30.734  17.894   4.563  0.00  0.00     0.013 C 
BRANCH  59  61
HETATM   61  C   UNK N   1      28.533  18.949   5.049  0.00  0.00     0.033 C 
BRANCH  61  62
HETATM   62  C   UNK N   1      27.435  19.498   4.187  0.00  0.00    -0.031 C 
HETATM   63  C   UNK N   1      26.701  20.560   4.531  0.00  0.00    -0.035 C 
HETATM   64  C   UNK N   1      26.911  21.297   5.811  0.00  0.00     0.036 C 
ENDBRANCH  61  62
ENDBRANCH  59  61
ENDBRANCH  58  59
BRANCH  58  65
HETATM   65  O   UNK N   1      29.025  16.035   6.063  0.00  0.00    -0.393 OA
HETATM   66  H   UNK N   1      29.214  16.417   6.934  0.00  0.00     0.210 HD
ENDBRANCH  58  65
ENDBRANCH  41  58
BRANCH  37  67
HETATM   67  C   UNK N   1      24.805  15.101   4.873  0.00  0.00     0.009 C 
HETATM   68  C   UNK N   1      24.747  16.346   3.997  0.00  0.00     0.012 C 
HETATM   69  C   UNK N   1      25.314  15.378   6.267  0.00  0.00     0.012 C 
ENDBRANCH  37  67
BRANCH   1  70
HETATM   70  C   UNK N   1      33.436  14.546   3.942  0.00  0.00     0.030 C 
HETATM   71  C   UNK N   1      33.260  15.769   3.066  0.00  0.00     0.007 C 
ENDBRANCH   1  70
BRANCH  33  72
HETATM   72  C   UNK N   1      21.612  14.113   3.622  0.00  0.00     0.039 C 
BRANCH  72  73
HETATM   73  C   UNK N   1      21.498  14.476   5.091  0.00  0.00    -0.020 C 
HETATM   74  C   UNK N   1      21.305  15.974   5.214  0.00  0.00     0.009 C 
HETATM   75  C   UNK N   1      20.273  13.794   5.664  0.00  0.00     0.009 C 
ENDBRANCH  72  73
ENDBRANCH  33  72
BRANCH  29  76
HETATM   76  C   UNK N   1      20.149  10.899   0.906  0.00  0.00     0.039 C 
BRANCH  76  77
HETATM   77  C   UNK N   1      19.391  10.566   2.198  0.00  0.00    -0.020 C 
HETATM   78  C   UNK N   1      18.882  11.795   2.929  0.00  0.00     0.009 C 
HETATM   79  C   UNK N   1      18.222   9.668   1.874  0.00  0.00     0.009 C 
ENDBRANCH  76  77
ENDBRANCH  29  76
BRANCH   9  80
HETATM   80  C   UNK N   1      32.643  11.054  -2.199  0.00  0.00     0.013 C 
HETATM   81  C   UNK N   1      33.469   9.755  -2.179  0.00  0.00     0.012 C 
BRANCH  80  82
HETATM   82  C   UNK N   1      33.126  11.937  -3.349  0.00  0.00     0.002 C 
HETATM   83  C   UNK N   1      34.061  13.054  -2.884  0.00  0.00     0.005 C 
ENDBRANCH  80  82
ENDBRANCH   9  80
BRANCH  13  84
HETATM   84  C   UNK N   1      29.800   6.543  -3.583  0.00  0.00     0.009 C 
HETATM   85  C   UNK N   1      30.895   6.829  -4.590  0.00  0.00     0.012 C 
HETATM   86  C   UNK N   1      30.355   5.731  -2.430  0.00  0.00     0.012 C 
ENDBRANCH  13  84
BRANCH  17  87
HETATM   87  C   UNK N   1      26.594   6.321  -3.791  0.00  0.00     0.039 C 
BRANCH  87  88
HETATM   88  C   UNK N   1      26.435   6.009  -5.264  0.00  0.00    -0.020 C 
HETATM   89  C   UNK N   1      26.953   7.213  -6.023  0.00  0.00     0.009 C 
HETATM   90  C   UNK N   1      27.249   4.797  -5.667  0.00  0.00     0.009 C 
ENDBRANCH  87  88
ENDBRANCH  17  87
TORSDOF 16
ENDMDL
MODEL 5
REMARK VINA RESULT:      -6.6      6.667     12.625
REMARK  16 active torsions:
REMARK  status: ('A' for Active; 'I' for Inactive)
REMARK    1  A    between atoms: C_3  and  C_2 
REMARK    2  A    between atoms: C_11  and  C_80 
REMARK    3  A    between atoms: C_15  and  C_77 
REMARK    4  A    between atoms: C_19  and  C_72 
REMARK    5  A    between atoms: C_31  and  C_65 
REMARK    6  A    between atoms: C_35  and  C_60 
REMARK    7  A    between atoms: C_39  and  C_56 
REMARK    8  A    between atoms: C_43  and  C_47 
REMARK    9  A    between atoms: C_47  and  C_48 
REMARK   10  A    between atoms: C_47  and  O_54 
REMARK   11  A    between atoms: C_48  and  C_50 
REMARK   12  A    between atoms: C_50  and  C_51 
REMARK   13  A    between atoms: C_60  and  C_61 
REMARK   14  A    between atoms: C_65  and  C_66 
REMARK   15  A    between atoms: C_72  and  C_73 
REMARK   16  A    between atoms: C_80  and  C_82 
ROOT
HETATM    1  C   UNK N   1      20.945  15.586   5.665  0.00  0.00     0.176 C 
HETATM    2  C   UNK N   1      22.317  16.137   5.880  0.00  0.00     0.242 C 
HETATM    3  O   UNK N   1      22.472  17.350   5.941  0.00  0.00    -0.271 OA
HETATM    4  N   UNK N   1      23.398  15.296   5.912  0.00  0.00    -0.346 N 
HETATM    5  C   UNK N   1      24.722  15.802   5.811  0.00  0.00     0.228 C 
HETATM    6  C   UNK N   1      24.977  16.523   4.507  0.00  0.00     0.238 C 
HETATM    7  O   UNK N   1      24.257  17.450   4.172  0.00  0.00    -0.272 OA
HETATM    8  N   UNK N   1      26.196  16.385   3.950  0.00  0.00    -0.341 N 
HETATM    9  C   UNK N   1      27.068  17.573   3.782  0.00  0.00     0.182 C 
HETATM   10  C   UNK N   1      28.317  17.270   4.553  0.00  0.00     0.241 C 
HETATM   11  O   UNK N   1      28.232  17.072   5.757  0.00  0.00    -0.271 OA
HETATM   12  N   UNK N   1      29.447  16.965   3.871  0.00  0.00    -0.346 N 
HETATM   13  C   UNK N   1      30.509  16.150   4.429  0.00  0.00     0.180 C 
HETATM   14  C   UNK N   1      29.971  14.763   4.735  0.00  0.00     0.243 C 
HETATM   15  O   UNK N   1      29.106  14.619   5.588  0.00  0.00    -0.271 OA
HETATM   16  N   UNK N   1      30.402  13.685   4.018  0.00  0.00    -0.341 N 
HETATM   17  C   UNK N   1      31.585  13.809   3.160  0.00  0.00     0.179 C 
HETATM   18  C   UNK N   1      32.000  12.493   2.571  0.00  0.00     0.241 C 
HETATM   19  O   UNK N   1      32.089  12.349   1.362  0.00  0.00    -0.271 OA
HETATM   20  N   UNK N   1      32.335  11.510   3.442  0.00  0.00    -0.346 N 
HETATM   21  C   UNK N   1      32.865  10.192   3.216  0.00  0.00     0.172 C 
HETATM   22  C   UNK N   1      32.991   9.700   1.802  0.00  0.00     0.240 C 
HETATM   23  O   UNK N   1      34.000   9.099   1.465  0.00  0.00    -0.271 OA
HETATM   24  N   UNK N   1      31.849   9.548   1.096  0.00  0.00    -0.346 N 
HETATM   25  C   UNK N   1      31.292   8.238   0.861  0.00  0.00     0.172 C 
HETATM   26  C   UNK N   1      30.922   7.684   2.222  0.00  0.00     0.242 C 
HETATM   27  O   UNK N   1      31.805   7.351   2.995  0.00  0.00    -0.271 OA
HETATM   28  N   UNK N   1      29.619   7.669   2.612  0.00  0.00    -0.341 N 
HETATM   29  C   UNK N   1      28.576   7.943   1.623  0.00  0.00     0.179 C 
HETATM   30  C   UNK N   1      27.143   8.066   2.099  0.00  0.00     0.243 C 
HETATM   31  O   UNK N   1      26.899   7.951   3.292  0.00  0.00    -0.271 OA
HETATM   32  N   UNK N   1      26.126   8.211   1.183  0.00  0.00    -0.341 N 
HETATM   33  C   UNK N   1      24.711   7.962   1.452  0.00  0.00     0.179 C 
HETATM   34  C   UNK N   1      24.306   7.780   2.907  0.00  0.00     0.243 C 
HETATM   35  O   UNK N   1      24.718   6.824   3.546  0.00  0.00    -0.271 OA
HETATM   36  N   UNK N   1      23.509   8.711   3.496  0.00  0.00    -0.341 N 
HETATM   37  C   UNK N   1      22.805   9.680   2.658  0.00  0.00     0.182 C 
HETATM   38  C   UNK N   1      22.128  10.828   3.342  0.00  0.00     0.243 C 
HETATM   39  O   UNK N   1      21.482  10.615   4.356  0.00  0.00    -0.271 OA
HETATM   40  N   UNK N   1      22.002  12.016   2.670  0.00  0.00    -0.339 N 
HETATM   41  C   UNK N   1      20.925  12.960   2.942  0.00  0.00     0.207 C 
HETATM   42  C   UNK N   1      20.939  13.590   4.290  0.00  0.00     0.243 C 
HETATM   43  O   UNK N   1      20.848  12.906   5.300  0.00  0.00    -0.271 OA
HETATM   44  N   UNK N   1      20.983  14.931   4.385  0.00  0.00    -0.346 N 
HETATM   45  C   UNK N   1      22.797  12.260   1.486  0.00  0.00     0.153 C 
HETATM   46  C   UNK N   1      23.289   8.646   4.929  0.00  0.00     0.153 C 
HETATM   47  C   UNK N   1      26.457   8.577  -0.182  0.00  0.00     0.153 C 
HETATM   48  C   UNK N   1      29.317   7.299   3.984  0.00  0.00     0.153 C 
HETATM   49  C   UNK N   1      32.201   7.313   0.063  0.00  0.00     0.042 C 
HETATM   50  C   UNK N   1      34.116  10.002   4.051  0.00  0.00     0.042 C 
HETATM   51  C   UNK N   1      29.712  12.418   4.180  0.00  0.00     0.153 C 
HETATM   52  C   UNK N   1      26.800  15.064   3.973  0.00  0.00     0.153 C 
HETATM   53  C   UNK N   1      23.273  13.871   6.048  0.00  0.00     0.153 C 
HETATM   54  H   UNK N   1      29.553  17.312   2.957  0.00  0.00     0.163 HD
HETATM   55  H   UNK N   1      32.192  11.737   4.389  0.00  0.00     0.163 HD
HETATM   56  H   UNK N   1      31.391  10.342   0.737  0.00  0.00     0.163 HD
HETATM   57  H   UNK N   1      21.042  15.474   3.566  0.00  0.00     0.163 HD
ENDROOT
BRANCH  41  58
HETATM   58  C   UNK N   1      19.538  12.379   2.615  0.00  0.00     0.154 C 
BRANCH  58  59
HETATM   59  C   UNK N   1      18.895  12.908   1.316  0.00  0.00     0.016 C 
HETATM   60  C   UNK N   1      18.735  11.861   0.229  0.00  0.00     0.013 C 
BRANCH  59  61
HETATM   61  C   UNK N   1      19.646  14.112   0.777  0.00  0.00     0.033 C 
BRANCH  61  62
HETATM   62  C   UNK N   1      18.731  15.006  -0.007  0.00  0.00    -0.031 C 
HETATM   63  C   UNK N   1      18.927  16.322  -0.129  0.00  0.00    -0.035 C 
HETATM   64  C   UNK N   1      20.081  17.021   0.508  0.00  0.00     0.036 C 
ENDBRANCH  61  62
ENDBRANCH  59  61
ENDBRANCH  58  59
BRANCH  58  65
HETATM   65  O   UNK N   1      18.689  12.471   3.723  0.00  0.00    -0.393 OA
HETATM   66  H   UNK N   1      18.626  12.936   4.572  0.00  0.00     0.210 HD
ENDBRANCH  58  65
ENDBRANCH  41  58
BRANCH  37  67
HETATM   67  C   UNK N   1      21.644   8.991   1.908  0.00  0.00     0.009 C 
HETATM   68  C   UNK N   1      21.431   9.451   0.472  0.00  0.00     0.012 C 
HETATM   69  C   UNK N   1      20.354   8.816   2.674  0.00  0.00     0.012 C 
ENDBRANCH  37  67
BRANCH   1  70
HETATM   70  C   UNK N   1      19.860  16.656   5.613  0.00  0.00     0.030 C 
HETATM   71  C   UNK N   1      19.416  16.907   4.187  0.00  0.00     0.007 C 
ENDBRANCH   1  70
BRANCH  33  72
HETATM   72  C   UNK N   1      24.156   6.887   0.493  0.00  0.00     0.039 C 
BRANCH  72  73
HETATM   73  C   UNK N   1      23.048   5.998   1.024  0.00  0.00    -0.020 C 
HETATM   74  C   UNK N   1      21.940   5.922  -0.007  0.00  0.00     0.009 C 
HETATM   75  C   UNK N   1      23.602   4.602   1.224  0.00  0.00     0.009 C 
ENDBRANCH  72  73
ENDBRANCH  33  72
BRANCH  29  76
HETATM   76  C   UNK N   1      28.608   6.787   0.601  0.00  0.00     0.039 C 
BRANCH  76  77
HETATM   77  C   UNK N   1      28.308   5.417   1.223  0.00  0.00    -0.020 C 
HETATM   78  C   UNK N   1      27.127   4.712   0.582  0.00  0.00     0.009 C 
HETATM   79  C   UNK N   1      29.528   4.537   1.107  0.00  0.00     0.009 C 
ENDBRANCH  76  77
ENDBRANCH  29  76
BRANCH   9  80
HETATM   80  C   UNK N   1      26.470  18.928   4.315  0.00  0.00     0.013 C 
HETATM   81  C   UNK N   1      27.019  19.410   5.670  0.00  0.00     0.012 C 
BRANCH  80  82
HETATM   82  C   UNK N   1      26.538  20.077   3.310  0.00  0.00     0.002 C 
HETATM   83  C   UNK N   1      25.182  20.393   2.680  0.00  0.00     0.005 C 
ENDBRANCH  80  82
ENDBRANCH   9  80
BRANCH  13  84
HETATM   84  C   UNK N   1      31.429  16.821   5.462  0.00  0.00     0.009 C 
HETATM   85  C   UNK N   1      31.803  15.829   6.544  0.00  0.00     0.012 C 
HETATM   86  C   UNK N   1      32.677  17.487   4.917  0.00  0.00     0.012 C 
ENDBRANCH  13  84
BRANCH  17  87
HETATM   87  C   UNK N   1      32.744  14.227   4.079  0.00  0.00     0.039 C 
BRANCH  87  88
HETATM   88  C   UNK N   1      34.128  14.242   3.466  0.00  0.00    -0.020 C 
HETATM   89  C   UNK N   1      34.150  15.384   2.471  0.00  0.00     0.009 C 
HETATM   90  C   UNK N   1      35.197  14.491   4.509  0.00  0.00     0.009 C 
ENDBRANCH  87  88
ENDBRANCH  17  87
TORSDOF 16
ENDMDL
MODEL 6
REMARK VINA RESULT:      -6.6      4.335     12.112
REMARK  16 active torsions:
REMARK  status: ('A' for Active; 'I' for Inactive)
REMARK    1  A    between atoms: C_3  and  C_2 
REMARK    2  A    between atoms: C_11  and  C_80 
REMARK    3  A    between atoms: C_15  and  C_77 
REMARK    4  A    between atoms: C_19  and  C_72 
REMARK    5  A    between atoms: C_31  and  C_65 
REMARK    6  A    between atoms: C_35  and  C_60 
REMARK    7  A    between atoms: C_39  and  C_56 
REMARK    8  A    between atoms: C_43  and  C_47 
REMARK    9  A    between atoms: C_47  and  C_48 
REMARK   10  A    between atoms: C_47  and  O_54 
REMARK   11  A    between atoms: C_48  and  C_50 
REMARK   12  A    between atoms: C_50  and  C_51 
REMARK   13  A    between atoms: C_60  and  C_61 
REMARK   14  A    between atoms: C_65  and  C_66 
REMARK   15  A    between atoms: C_72  and  C_73 
REMARK   16  A    between atoms: C_80  and  C_82 
ROOT
HETATM    1  C   UNK N   1      24.844  13.795   1.248  0.00  0.00     0.176 C 
HETATM    2  C   UNK N   1      24.996  12.332   1.510  0.00  0.00     0.242 C 
HETATM    3  O   UNK N   1      24.017  11.603   1.418  0.00  0.00    -0.271 OA
HETATM    4  N   UNK N   1      26.196  11.832   1.942  0.00  0.00    -0.346 N 
HETATM    5  C   UNK N   1      26.291  10.522   2.484  0.00  0.00     0.228 C 
HETATM    6  C   UNK N   1      25.456  10.340   3.731  0.00  0.00     0.238 C 
HETATM    7  O   UNK N   1      24.260  10.587   3.705  0.00  0.00    -0.272 OA
HETATM    8  N   UNK N   1      25.959   9.557   4.706  0.00  0.00    -0.341 N 
HETATM    9  C   UNK N   1      25.250   8.313   5.090  0.00  0.00     0.182 C 
HETATM   10  C   UNK N   1      26.229   7.202   4.858  0.00  0.00     0.241 C 
HETATM   11  O   UNK N   1      26.656   7.020   3.727  0.00  0.00    -0.271 OA
HETATM   12  N   UNK N   1      26.811   6.610   5.929  0.00  0.00    -0.346 N 
HETATM   13  C   UNK N   1      28.107   5.962   5.865  0.00  0.00     0.180 C 
HETATM   14  C   UNK N   1      29.163   6.987   5.491  0.00  0.00     0.243 C 
HETATM   15  O   UNK N   1      29.128   7.525   4.393  0.00  0.00    -0.271 OA
HETATM   16  N   UNK N   1      30.115   7.355   6.396  0.00  0.00    -0.341 N 
HETATM   17  C   UNK N   1      30.301   6.563   7.616  0.00  0.00     0.179 C 
HETATM   18  C   UNK N   1      31.485   7.022   8.416  0.00  0.00     0.241 C 
HETATM   19  O   UNK N   1      31.358   7.367   9.581  0.00  0.00    -0.271 OA
HETATM   20  N   UNK N   1      32.695   6.967   7.808  0.00  0.00    -0.346 N 
HETATM   21  C   UNK N   1      34.016   7.227   8.313  0.00  0.00     0.172 C 
HETATM   22  C   UNK N   1      34.159   7.768   9.708  0.00  0.00     0.240 C 
HETATM   23  O   UNK N   1      35.031   7.318  10.438  0.00  0.00    -0.271 OA
HETATM   24  N   UNK N   1      33.638   8.990   9.955  0.00  0.00    -0.346 N 
HETATM   25  C   UNK N   1      34.489  10.148  10.069  0.00  0.00     0.172 C 
HETATM   26  C   UNK N   1      35.144  10.329   8.714  0.00  0.00     0.242 C 
HETATM   27  O   UNK N   1      35.995   9.535   8.347  0.00  0.00    -0.271 OA
HETATM   28  N   UNK N   1      34.699  11.303   7.875  0.00  0.00    -0.341 N 
HETATM   29  C   UNK N   1      33.779  12.319   8.387  0.00  0.00     0.179 C 
HETATM   30  C   UNK N   1      33.179  13.309   7.410  0.00  0.00     0.243 C 
HETATM   31  O   UNK N   1      33.464  13.223   6.223  0.00  0.00    -0.271 OA
HETATM   32  N   UNK N   1      32.402  14.345   7.874  0.00  0.00    -0.341 N 
HETATM   33  C   UNK N   1      32.085  15.559   7.124  0.00  0.00     0.179 C 
HETATM   34  C   UNK N   1      32.422  15.563   5.640  0.00  0.00     0.243 C 
HETATM   35  O   UNK N   1      33.585  15.498   5.273  0.00  0.00    -0.271 OA
HETATM   36  N   UNK N   1      31.412  15.605   4.730  0.00  0.00    -0.341 N 
HETATM   37  C   UNK N   1      30.067  15.963   5.173  0.00  0.00     0.182 C 
HETATM   38  C   UNK N   1      28.942  15.774   4.202  0.00  0.00     0.243 C 
HETATM   39  O   UNK N   1      29.098  16.119   3.041  0.00  0.00    -0.271 OA
HETATM   40  N   UNK N   1      27.689  15.501   4.687  0.00  0.00    -0.339 N 
HETATM   41  C   UNK N   1      26.474  15.860   3.967  0.00  0.00     0.207 C 
HETATM   42  C   UNK N   1      26.254  15.156   2.673  0.00  0.00     0.243 C 
HETATM   43  O   UNK N   1      27.056  15.270   1.757  0.00  0.00    -0.271 OA
HETATM   44  N   UNK N   1      25.124  14.448   2.499  0.00  0.00    -0.346 N 
HETATM   45  C   UNK N   1      27.529  15.067   6.058  0.00  0.00     0.153 C 
HETATM   46  C   UNK N   1      31.721  15.405   3.326  0.00  0.00     0.153 C 
HETATM   47  C   UNK N   1      31.894  14.289   9.233  0.00  0.00     0.153 C 
HETATM   48  C   UNK N   1      35.224  11.335   6.520  0.00  0.00     0.153 C 
HETATM   49  C   UNK N   1      35.491  10.071  11.213  0.00  0.00     0.042 C 
HETATM   50  C   UNK N   1      34.913   6.042   8.013  0.00  0.00     0.042 C 
HETATM   51  C   UNK N   1      30.968   8.489   6.090  0.00  0.00     0.153 C 
HETATM   52  C   UNK N   1      27.374   9.686   5.008  0.00  0.00     0.153 C 
HETATM   53  C   UNK N   1      27.420  12.582   1.880  0.00  0.00     0.153 C 
HETATM   54  H   UNK N   1      26.333   6.619   6.789  0.00  0.00     0.163 HD
HETATM   55  H   UNK N   1      32.664   6.703   6.860  0.00  0.00     0.163 HD
HETATM   56  H   UNK N   1      32.664   9.090  10.057  0.00  0.00     0.163 HD
HETATM   57  H   UNK N   1      24.478  14.374   3.238  0.00  0.00     0.163 HD
ENDROOT
BRANCH  41  58
HETATM   58  C   UNK N   1      26.315  17.382   3.804  0.00  0.00     0.154 C 
BRANCH  58  59
HETATM   59  C   UNK N   1      25.548  18.086   4.942  0.00  0.00     0.016 C 
HETATM   60  C   UNK N   1      24.174  17.506   5.221  0.00  0.00     0.013 C 
BRANCH  59  61
HETATM   61  C   UNK N   1      25.445  19.582   4.698  0.00  0.00     0.033 C 
BRANCH  61  62
HETATM   62  C   UNK N   1      26.803  20.218   4.696  0.00  0.00    -0.031 C 
HETATM   63  C   UNK N   1      27.259  20.963   5.707  0.00  0.00    -0.035 C 
HETATM   64  C   UNK N   1      26.452  21.228   6.934  0.00  0.00     0.036 C 
ENDBRANCH  61  62
ENDBRANCH  59  61
ENDBRANCH  58  59
BRANCH  58  65
HETATM   65  O   UNK N   1      25.820  17.696   2.535  0.00  0.00    -0.393 OA
HETATM   66  H   UNK N   1      25.414  18.438   2.060  0.00  0.00     0.210 HD
ENDBRANCH  58  65
ENDBRANCH  41  58
BRANCH  37  67
HETATM   67  C   UNK N   1      29.996  17.472   5.495  0.00  0.00     0.009 C 
HETATM   68  C   UNK N   1      29.145  17.843   6.703  0.00  0.00     0.012 C 
HETATM   69  C   UNK N   1      29.802  18.404   4.323  0.00  0.00     0.012 C 
ENDBRANCH  37  67
BRANCH   1  70
HETATM   70  C   UNK N   1      23.437  14.193   0.815  0.00  0.00     0.030 C 
HETATM   71  C   UNK N   1      22.667  14.798   1.971  0.00  0.00     0.007 C 
ENDBRANCH   1  70
BRANCH  33  72
HETATM   72  C   UNK N   1      32.557  16.813   7.891  0.00  0.00     0.039 C 
BRANCH  72  73
HETATM   73  C   UNK N   1      34.050  16.961   8.114  0.00  0.00    -0.020 C 
HETATM   74  C   UNK N   1      34.479  18.347   7.677  0.00  0.00     0.009 C 
HETATM   75  C   UNK N   1      34.334  16.826   9.596  0.00  0.00     0.009 C 
ENDBRANCH  72  73
ENDBRANCH  33  72
BRANCH  29  76
HETATM   76  C   UNK N   1      34.557  13.144   9.435  0.00  0.00     0.039 C 
BRANCH  76  77
HETATM   77  C   UNK N   1      36.060  13.236   9.143  0.00  0.00    -0.020 C 
HETATM   78  C   UNK N   1      36.413  14.325   8.146  0.00  0.00     0.009 C 
HETATM   79  C   UNK N   1      36.805  13.488  10.431  0.00  0.00     0.009 C 
ENDBRANCH  76  77
ENDBRANCH  29  76
BRANCH   9  80
HETATM   80  C   UNK N   1      23.942   8.002   4.272  0.00  0.00     0.013 C 
HETATM   81  C   UNK N   1      23.919   6.646   3.544  0.00  0.00     0.012 C 
BRANCH  80  82
HETATM   82  C   UNK N   1      22.652   8.161   5.077  0.00  0.00     0.002 C 
HETATM   83  C   UNK N   1      22.453   7.045   6.102  0.00  0.00     0.005 C 
ENDBRANCH  80  82
ENDBRANCH   9  80
BRANCH  13  84
HETATM   84  C   UNK N   1      28.159   4.580   5.194  0.00  0.00     0.009 C 
HETATM   85  C   UNK N   1      26.822   3.883   5.337  0.00  0.00     0.012 C 
HETATM   86  C   UNK N   1      28.605   4.553   3.746  0.00  0.00     0.012 C 
ENDBRANCH  13  84
BRANCH  17  87
HETATM   87  C   UNK N   1      30.649   5.137   7.158  0.00  0.00     0.039 C 
BRANCH  87  88
HETATM   88  C   UNK N   1      30.467   4.032   8.176  0.00  0.00    -0.020 C 
HETATM   89  C   UNK N   1      29.150   4.296   8.875  0.00  0.00     0.009 C 
HETATM   90  C   UNK N   1      30.397   2.671   7.514  0.00  0.00     0.009 C 
ENDBRANCH  87  88
ENDBRANCH  17  87
TORSDOF 16
ENDMDL
MODEL 7
REMARK VINA RESULT:      -6.5      5.833     10.329
REMARK  16 active torsions:
REMARK  status: ('A' for Active; 'I' for Inactive)
REMARK    1  A    between atoms: C_3  and  C_2 
REMARK    2  A    between atoms: C_11  and  C_80 
REMARK    3  A    between atoms: C_15  and  C_77 
REMARK    4  A    between atoms: C_19  and  C_72 
REMARK    5  A    between atoms: C_31  and  C_65 
REMARK    6  A    between atoms: C_35  and  C_60 
REMARK    7  A    between atoms: C_39  and  C_56 
REMARK    8  A    between atoms: C_43  and  C_47 
REMARK    9  A    between atoms: C_47  and  C_48 
REMARK   10  A    between atoms: C_47  and  O_54 
REMARK   11  A    between atoms: C_48  and  C_50 
REMARK   12  A    between atoms: C_50  and  C_51 
REMARK   13  A    between atoms: C_60  and  C_61 
REMARK   14  A    between atoms: C_65  and  C_66 
REMARK   15  A    between atoms: C_72  and  C_73 
REMARK   16  A    between atoms: C_80  and  C_82 
ROOT
HETATM    1  C   UNK N   1      33.819  13.433   4.502  0.00  0.00     0.176 C 
HETATM    2  C   UNK N   1      32.905  14.610   4.603  0.00  0.00     0.242 C 
HETATM    3  O   UNK N   1      33.190  15.525   5.366  0.00  0.00    -0.271 OA
HETATM    4  N   UNK N   1      31.716  14.619   3.921  0.00  0.00    -0.346 N 
HETATM    5  C   UNK N   1      30.704  15.567   4.228  0.00  0.00     0.228 C 
HETATM    6  C   UNK N   1      30.201  15.450   5.649  0.00  0.00     0.238 C 
HETATM    7  O   UNK N   1      30.988  15.514   6.580  0.00  0.00    -0.272 OA
HETATM    8  N   UNK N   1      28.889  15.668   5.863  0.00  0.00    -0.341 N 
HETATM    9  C   UNK N   1      28.459  16.801   6.717  0.00  0.00     0.182 C 
HETATM   10  C   UNK N   1      27.594  17.659   5.845  0.00  0.00     0.241 C 
HETATM   11  O   UNK N   1      28.080  18.152   4.836  0.00  0.00    -0.271 OA
HETATM   12  N   UNK N   1      26.253  17.651   6.043  0.00  0.00    -0.346 N 
HETATM   13  C   UNK N   1      25.299  17.958   4.996  0.00  0.00     0.180 C 
HETATM   14  C   UNK N   1      25.432  16.937   3.880  0.00  0.00     0.243 C 
HETATM   15  O   UNK N   1      26.466  16.878   3.228  0.00  0.00    -0.271 OA
HETATM   16  N   UNK N   1      24.428  16.046   3.640  0.00  0.00    -0.341 N 
HETATM   17  C   UNK N   1      23.112  16.251   4.254  0.00  0.00     0.179 C 
HETATM   18  C   UNK N   1      22.095  15.264   3.762  0.00  0.00     0.241 C 
HETATM   19  O   UNK N   1      21.492  14.544   4.542  0.00  0.00    -0.271 OA
HETATM   20  N   UNK N   1      21.834  15.265   2.431  0.00  0.00    -0.346 N 
HETATM   21  C   UNK N   1      20.861  14.536   1.662  0.00  0.00     0.172 C 
HETATM   22  C   UNK N   1      20.033  13.491   2.355  0.00  0.00     0.240 C 
HETATM   23  O   UNK N   1      18.837  13.417   2.111  0.00  0.00    -0.271 OA
HETATM   24  N   UNK N   1      20.684  12.422   2.863  0.00  0.00    -0.346 N 
HETATM   25  C   UNK N   1      20.644  11.144   2.196  0.00  0.00     0.172 C 
HETATM   26  C   UNK N   1      21.322  11.344   0.856  0.00  0.00     0.242 C 
HETATM   27  O   UNK N   1      20.762  11.998  -0.009  0.00  0.00    -0.271 OA
HETATM   28  N   UNK N   1      22.590  10.891   0.667  0.00  0.00    -0.341 N 
HETATM   29  C   UNK N   1      23.183   9.997   1.664  0.00  0.00     0.179 C 
HETATM   30  C   UNK N   1      24.642   9.618   1.517  0.00  0.00     0.243 C 
HETATM   31  O   UNK N   1      25.287  10.078   0.585  0.00  0.00    -0.271 OA
HETATM   32  N   UNK N   1      25.199   8.692   2.369  0.00  0.00    -0.341 N 
HETATM   33  C   UNK N   1      26.440   7.960   2.121  0.00  0.00     0.179 C 
HETATM   34  C   UNK N   1      27.306   8.440   0.966  0.00  0.00     0.243 C 
HETATM   35  O   UNK N   1      26.895   8.370  -0.182  0.00  0.00    -0.271 OA
HETATM   36  N   UNK N   1      28.526   8.980   1.230  0.00  0.00    -0.341 N 
HETATM   37  C   UNK N   1      29.112   8.801   2.557  0.00  0.00     0.182 C 
HETATM   38  C   UNK N   1      30.338   9.597   2.889  0.00  0.00     0.243 C 
HETATM   39  O   UNK N   1      31.226   9.691   2.055  0.00  0.00    -0.271 OA
HETATM   40  N   UNK N   1      30.565   9.947   4.194  0.00  0.00    -0.339 N 
HETATM   41  C   UNK N   1      31.903  10.177   4.722  0.00  0.00     0.207 C 
HETATM   42  C   UNK N   1      32.631  11.348   4.159  0.00  0.00     0.243 C 
HETATM   43  O   UNK N   1      32.887  11.408   2.965  0.00  0.00    -0.271 OA
HETATM   44  N   UNK N   1      33.066  12.310   4.993  0.00  0.00    -0.346 N 
HETATM   45  C   UNK N   1      29.492   9.855   5.159  0.00  0.00     0.153 C 
HETATM   46  C   UNK N   1      29.262   9.619   0.155  0.00  0.00     0.153 C 
HETATM   47  C   UNK N   1      24.492   8.346   3.589  0.00  0.00     0.153 C 
HETATM   48  C   UNK N   1      23.274  11.253  -0.563  0.00  0.00     0.153 C 
HETATM   49  C   UNK N   1      19.247  10.550   2.079  0.00  0.00     0.042 C 
HETATM   50  C   UNK N   1      20.057  15.506   0.819  0.00  0.00     0.042 C 
HETATM   51  C   UNK N   1      24.674  14.947   2.722  0.00  0.00     0.153 C 
HETATM   52  C   UNK N   1      27.951  15.112   4.903  0.00  0.00     0.153 C 
HETATM   53  C   UNK N   1      31.415  13.688   2.869  0.00  0.00     0.153 C 
HETATM   54  H   UNK N   1      25.913  17.428   6.939  0.00  0.00     0.163 HD
HETATM   55  H   UNK N   1      22.406  15.867   1.903  0.00  0.00     0.163 HD
HETATM   56  H   UNK N   1      21.193  12.518   3.701  0.00  0.00     0.163 HD
HETATM   57  H   UNK N   1      32.867  12.245   5.955  0.00  0.00     0.163 HD
ENDROOT
BRANCH  41  58
HETATM   58  C   UNK N   1      32.777   8.911   4.683  0.00  0.00     0.154 C 
BRANCH  58  59
HETATM   59  C   UNK N   1      33.019   8.239   6.051  0.00  0.00     0.016 C 
HETATM   60  C   UNK N   1      32.436   6.844   6.173  0.00  0.00     0.013 C 
BRANCH  59  61
HETATM   61  C   UNK N   1      32.528   9.113   7.192  0.00  0.00     0.033 C 
BRANCH  61  62
HETATM   62  C   UNK N   1      31.490   8.398   8.004  0.00  0.00    -0.031 C 
HETATM   63  C   UNK N   1      31.494   8.383   9.340  0.00  0.00    -0.035 C 
HETATM   64  C   UNK N   1      32.538   9.081  10.145  0.00  0.00     0.036 C 
ENDBRANCH  61  62
ENDBRANCH  59  61
ENDBRANCH  58  59
BRANCH  58  65
HETATM   65  O   UNK N   1      33.958   9.145   3.971  0.00  0.00    -0.393 OA
HETATM   66  H   UNK N   1      34.718   8.657   3.615  0.00  0.00     0.210 HD
ENDBRANCH  58  65
ENDBRANCH  41  58
BRANCH  37  67
HETATM   67  C   UNK N   1      29.589   7.343   2.737  0.00  0.00     0.009 C 
HETATM   68  C   UNK N   1      29.395   6.760   4.131  0.00  0.00     0.012 C 
HETATM   69  C   UNK N   1      30.922   6.987   2.124  0.00  0.00     0.012 C 
ENDBRANCH  37  67
BRANCH   1  70
HETATM   70  C   UNK N   1      35.077  13.563   5.353  0.00  0.00     0.030 C 
HETATM   71  C   UNK N   1      34.972  12.719   6.606  0.00  0.00     0.007 C 
ENDBRANCH   1  70
BRANCH  33  72
HETATM   72  C   UNK N   1      26.188   6.438   2.143  0.00  0.00     0.039 C 
BRANCH  72  73
HETATM   73  C   UNK N   1      27.055   5.584   1.237  0.00  0.00    -0.020 C 
HETATM   74  C   UNK N   1      27.587   4.407   2.031  0.00  0.00     0.009 C 
HETATM   75  C   UNK N   1      26.195   5.043   0.113  0.00  0.00     0.009 C 
ENDBRANCH  72  73
ENDBRANCH  33  72
BRANCH  29  76
HETATM   76  C   UNK N   1      22.375   8.683   1.627  0.00  0.00     0.039 C 
BRANCH  76  77
HETATM   77  C   UNK N   1      22.483   7.939   0.290  0.00  0.00    -0.020 C 
HETATM   78  C   UNK N   1      22.957   6.504   0.438  0.00  0.00     0.009 C 
HETATM   79  C   UNK N   1      21.139   7.944  -0.396  0.00  0.00     0.009 C 
ENDBRANCH  76  77
ENDBRANCH  29  76
BRANCH   9  80
HETATM   80  C   UNK N   1      29.623  17.691   7.292  0.00  0.00     0.013 C 
HETATM   81  C   UNK N   1      29.354  19.206   7.314  0.00  0.00     0.012 C 
BRANCH  80  82
HETATM   82  C   UNK N   1      30.122  17.250   8.668  0.00  0.00     0.002 C 
HETATM   83  C   UNK N   1      29.036  17.321   9.741  0.00  0.00     0.005 C 
ENDBRANCH  80  82
ENDBRANCH   9  80
BRANCH  13  84
HETATM   84  C   UNK N   1      25.136  19.439   4.617  0.00  0.00     0.009 C 
HETATM   85  C   UNK N   1      25.854  20.313   5.624  0.00  0.00     0.012 C 
HETATM   86  C   UNK N   1      25.550  19.821   3.211  0.00  0.00     0.012 C 
ENDBRANCH  13  84
BRANCH  17  87
HETATM   87  C   UNK N   1      22.616  17.622   3.767  0.00  0.00     0.039 C 
BRANCH  87  88
HETATM   88  C   UNK N   1      21.370  18.170   4.428  0.00  0.00    -0.020 C 
HETATM   89  C   UNK N   1      21.689  18.321   5.901  0.00  0.00     0.009 C 
HETATM   90  C   UNK N   1      20.996  19.529   3.874  0.00  0.00     0.009 C 
ENDBRANCH  87  88
ENDBRANCH  17  87
TORSDOF 16
ENDMDL
MODEL 8
REMARK VINA RESULT:      -6.4      5.142      7.968
REMARK  16 active torsions:
REMARK  status: ('A' for Active; 'I' for Inactive)
REMARK    1  A    between atoms: C_3  and  C_2 
REMARK    2  A    between atoms: C_11  and  C_80 
REMARK    3  A    between atoms: C_15  and  C_77 
REMARK    4  A    between atoms: C_19  and  C_72 
REMARK    5  A    between atoms: C_31  and  C_65 
REMARK    6  A    between atoms: C_35  and  C_60 
REMARK    7  A    between atoms: C_39  and  C_56 
REMARK    8  A    between atoms: C_43  and  C_47 
REMARK    9  A    between atoms: C_47  and  C_48 
REMARK   10  A    between atoms: C_47  and  O_54 
REMARK   11  A    between atoms: C_48  and  C_50 
REMARK   12  A    between atoms: C_50  and  C_51 
REMARK   13  A    between atoms: C_60  and  C_61 
REMARK   14  A    between atoms: C_65  and  C_66 
REMARK   15  A    between atoms: C_72  and  C_73 
REMARK   16  A    between atoms: C_80  and  C_82 
ROOT
HETATM    1  C   UNK N   1      29.663  18.109   7.117  0.00  0.00     0.176 C 
HETATM    2  C   UNK N   1      28.454  17.570   6.425  0.00  0.00     0.242 C 
HETATM    3  O   UNK N   1      27.350  17.741   6.927  0.00  0.00    -0.271 OA
HETATM    4  N   UNK N   1      28.591  16.811   5.292  0.00  0.00    -0.346 N 
HETATM    5  C   UNK N   1      27.506  16.042   4.791  0.00  0.00     0.228 C 
HETATM    6  C   UNK N   1      27.031  14.990   5.767  0.00  0.00     0.238 C 
HETATM    7  O   UNK N   1      26.695  15.313   6.895  0.00  0.00    -0.272 OA
HETATM    8  N   UNK N   1      26.627  13.809   5.259  0.00  0.00    -0.341 N 
HETATM    9  C   UNK N   1      25.221  13.374   5.434  0.00  0.00     0.182 C 
HETATM   10  C   UNK N   1      24.677  13.194   4.049  0.00  0.00     0.241 C 
HETATM   11  O   UNK N   1      24.648  14.160   3.298  0.00  0.00    -0.271 OA
HETATM   12  N   UNK N   1      24.483  11.938   3.581  0.00  0.00    -0.346 N 
HETATM   13  C   UNK N   1      24.506  11.610   2.169  0.00  0.00     0.180 C 
HETATM   14  C   UNK N   1      25.879  11.922   1.602  0.00  0.00     0.243 C 
HETATM   15  O   UNK N   1      26.277  13.079   1.569  0.00  0.00    -0.271 OA
HETATM   16  N   UNK N   1      26.697  10.912   1.186  0.00  0.00    -0.341 N 
HETATM   17  C   UNK N   1      26.152   9.562   1.013  0.00  0.00     0.179 C 
HETATM   18  C   UNK N   1      27.152   8.620   0.409  0.00  0.00     0.241 C 
HETATM   19  O   UNK N   1      27.465   7.587   0.980  0.00  0.00    -0.271 OA
HETATM   20  N   UNK N   1      27.628   8.936  -0.821  0.00  0.00    -0.346 N 
HETATM   21  C   UNK N   1      28.498   8.213  -1.709  0.00  0.00     0.172 C 
HETATM   22  C   UNK N   1      29.122   6.936  -1.222  0.00  0.00     0.240 C 
HETATM   23  O   UNK N   1      29.170   5.970  -1.970  0.00  0.00    -0.271 OA
HETATM   24  N   UNK N   1      29.977   7.023  -0.179  0.00  0.00    -0.346 N 
HETATM   25  C   UNK N   1      31.402   6.933  -0.380  0.00  0.00     0.172 C 
HETATM   26  C   UNK N   1      31.787   8.127  -1.231  0.00  0.00     0.242 C 
HETATM   27  O   UNK N   1      31.457   8.159  -2.405  0.00  0.00    -0.271 OA
HETATM   28  N   UNK N   1      32.395   9.198  -0.654  0.00  0.00    -0.341 N 
HETATM   29  C   UNK N   1      32.898   9.079   0.715  0.00  0.00     0.179 C 
HETATM   30  C   UNK N   1      33.441  10.319   1.395  0.00  0.00     0.243 C 
HETATM   31  O   UNK N   1      33.428  11.384   0.794  0.00  0.00    -0.271 OA
HETATM   32  N   UNK N   1      34.025  10.220   2.637  0.00  0.00    -0.341 N 
HETATM   33  C   UNK N   1      34.909  11.220   3.233  0.00  0.00     0.179 C 
HETATM   34  C   UNK N   1      34.983  12.575   2.545  0.00  0.00     0.243 C 
HETATM   35  O   UNK N   1      35.442  12.668   1.416  0.00  0.00    -0.271 OA
HETATM   36  N   UNK N   1      34.501  13.673   3.185  0.00  0.00    -0.341 N 
HETATM   37  C   UNK N   1      34.221  13.597   4.618  0.00  0.00     0.182 C 
HETATM   38  C   UNK N   1      33.478  14.738   5.243  0.00  0.00     0.243 C 
HETATM   39  O   UNK N   1      33.789  15.881   4.944  0.00  0.00    -0.271 OA
HETATM   40  N   UNK N   1      32.686  14.492   6.333  0.00  0.00    -0.339 N 
HETATM   41  C   UNK N   1      32.400  15.506   7.339  0.00  0.00     0.207 C 
HETATM   42  C   UNK N   1      31.601  16.674   6.876  0.00  0.00     0.243 C 
HETATM   43  O   UNK N   1      32.020  17.403   5.988  0.00  0.00    -0.271 OA
HETATM   44  N   UNK N   1      30.442  16.961   7.495  0.00  0.00    -0.346 N 
HETATM   45  C   UNK N   1      32.306  13.133   6.653  0.00  0.00     0.153 C 
HETATM   46  C   UNK N   1      34.387  14.922   2.456  0.00  0.00     0.153 C 
HETATM   47  C   UNK N   1      33.818   9.012   3.417  0.00  0.00     0.153 C 
HETATM   48  C   UNK N   1      32.588  10.394  -1.457  0.00  0.00     0.153 C 
HETATM   49  C   UNK N   1      31.863   5.606  -0.967  0.00  0.00     0.042 C 
HETATM   50  C   UNK N   1      27.847   8.103  -3.073  0.00  0.00     0.042 C 
HETATM   51  C   UNK N   1      28.078  11.221   0.860  0.00  0.00     0.153 C 
HETATM   52  C   UNK N   1      27.413  13.239   4.178  0.00  0.00     0.153 C 
HETATM   53  C   UNK N   1      29.817  16.739   4.546  0.00  0.00     0.153 C 
HETATM   54  H   UNK N   1      24.320  11.215   4.229  0.00  0.00     0.163 HD
HETATM   55  H   UNK N   1      27.326   9.808  -1.164  0.00  0.00     0.163 HD
HETATM   56  H   UNK N   1      29.621   7.150   0.730  0.00  0.00     0.163 HD
HETATM   57  H   UNK N   1      30.120  16.375   8.219  0.00  0.00     0.163 HD
ENDROOT
BRANCH  41  58
HETATM   58  C   UNK N   1      33.664  15.962   8.091  0.00  0.00     0.154 C 
BRANCH  58  59
HETATM   59  C   UNK N   1      34.213  14.954   9.122  0.00  0.00     0.016 C 
HETATM   60  C   UNK N   1      33.460  14.938  10.440  0.00  0.00     0.013 C 
BRANCH  59  61
HETATM   61  C   UNK N   1      35.696  15.167   9.369  0.00  0.00     0.033 C 
BRANCH  61  62
HETATM   62  C   UNK N   1      36.239  14.120  10.296  0.00  0.00    -0.031 C 
HETATM   63  C   UNK N   1      37.409  13.507  10.097  0.00  0.00    -0.035 C 
HETATM   64  C   UNK N   1      38.284  13.813   8.927  0.00  0.00     0.036 C 
ENDBRANCH  61  62
ENDBRANCH  59  61
ENDBRANCH  58  59
BRANCH  58  65
HETATM   65  O   UNK N   1      33.492  17.246   8.618  0.00  0.00    -0.393 OA
HETATM   66  H   UNK N   1      32.794  17.804   8.996  0.00  0.00     0.210 HD
ENDBRANCH  58  65
ENDBRANCH  41  58
BRANCH  37  67
HETATM   67  C   UNK N   1      35.543  13.566   5.418  0.00  0.00     0.009 C 
HETATM   68  C   UNK N   1      35.553  12.635   6.624  0.00  0.00     0.012 C 
HETATM   69  C   UNK N   1      36.200  14.898   5.688  0.00  0.00     0.012 C 
ENDBRANCH  37  67
BRANCH   1  70
HETATM   70  C   UNK N   1      29.340  18.895   8.383  0.00  0.00     0.030 C 
HETATM   71  C   UNK N   1      29.675  18.088   9.620  0.00  0.00     0.007 C 
ENDBRANCH   1  70
BRANCH  33  72
HETATM   72  C   UNK N   1      36.281  10.599   3.575  0.00  0.00     0.039 C 
BRANCH  72  73
HETATM   73  C   UNK N   1      37.490  11.510   3.483  0.00  0.00    -0.020 C 
HETATM   74  C   UNK N   1      38.331  11.341   4.732  0.00  0.00     0.009 C 
HETATM   75  C   UNK N   1      38.325  11.086   2.292  0.00  0.00     0.009 C 
ENDBRANCH  72  73
ENDBRANCH  33  72
BRANCH  29  76
HETATM   76  C   UNK N   1      34.048   8.049   0.685  0.00  0.00     0.039 C 
BRANCH  76  77
HETATM   77  C   UNK N   1      35.241   8.494  -0.171  0.00  0.00    -0.020 C 
HETATM   78  C   UNK N   1      36.558   8.481   0.583  0.00  0.00     0.009 C 
HETATM   79  C   UNK N   1      35.355   7.594  -1.376  0.00  0.00     0.009 C 
ENDBRANCH  76  77
ENDBRANCH  29  76
BRANCH   9  80
HETATM   80  C   UNK N   1      24.294  14.386   6.205  0.00  0.00     0.013 C 
HETATM   81  C   UNK N   1      23.217  15.084   5.355  0.00  0.00     0.012 C 
BRANCH  80  82
HETATM   82  C   UNK N   1      23.642  13.803   7.458  0.00  0.00     0.002 C 
HETATM   83  C   UNK N   1      24.630  13.040   8.339  0.00  0.00     0.005 C 
ENDBRANCH  80  82
ENDBRANCH   9  80
BRANCH  13  84
HETATM   84  C   UNK N   1      23.268  12.002   1.346  0.00  0.00     0.009 C 
HETATM   85  C   UNK N   1      22.059  12.118   2.251  0.00  0.00     0.012 C 
HETATM   86  C   UNK N   1      23.397  13.249   0.493  0.00  0.00     0.012 C 
ENDBRANCH  13  84
BRANCH  17  87
HETATM   87  C   UNK N   1      25.026   9.679  -0.026  0.00  0.00     0.039 C 
BRANCH  87  88
HETATM   88  C   UNK N   1      24.027   8.543  -0.079  0.00  0.00    -0.020 C 
HETATM   89  C   UNK N   1      23.652   8.226   1.353  0.00  0.00     0.009 C 
HETATM   90  C   UNK N   1      22.772   8.939  -0.830  0.00  0.00     0.009 C 
ENDBRANCH  87  88
ENDBRANCH  17  87
TORSDOF 16
ENDMDL
MODEL 9
REMARK VINA RESULT:      -6.4      3.919     12.970
REMARK  16 active torsions:
REMARK  status: ('A' for Active; 'I' for Inactive)
REMARK    1  A    between atoms: C_3  and  C_2 
REMARK    2  A    between atoms: C_11  and  C_80 
REMARK    3  A    between atoms: C_15  and  C_77 
REMARK    4  A    between atoms: C_19  and  C_72 
REMARK    5  A    between atoms: C_31  and  C_65 
REMARK    6  A    between atoms: C_35  and  C_60 
REMARK    7  A    between atoms: C_39  and  C_56 
REMARK    8  A    between atoms: C_43  and  C_47 
REMARK    9  A    between atoms: C_47  and  C_48 
REMARK   10  A    between atoms: C_47  and  O_54 
REMARK   11  A    between atoms: C_48  and  C_50 
REMARK   12  A    between atoms: C_50  and  C_51 
REMARK   13  A    between atoms: C_60  and  C_61 
REMARK   14  A    between atoms: C_65  and  C_66 
REMARK   15  A    between atoms: C_72  and  C_73 
REMARK   16  A    between atoms: C_80  and  C_82 
ROOT
HETATM    1  C   UNK N   1      25.629  11.388   0.901  0.00  0.00     0.176 C 
HETATM    2  C   UNK N   1      26.371  10.157   1.307  0.00  0.00     0.242 C 
HETATM    3  O   UNK N   1      25.819   9.068   1.216  0.00  0.00    -0.271 OA
HETATM    4  N   UNK N   1      27.619  10.259   1.864  0.00  0.00    -0.346 N 
HETATM    5  C   UNK N   1      28.216   9.154   2.529  0.00  0.00     0.228 C 
HETATM    6  C   UNK N   1      27.420   8.692   3.728  0.00  0.00     0.238 C 
HETATM    7  O   UNK N   1      26.245   8.386   3.599  0.00  0.00    -0.272 OA
HETATM    8  N   UNK N   1      28.110   8.263   4.803  0.00  0.00    -0.341 N 
HETATM    9  C   UNK N   1      27.975   6.856   5.253  0.00  0.00     0.182 C 
HETATM   10  C   UNK N   1      29.356   6.277   5.191  0.00  0.00     0.241 C 
HETATM   11  O   UNK N   1      29.932   6.241   4.112  0.00  0.00    -0.271 OA
HETATM   12  N   UNK N   1      30.025   6.059   6.349  0.00  0.00    -0.346 N 
HETATM   13  C   UNK N   1      31.473   6.044   6.433  0.00  0.00     0.180 C 
HETATM   14  C   UNK N   1      32.014   7.407   6.038  0.00  0.00     0.243 C 
HETATM   15  O   UNK N   1      31.861   7.816   4.895  0.00  0.00    -0.271 OA
HETATM   16  N   UNK N   1      32.615   8.204   6.968  0.00  0.00    -0.341 N 
HETATM   17  C   UNK N   1      33.001   7.641   8.266  0.00  0.00     0.179 C 
HETATM   18  C   UNK N   1      33.781   8.616   9.098  0.00  0.00     0.241 C 
HETATM   19  O   UNK N   1      33.401   8.931  10.214  0.00  0.00    -0.271 OA
HETATM   20  N   UNK N   1      34.951   9.065   8.580  0.00  0.00    -0.346 N 
HETATM   21  C   UNK N   1      35.971   9.906   9.148  0.00  0.00     0.172 C 
HETATM   22  C   UNK N   1      35.723  10.528  10.493  0.00  0.00     0.240 C 
HETATM   23  O   UNK N   1      36.625  10.547  11.319  0.00  0.00    -0.271 OA
HETATM   24  N   UNK N   1      34.703  11.408  10.590  0.00  0.00    -0.346 N 
HETATM   25  C   UNK N   1      34.953  12.827  10.654  0.00  0.00     0.172 C 
HETATM   26  C   UNK N   1      35.598  13.204   9.335  0.00  0.00     0.242 C 
HETATM   27  O   UNK N   1      36.741  12.846   9.102  0.00  0.00    -0.271 OA
HETATM   28  N   UNK N   1      34.864  13.837   8.381  0.00  0.00    -0.341 N 
HETATM   29  C   UNK N   1      33.548  14.372   8.734  0.00  0.00     0.179 C 
HETATM   30  C   UNK N   1      32.681  14.944   7.631  0.00  0.00     0.243 C 
HETATM   31  O   UNK N   1      33.093  14.928   6.479  0.00  0.00    -0.271 OA
HETATM   32  N   UNK N   1      31.489  15.557   7.943  0.00  0.00    -0.341 N 
HETATM   33  C   UNK N   1      30.756  16.466   7.064  0.00  0.00     0.179 C 
HETATM   34  C   UNK N   1      31.206  16.538   5.613  0.00  0.00     0.243 C 
HETATM   35  O   UNK N   1      32.314  16.970   5.333  0.00  0.00    -0.271 OA
HETATM   36  N   UNK N   1      30.377  16.083   4.637  0.00  0.00    -0.341 N 
HETATM   37  C   UNK N   1      28.971  15.836   4.953  0.00  0.00     0.182 C 
HETATM   38  C   UNK N   1      28.143  15.121   3.929  0.00  0.00     0.243 C 
HETATM   39  O   UNK N   1      28.252  15.437   2.754  0.00  0.00    -0.271 OA
HETATM   40  N   UNK N   1      27.091  14.352   4.352  0.00  0.00    -0.339 N 
HETATM   41  C   UNK N   1      25.920  14.101   3.521  0.00  0.00     0.207 C 
HETATM   42  C   UNK N   1      26.158  13.305   2.286  0.00  0.00     0.243 C 
HETATM   43  O   UNK N   1      26.920  13.709   1.420  0.00  0.00    -0.271 OA
HETATM   44  N   UNK N   1      25.470  12.163   2.101  0.00  0.00    -0.346 N 
HETATM   45  C   UNK N   1      26.996  13.965   5.742  0.00  0.00     0.153 C 
HETATM   46  C   UNK N   1      30.881  15.964   3.281  0.00  0.00     0.153 C 
HETATM   47  C   UNK N   1      30.921  15.356   9.264  0.00  0.00     0.153 C 
HETATM   48  C   UNK N   1      35.457  14.024   7.068  0.00  0.00     0.153 C 
HETATM   49  C   UNK N   1      35.767  13.259  11.865  0.00  0.00     0.042 C 
HETATM   50  C   UNK N   1      37.317   9.221   9.020  0.00  0.00     0.042 C 
HETATM   51  C   UNK N   1      32.920   9.580   6.616  0.00  0.00     0.153 C 
HETATM   52  C   UNK N   1      29.292   9.016   5.187  0.00  0.00     0.153 C 
HETATM   53  C   UNK N   1      28.397  11.466   1.815  0.00  0.00     0.153 C 
HETATM   54  H   UNK N   1      29.505   5.904   7.170  0.00  0.00     0.163 HD
HETATM   55  H   UNK N   1      35.134   8.764   7.661  0.00  0.00     0.163 HD
HETATM   56  H   UNK N   1      33.777  11.076  10.617  0.00  0.00     0.163 HD
HETATM   57  H   UNK N   1      24.849  11.853   2.799  0.00  0.00     0.163 HD
ENDROOT
BRANCH  41  58
HETATM   58  C   UNK N   1      25.135  15.388   3.208  0.00  0.00     0.154 C 
BRANCH  58  59
HETATM   59  C   UNK N   1      23.626  15.329   3.524  0.00  0.00     0.016 C 
HETATM   60  C   UNK N   1      22.770  14.812   2.383  0.00  0.00     0.013 C 
BRANCH  59  61
HETATM   61  C   UNK N   1      23.107  16.674   4.000  0.00  0.00     0.033 C 
BRANCH  61  62
HETATM   62  C   UNK N   1      21.616  16.755   3.852  0.00  0.00    -0.031 C 
HETATM   63  C   UNK N   1      20.965  17.905   3.659  0.00  0.00    -0.035 C 
HETATM   64  C   UNK N   1      21.668  19.218   3.574  0.00  0.00     0.036 C 
ENDBRANCH  61  62
ENDBRANCH  59  61
ENDBRANCH  58  59
BRANCH  58  65
HETATM   65  O   UNK N   1      25.405  15.830   1.908  0.00  0.00    -0.393 OA
HETATM   66  H   UNK N   1      25.472  15.480   1.006  0.00  0.00     0.210 HD
ENDBRANCH  58  65
ENDBRANCH  41  58
BRANCH  37  67
HETATM   67  C   UNK N   1      28.222  17.176   5.128  0.00  0.00     0.009 C 
HETATM   68  C   UNK N   1      26.886  17.087   5.855  0.00  0.00     0.012 C 
HETATM   69  C   UNK N   1      28.185  18.092   3.927  0.00  0.00     0.012 C 
ENDBRANCH  37  67
BRANCH   1  70
HETATM   70  C   UNK N   1      24.240  11.104   0.338  0.00  0.00     0.030 C 
HETATM   71  C   UNK N   1      23.632  12.356  -0.260  0.00  0.00     0.007 C 
ENDBRANCH   1  70
BRANCH  33  72
HETATM   72  C   UNK N   1      30.559  17.838   7.743  0.00  0.00     0.039 C 
BRANCH  72  73
HETATM   73  C   UNK N   1      29.272  18.043   8.520  0.00  0.00    -0.020 C 
HETATM   74  C   UNK N   1      29.611  18.497   9.925  0.00  0.00     0.009 C 
HETATM   75  C   UNK N   1      28.472  19.141   7.850  0.00  0.00     0.009 C 
ENDBRANCH  72  73
ENDBRANCH  33  72
BRANCH  29  76
HETATM   76  C   UNK N   1      33.782  15.509   9.752  0.00  0.00     0.039 C 
BRANCH  76  77
HETATM   77  C   UNK N   1      34.900  16.475   9.338  0.00  0.00    -0.020 C 
HETATM   78  C   UNK N   1      34.386  17.738   8.671  0.00  0.00     0.009 C 
HETATM   79  C   UNK N   1      35.707  16.855  10.555  0.00  0.00     0.009 C 
ENDBRANCH  76  77
ENDBRANCH  29  76
BRANCH   9  80
HETATM   80  C   UNK N   1      27.020   5.959   4.380  0.00  0.00     0.013 C 
HETATM   81  C   UNK N   1      27.698   4.796   3.634  0.00  0.00     0.012 C 
BRANCH  80  82
HETATM   82  C   UNK N   1      25.803   5.428   5.135  0.00  0.00     0.002 C 
HETATM   83  C   UNK N   1      26.152   4.290   6.094  0.00  0.00     0.005 C 
ENDBRANCH  80  82
ENDBRANCH   9  80
BRANCH  13  84
HETATM   84  C   UNK N   1      32.186   4.792   5.898  0.00  0.00     0.009 C 
HETATM   85  C   UNK N   1      31.266   3.592   5.991  0.00  0.00     0.012 C 
HETATM   86  C   UNK N   1      32.764   4.893   4.501  0.00  0.00     0.012 C 
ENDBRANCH  13  84
BRANCH  17  87
HETATM   87  C   UNK N   1      33.976   6.491   7.966  0.00  0.00     0.039 C 
BRANCH  87  88
HETATM   88  C   UNK N   1      34.170   5.461   9.058  0.00  0.00    -0.020 C 
HETATM   89  C   UNK N   1      32.815   5.248   9.701  0.00  0.00     0.009 C 
HETATM   90  C   UNK N   1      34.650   4.138   8.497  0.00  0.00     0.009 C 
ENDBRANCH  87  88
ENDBRANCH  17  87
TORSDOF 16
ENDMDL
