MODEL 1
REMARK VINA RESULT:      -9.1      0.000      0.000
REMARK  9 active torsions:
REMARK  status: ('A' for Active; 'I' for Inactive)
REMARK       I    between atoms: N_2  and  C_3 
REMARK    1  A    between atoms: C_3  and  C_5 
REMARK    2  A    between atoms: C_10  and  N_11 
REMARK    3  A    between atoms: N_11  and  C_12 
REMARK       I    between atoms: C_17  and  N_20 
REMARK    4  A    between atoms: N_20  and  C_21 
REMARK    5  A    between atoms: C_26  and  O_27 
REMARK    6  A    between atoms: C_32  and  N_34 
REMARK    7  A    between atoms: N_37  and  C_40 
REMARK    8  A    between atoms: C_40  and  C_41 
REMARK    9  A    between atoms: C_41  and  O_42 
ROOT
HETATM    1  C   UNK N   1      23.591  18.372   5.144  0.00  0.00     0.144 A 
HETATM    2  C   UNK N   1      22.991  18.804   3.928  0.00  0.00     0.094 A 
HETATM    3  C   UNK N   1      23.611  19.839   3.213  0.00  0.00     0.133 A 
HETATM    4  N   UNK N   1      24.811  20.342   3.605  0.00  0.00    -0.200 N 
ATOM      5  HN  UNK N   1      25.261  21.077   3.059  1.00  0.00     0.183 HD
HETATM    6  C   UNK N   1      25.405  19.867   4.715  0.00  0.00     0.684 A 
HETATM    7  N   UNK N   1      24.769  18.943   5.480  0.00  0.00    -0.175 N 
ATOM      8  HN  UNK N   1      25.205  18.665   6.359  1.00  0.00     0.186 HD
HETATM    9  N   UNK N   1      26.804  20.090   4.922  0.00  0.00    -0.189 N 
HETATM   10 Cl   UNK N   1      21.594  18.111   3.138  0.00  0.00    -0.079 Cl
HETATM   11  H   UNK N   1      27.210  20.949   4.668  0.00  0.00     0.184 HD
ENDROOT
BRANCH   9  12
HETATM   12  C   UNK N   1      27.608  19.056   5.499  0.00  0.00     0.083 A 
HETATM   13  C   UNK N   1      28.048  19.207   6.827  0.00  0.00     0.033 A 
HETATM   14  C   UNK N   1      28.972  18.372   7.394  0.00  0.00     0.010 A 
HETATM   15  C   UNK N   1      29.458  17.317   6.658  0.00  0.00    -0.047 A 
HETATM   16  C   UNK N   1      28.958  17.038   5.369  0.00  0.00    -0.016 A 
HETATM   17  C   UNK N   1      30.684  16.660   7.138  0.00  0.00     0.075 C 
HETATM   18  C   UNK N   1      28.023  17.907   4.771  0.00  0.00     0.102 A 
HETATM   19  C   UNK N   1      29.506  15.872   4.583  0.00  0.00     0.042 C 
HETATM   20  C   UNK N   1      31.031  15.889   4.371  0.00  0.00     0.007 C 
HETATM   21  C   UNK N   1      31.707  17.199   4.793  0.00  0.00     0.036 C 
HETATM   22  C   UNK N   1      31.830  17.335   6.326  0.00  0.00     0.227 C 
BRANCH  18  23
HETATM   23  O   UNK N   1      27.620  17.631   3.501  0.00  0.00    -0.353 OA
HETATM   24  C   UNK N   1      26.538  16.861   3.151  0.00  0.00     0.210 C 
ENDBRANCH  18  23
BRANCH  22  25
HETATM   25  N   UNK N   1      33.166  16.984   6.794  0.00  0.00     0.096 N 
HETATM   26  C   UNK N   1      33.063  15.677   7.463  0.00  0.00     0.303 C 
HETATM   27  C   UNK N   1      34.205  15.442   8.418  0.00  0.00     0.302 C 
HETATM   28  N   UNK N   1      34.194  16.535   9.373  0.00  0.00     0.093 N 
HETATM   29  C   UNK N   1      34.685  17.695   8.651  0.00  0.00     0.302 C 
HETATM   30  C   UNK N   1      33.612  18.104   7.648  0.00  0.00     0.303 C 
BRANCH  28  31
HETATM   31  C   UNK N   1      35.095  16.213  10.461  0.00  0.00     0.298 C 
BRANCH  31  32
HETATM   32  C   UNK N   1      34.762  14.828  11.004  0.00  0.00     0.194 C 
BRANCH  32  33
HETATM   33  O   UNK N   1      33.445  14.789  11.468  0.00  0.00    -0.399 OA
HETATM   34  H   UNK N   1      32.693  14.896  10.864  0.00  0.00     0.209 HD
ENDBRANCH  32  33
ENDBRANCH  31  32
ENDBRANCH  28  31
ENDBRANCH  22  25
ENDBRANCH   9  12
BRANCH   1  35
HETATM   35  N   UNK N   1      23.194  17.267   5.974  0.00  0.00    -0.340 N 
HETATM   36  H   UNK N   1      23.688  17.245   6.825  0.00  0.00     0.167 HD
BRANCH  35  37
HETATM   37  C   UNK N   1      22.260  16.198   5.864  0.00  0.00     0.049 A 
HETATM   38  C   UNK N   1      22.524  15.081   5.073  0.00  0.00     0.030 A 
HETATM   39  C   UNK N   1      21.630  14.016   5.004  0.00  0.00     0.002 A 
HETATM   40  C   UNK N   1      20.439  14.059   5.721  0.00  0.00     0.001 A 
HETATM   41  C   UNK N   1      20.129  15.184   6.482  0.00  0.00     0.019 A 
HETATM   42  C   UNK N   1      21.016  16.271   6.561  0.00  0.00     0.058 A 
BRANCH  42  43
HETATM   43  C   UNK N   1      20.602  17.448   7.383  0.00  0.00     0.253 C 
HETATM   44  N   UNK N   1      19.859  17.253   8.504  0.00  0.00    -0.361 N 
HETATM   45  C   UNK N   1      19.410  18.345   9.330  0.00  0.00     0.149 C 
HETATM   46  H   UNK N   1      19.621  16.332   8.761  0.00  0.00     0.162 HD
HETATM   47  O   UNK N   1      20.907  18.584   7.045  0.00  0.00    -0.268 OA
ENDBRANCH  42  43
ENDBRANCH  35  37
ENDBRANCH   1  35
TORSDOF 9
ENDMDL
MODEL 2
REMARK VINA RESULT:      -8.9      4.404      6.090
REMARK  9 active torsions:
REMARK  status: ('A' for Active; 'I' for Inactive)
REMARK       I    between atoms: N_2  and  C_3 
REMARK    1  A    between atoms: C_3  and  C_5 
REMARK    2  A    between atoms: C_10  and  N_11 
REMARK    3  A    between atoms: N_11  and  C_12 
REMARK       I    between atoms: C_17  and  N_20 
REMARK    4  A    between atoms: N_20  and  C_21 
REMARK    5  A    between atoms: C_26  and  O_27 
REMARK    6  A    between atoms: C_32  and  N_34 
REMARK    7  A    between atoms: N_37  and  C_40 
REMARK    8  A    between atoms: C_40  and  C_41 
REMARK    9  A    between atoms: C_41  and  O_42 
ROOT
HETATM    1  C   UNK N   1      28.511  16.824   3.918  0.00  0.00     0.144 A 
HETATM    2  C   UNK N   1      28.102  15.880   2.934  0.00  0.00     0.094 A 
HETATM    3  C   UNK N   1      29.084  15.316   2.107  0.00  0.00     0.133 A 
HETATM    4  N   UNK N   1      30.404  15.572   2.310  0.00  0.00    -0.200 N 
ATOM      5  HN  UNK N   1      31.107  15.133   1.715  1.00  0.00     0.183 HD
HETATM    6  C   UNK N   1      30.780  16.406   3.297  0.00  0.00     0.684 A 
HETATM    7  N   UNK N   1      29.839  17.047   4.036  0.00  0.00    -0.175 N 
ATOM      8  HN  UNK N   1      30.152  17.736   4.719  1.00  0.00     0.186 HD
HETATM    9  N   UNK N   1      32.131  16.382   3.768  0.00  0.00    -0.189 N 
HETATM   10 Cl   UNK N   1      26.494  15.239   2.693  0.00  0.00    -0.079 Cl
HETATM   11  H   UNK N   1      32.873  16.259   3.135  0.00  0.00     0.184 HD
ENDROOT
BRANCH   9  12
HETATM   12  C   UNK N   1      32.395  16.539   5.166  0.00  0.00     0.083 A 
HETATM   13  C   UNK N   1      33.253  17.576   5.578  0.00  0.00     0.033 A 
HETATM   14  C   UNK N   1      33.714  17.681   6.862  0.00  0.00     0.010 A 
HETATM   15  C   UNK N   1      33.289  16.770   7.800  0.00  0.00    -0.047 A 
HETATM   16  C   UNK N   1      32.330  15.788   7.478  0.00  0.00    -0.016 A 
HETATM   17  C   UNK N   1      34.053  16.680   9.055  0.00  0.00     0.075 C 
HETATM   18  C   UNK N   1      31.868  15.659   6.153  0.00  0.00     0.102 A 
HETATM   19  C   UNK N   1      31.878  14.801   8.527  0.00  0.00     0.042 C 
HETATM   20  C   UNK N   1      33.008  13.986   9.182  0.00  0.00     0.007 C 
HETATM   21  C   UNK N   1      34.372  14.145   8.501  0.00  0.00     0.036 C 
HETATM   22  C   UNK N   1      35.042  15.498   8.825  0.00  0.00     0.227 C 
BRANCH  18  23
HETATM   23  O   UNK N   1      30.992  14.656   5.878  0.00  0.00    -0.353 OA
HETATM   24  C   UNK N   1      31.296  13.473   5.249  0.00  0.00     0.210 C 
ENDBRANCH  18  23
BRANCH  22  25
HETATM   25  N   UNK N   1      36.050  15.365   9.871  0.00  0.00     0.096 N 
HETATM   26  C   UNK N   1      36.537  13.976   9.831  0.00  0.00     0.303 C 
HETATM   27  C   UNK N   1      37.167  13.563  11.136  0.00  0.00     0.302 C 
HETATM   28  N   UNK N   1      36.166  13.752  12.171  0.00  0.00     0.093 N 
HETATM   29  C   UNK N   1      36.066  15.187  12.366  0.00  0.00     0.302 C 
HETATM   30  C   UNK N   1      35.396  15.776  11.130  0.00  0.00     0.303 C 
BRANCH  28  31
HETATM   31  C   UNK N   1      36.631  13.119  13.389  0.00  0.00     0.298 C 
BRANCH  31  32
HETATM   32  C   UNK N   1      36.490  14.091  14.554  0.00  0.00     0.194 C 
BRANCH  32  33
HETATM   33  O   UNK N   1      37.608  14.020  15.388  0.00  0.00    -0.399 OA
HETATM   34  H   UNK N   1      38.474  13.745  15.049  0.00  0.00     0.209 HD
ENDBRANCH  32  33
ENDBRANCH  31  32
ENDBRANCH  28  31
ENDBRANCH  22  25
ENDBRANCH   9  12
BRANCH   1  35
HETATM   35  N   UNK N   1      27.700  17.438   4.934  0.00  0.00    -0.340 N 
HETATM   36  H   UNK N   1      27.268  16.774   5.517  0.00  0.00     0.167 HD
BRANCH  35  37
HETATM   37  C   UNK N   1      27.369  18.774   5.301  0.00  0.00     0.049 A 
HETATM   38  C   UNK N   1      26.722  19.631   4.413  0.00  0.00     0.030 A 
HETATM   39  C   UNK N   1      26.358  20.922   4.789  0.00  0.00     0.002 A 
HETATM   40  C   UNK N   1      26.653  21.383   6.068  0.00  0.00     0.001 A 
HETATM   41  C   UNK N   1      27.341  20.562   6.959  0.00  0.00     0.019 A 
HETATM   42  C   UNK N   1      27.721  19.260   6.596  0.00  0.00     0.058 A 
BRANCH  42  43
HETATM   43  C   UNK N   1      28.473  18.449   7.601  0.00  0.00     0.253 C 
HETATM   44  N   UNK N   1      28.061  18.441   8.896  0.00  0.00    -0.361 N 
HETATM   45  C   UNK N   1      28.753  17.698   9.920  0.00  0.00     0.149 C 
HETATM   46  H   UNK N   1      27.262  18.961   9.144  0.00  0.00     0.162 HD
HETATM   47  O   UNK N   1      29.465  17.812   7.274  0.00  0.00    -0.268 OA
ENDBRANCH  42  43
ENDBRANCH  35  37
ENDBRANCH   1  35
TORSDOF 9
ENDMDL
MODEL 3
REMARK VINA RESULT:      -8.8      1.508      1.782
REMARK  9 active torsions:
REMARK  status: ('A' for Active; 'I' for Inactive)
REMARK       I    between atoms: N_2  and  C_3 
REMARK    1  A    between atoms: C_3  and  C_5 
REMARK    2  A    between atoms: C_10  and  N_11 
REMARK    3  A    between atoms: N_11  and  C_12 
REMARK       I    between atoms: C_17  and  N_20 
REMARK    4  A    between atoms: N_20  and  C_21 
REMARK    5  A    between atoms: C_26  and  O_27 
REMARK    6  A    between atoms: C_32  and  N_34 
REMARK    7  A    between atoms: N_37  and  C_40 
REMARK    8  A    between atoms: C_40  and  C_41 
REMARK    9  A    between atoms: C_41  and  O_42 
ROOT
HETATM    1  C   UNK N   1      23.479  17.939   5.165  0.00  0.00     0.144 A 
HETATM    2  C   UNK N   1      22.826  18.379   3.979  0.00  0.00     0.094 A 
HETATM    3  C   UNK N   1      23.375  19.467   3.285  0.00  0.00     0.133 A 
HETATM    4  N   UNK N   1      24.558  20.018   3.665  0.00  0.00    -0.200 N 
ATOM      5  HN  UNK N   1      24.955  20.793   3.134  1.00  0.00     0.183 HD
HETATM    6  C   UNK N   1      25.204  19.538   4.744  0.00  0.00     0.684 A 
HETATM    7  N   UNK N   1      24.635  18.559   5.492  0.00  0.00    -0.175 N 
ATOM      8  HN  UNK N   1      25.107  18.274   6.350  1.00  0.00     0.186 HD
HETATM    9  N   UNK N   1      26.594  19.826   4.924  0.00  0.00    -0.189 N 
HETATM   10 Cl   UNK N   1      21.446  17.641   3.200  0.00  0.00    -0.079 Cl
HETATM   11  H   UNK N   1      26.949  20.713   4.690  0.00  0.00     0.184 HD
ENDROOT
BRANCH   9  12
HETATM   12  C   UNK N   1      27.464  18.816   5.446  0.00  0.00     0.083 A 
HETATM   13  C   UNK N   1      27.896  18.924   6.781  0.00  0.00     0.033 A 
HETATM   14  C   UNK N   1      28.873  18.121   7.303  0.00  0.00     0.010 A 
HETATM   15  C   UNK N   1      29.424  17.140   6.513  0.00  0.00    -0.047 A 
HETATM   16  C   UNK N   1      28.940  16.899   5.210  0.00  0.00    -0.016 A 
HETATM   17  C   UNK N   1      30.691  16.539   6.959  0.00  0.00     0.075 C 
HETATM   18  C   UNK N   1      27.951  17.737   4.658  0.00  0.00     0.102 A 
HETATM   19  C   UNK N   1      29.560  15.814   4.364  0.00  0.00     0.042 C 
HETATM   20  C   UNK N   1      31.080  15.940   4.155  0.00  0.00     0.007 C 
HETATM   21  C   UNK N   1      31.672  17.266   4.647  0.00  0.00     0.036 C 
HETATM   22  C   UNK N   1      31.790  17.328   6.185  0.00  0.00     0.227 C 
BRANCH  18  23
HETATM   23  O   UNK N   1      27.563  17.504   3.375  0.00  0.00    -0.353 OA
HETATM   24  C   UNK N   1      26.464  16.777   2.988  0.00  0.00     0.210 C 
ENDBRANCH  18  23
BRANCH  22  25
HETATM   25  N   UNK N   1      33.146  17.039   6.636  0.00  0.00     0.096 N 
HETATM   26  C   UNK N   1      33.151  15.658   7.145  0.00  0.00     0.303 C 
HETATM   27  C   UNK N   1      34.299  15.410   8.089  0.00  0.00     0.302 C 
HETATM   28  N   UNK N   1      34.184  16.378   9.164  0.00  0.00     0.093 N 
HETATM   29  C   UNK N   1      34.580  17.652   8.592  0.00  0.00     0.302 C 
HETATM   30  C   UNK N   1      33.486  18.084   7.623  0.00  0.00     0.303 C 
BRANCH  28  31
HETATM   31  C   UNK N   1      35.099  16.007  10.225  0.00  0.00     0.298 C 
BRANCH  31  32
HETATM   32  C   UNK N   1      34.536  14.815  10.989  0.00  0.00     0.194 C 
BRANCH  32  33
HETATM   33  O   UNK N   1      33.168  14.984  11.218  0.00  0.00    -0.399 OA
HETATM   34  H   UNK N   1      32.727  14.565  11.973  0.00  0.00     0.209 HD
ENDBRANCH  32  33
ENDBRANCH  31  32
ENDBRANCH  28  31
ENDBRANCH  22  25
ENDBRANCH   9  12
BRANCH   1  35
HETATM   35  N   UNK N   1      23.160  16.788   5.966  0.00  0.00    -0.340 N 
HETATM   36  H   UNK N   1      22.243  16.827   6.324  0.00  0.00     0.167 HD
BRANCH  35  37
HETATM   37  C   UNK N   1      23.845  15.607   6.368  0.00  0.00     0.049 A 
HETATM   38  C   UNK N   1      25.151  15.349   5.954  0.00  0.00     0.030 A 
HETATM   39  C   UNK N   1      25.836  14.216   6.386  0.00  0.00     0.002 A 
HETATM   40  C   UNK N   1      25.213  13.308   7.235  0.00  0.00     0.001 A 
HETATM   41  C   UNK N   1      23.893  13.518   7.626  0.00  0.00     0.019 A 
HETATM   42  C   UNK N   1      23.183  14.652   7.197  0.00  0.00     0.058 A 
BRANCH  42  43
HETATM   43  C   UNK N   1      21.765  14.795   7.645  0.00  0.00     0.253 C 
HETATM   44  N   UNK N   1      21.438  14.508   8.932  0.00  0.00    -0.361 N 
HETATM   45  C   UNK N   1      20.087  14.605   9.424  0.00  0.00     0.149 C 
HETATM   46  H   UNK N   1      22.150  14.223   9.551  0.00  0.00     0.162 HD
HETATM   47  O   UNK N   1      20.895  15.148   6.860  0.00  0.00    -0.268 OA
ENDBRANCH  42  43
ENDBRANCH  35  37
ENDBRANCH   1  35
TORSDOF 9
ENDMDL
MODEL 4
REMARK VINA RESULT:      -8.8      1.574      2.245
REMARK  9 active torsions:
REMARK  status: ('A' for Active; 'I' for Inactive)
REMARK       I    between atoms: N_2  and  C_3 
REMARK    1  A    between atoms: C_3  and  C_5 
REMARK    2  A    between atoms: C_10  and  N_11 
REMARK    3  A    between atoms: N_11  and  C_12 
REMARK       I    between atoms: C_17  and  N_20 
REMARK    4  A    between atoms: N_20  and  C_21 
REMARK    5  A    between atoms: C_26  and  O_27 
REMARK    6  A    between atoms: C_32  and  N_34 
REMARK    7  A    between atoms: N_37  and  C_40 
REMARK    8  A    between atoms: C_40  and  C_41 
REMARK    9  A    between atoms: C_41  and  O_42 
ROOT
HETATM    1  C   UNK N   1      23.439  18.058   5.130  0.00  0.00     0.144 A 
HETATM    2  C   UNK N   1      22.852  18.541   3.926  0.00  0.00     0.094 A 
HETATM    3  C   UNK N   1      23.452  19.636   3.289  0.00  0.00     0.133 A 
HETATM    4  N   UNK N   1      24.624  20.155   3.740  0.00  0.00    -0.200 N 
ATOM      5  HN  UNK N   1      25.060  20.936   3.249  1.00  0.00     0.183 HD
HETATM    6  C   UNK N   1      25.209  19.635   4.835  0.00  0.00     0.684 A 
HETATM    7  N   UNK N   1      24.588  18.647   5.528  0.00  0.00    -0.175 N 
ATOM      8  HN  UNK N   1      25.014  18.332   6.400  1.00  0.00     0.186 HD
HETATM    9  N   UNK N   1      26.594  19.893   5.088  0.00  0.00    -0.189 N 
HETATM   10 Cl   UNK N   1      21.499  17.849   3.063  0.00  0.00    -0.079 Cl
HETATM   11  H   UNK N   1      26.975  20.779   4.895  0.00  0.00     0.184 HD
ENDROOT
BRANCH   9  12
HETATM   12  C   UNK N   1      27.420  18.854   5.624  0.00  0.00     0.083 A 
HETATM   13  C   UNK N   1      27.841  18.951   6.963  0.00  0.00     0.033 A 
HETATM   14  C   UNK N   1      28.783  18.115   7.499  0.00  0.00     0.010 A 
HETATM   15  C   UNK N   1      29.305  17.111   6.719  0.00  0.00    -0.047 A 
HETATM   16  C   UNK N   1      28.827  16.882   5.412  0.00  0.00    -0.016 A 
HETATM   17  C   UNK N   1      30.544  16.465   7.181  0.00  0.00     0.075 C 
HETATM   18  C   UNK N   1      27.875  17.753   4.846  0.00  0.00     0.102 A 
HETATM   19  C   UNK N   1      29.416  15.771   4.577  0.00  0.00     0.042 C 
HETATM   20  C   UNK N   1      30.942  15.841   4.385  0.00  0.00     0.007 C 
HETATM   21  C   UNK N   1      31.577  17.146   4.878  0.00  0.00     0.036 C 
HETATM   22  C   UNK N   1      31.680  17.210   6.417  0.00  0.00     0.227 C 
BRANCH  18  23
HETATM   23  O   UNK N   1      27.493  17.530   3.560  0.00  0.00    -0.353 OA
HETATM   24  C   UNK N   1      26.422  16.768   3.161  0.00  0.00     0.210 C 
ENDBRANCH  18  23
BRANCH  22  25
HETATM   25  N   UNK N   1      33.020  16.873   6.883  0.00  0.00     0.096 N 
HETATM   26  C   UNK N   1      32.894  15.691   7.752  0.00  0.00     0.303 C 
HETATM   27  C   UNK N   1      34.067  15.553   8.689  0.00  0.00     0.302 C 
HETATM   28  N   UNK N   1      34.142  16.781   9.460  0.00  0.00     0.093 N 
HETATM   29  C   UNK N   1      34.648  17.790   8.547  0.00  0.00     0.302 C 
HETATM   30  C   UNK N   1      33.549  18.090   7.534  0.00  0.00     0.303 C 
BRANCH  28  31
HETATM   31  C   UNK N   1      35.077  16.588  10.551  0.00  0.00     0.298 C 
BRANCH  31  32
HETATM   32  C   UNK N   1      36.023  15.442  10.214  0.00  0.00     0.194 C 
BRANCH  32  33
HETATM   33  O   UNK N   1      37.325  15.747  10.621  0.00  0.00    -0.399 OA
HETATM   34  H   UNK N   1      37.504  16.481  11.229  0.00  0.00     0.209 HD
ENDBRANCH  32  33
ENDBRANCH  31  32
ENDBRANCH  28  31
ENDBRANCH  22  25
ENDBRANCH   9  12
BRANCH   1  35
HETATM   35  N   UNK N   1      23.062  16.893   5.884  0.00  0.00    -0.340 N 
HETATM   36  H   UNK N   1      23.712  16.160   5.787  0.00  0.00     0.167 HD
BRANCH  35  37
HETATM   37  C   UNK N   1      21.977  16.541   6.736  0.00  0.00     0.049 A 
HETATM   38  C   UNK N   1      20.993  17.467   7.078  0.00  0.00     0.030 A 
HETATM   39  C   UNK N   1      19.908  17.109   7.874  0.00  0.00     0.002 A 
HETATM   40  C   UNK N   1      19.798  15.809   8.356  0.00  0.00     0.001 A 
HETATM   41  C   UNK N   1      20.792  14.877   8.068  0.00  0.00     0.019 A 
HETATM   42  C   UNK N   1      21.897  15.220   7.271  0.00  0.00     0.058 A 
BRANCH  42  43
HETATM   43  C   UNK N   1      22.929  14.169   7.023  0.00  0.00     0.253 C 
HETATM   44  N   UNK N   1      23.739  13.774   8.041  0.00  0.00    -0.361 N 
HETATM   45  C   UNK N   1      24.769  12.781   7.865  0.00  0.00     0.149 C 
HETATM   46  H   UNK N   1      23.618  14.181   8.929  0.00  0.00     0.162 HD
HETATM   47  O   UNK N   1      23.065  13.677   5.911  0.00  0.00    -0.268 OA
ENDBRANCH  42  43
ENDBRANCH  35  37
ENDBRANCH   1  35
TORSDOF 9
ENDMDL
MODEL 5
REMARK VINA RESULT:      -8.5      3.765      9.538
REMARK  9 active torsions:
REMARK  status: ('A' for Active; 'I' for Inactive)
REMARK       I    between atoms: N_2  and  C_3 
REMARK    1  A    between atoms: C_3  and  C_5 
REMARK    2  A    between atoms: C_10  and  N_11 
REMARK    3  A    between atoms: N_11  and  C_12 
REMARK       I    between atoms: C_17  and  N_20 
REMARK    4  A    between atoms: N_20  and  C_21 
REMARK    5  A    between atoms: C_26  and  O_27 
REMARK    6  A    between atoms: C_32  and  N_34 
REMARK    7  A    between atoms: N_37  and  C_40 
REMARK    8  A    between atoms: C_40  and  C_41 
REMARK    9  A    between atoms: C_41  and  O_42 
ROOT
HETATM    1  C   UNK N   1      30.404  16.279   4.709  0.00  0.00     0.144 A 
HETATM    2  C   UNK N   1      31.654  16.442   4.048  0.00  0.00     0.094 A 
HETATM    3  C   UNK N   1      32.099  15.411   3.209  0.00  0.00     0.133 A 
HETATM    4  N   UNK N   1      31.314  14.334   2.942  0.00  0.00    -0.200 N 
ATOM      5  HN  UNK N   1      31.644  13.605   2.308  1.00  0.00     0.183 HD
HETATM    6  C   UNK N   1      30.100  14.233   3.514  0.00  0.00     0.684 A 
HETATM    7  N   UNK N   1      29.697  15.166   4.413  0.00  0.00    -0.175 N 
ATOM      8  HN  UNK N   1      28.809  15.018   4.893  1.00  0.00     0.186 HD
HETATM    9  N   UNK N   1      29.127  13.342   2.959  0.00  0.00    -0.189 N 
HETATM   10 Cl   UNK N   1      32.680  17.856   4.069  0.00  0.00    -0.079 Cl
HETATM   11  H   UNK N   1      29.403  12.466   2.606  0.00  0.00     0.184 HD
ENDROOT
BRANCH   9  12
HETATM   12  C   UNK N   1      27.751  13.732   2.920  0.00  0.00     0.083 A 
HETATM   13  C   UNK N   1      27.344  14.675   1.958  0.00  0.00     0.033 A 
HETATM   14  C   UNK N   1      26.102  15.249   1.971  0.00  0.00     0.010 A 
HETATM   15  C   UNK N   1      25.196  14.857   2.929  0.00  0.00    -0.047 A 
HETATM   16  C   UNK N   1      25.501  13.823   3.838  0.00  0.00    -0.016 A 
HETATM   17  C   UNK N   1      24.024  15.719   3.148  0.00  0.00     0.075 C 
HETATM   18  C   UNK N   1      26.786  13.245   3.845  0.00  0.00     0.102 A 
HETATM   19  C   UNK N   1      24.488  13.411   4.878  0.00  0.00     0.042 C 
HETATM   20  C   UNK N   1      23.995  14.548   5.793  0.00  0.00     0.007 C 
HETATM   21  C   UNK N   1      24.782  15.855   5.647  0.00  0.00     0.036 C 
HETATM   22  C   UNK N   1      24.423  16.621   4.354  0.00  0.00     0.227 C 
BRANCH  18  23
HETATM   23  O   UNK N   1      27.052  12.296   4.783  0.00  0.00    -0.353 OA
HETATM   24  C   UNK N   1      27.165  10.947   4.552  0.00  0.00     0.210 C 
ENDBRANCH  18  23
BRANCH  22  25
HETATM   25  N   UNK N   1      23.483  17.705   4.613  0.00  0.00     0.096 N 
HETATM   26  C   UNK N   1      22.128  17.160   4.428  0.00  0.00     0.303 C 
HETATM   27  C   UNK N   1      21.118  18.244   4.153  0.00  0.00     0.302 C 
HETATM   28  N   UNK N   1      21.573  18.963   2.977  0.00  0.00     0.093 N 
HETATM   29  C   UNK N   1      22.705  19.759   3.413  0.00  0.00     0.302 C 
HETATM   30  C   UNK N   1      23.859  18.804   3.699  0.00  0.00     0.303 C 
BRANCH  28  31
HETATM   31  C   UNK N   1      20.506  19.831   2.520  0.00  0.00     0.298 C 
BRANCH  31  32
HETATM   32  C   UNK N   1      20.954  20.570   1.265  0.00  0.00     0.194 C 
BRANCH  32  33
HETATM   33  O   UNK N   1      20.568  19.868   0.120  0.00  0.00    -0.399 OA
HETATM   34  H   UNK N   1      19.649  19.593  -0.018  0.00  0.00     0.209 HD
ENDBRANCH  32  33
ENDBRANCH  31  32
ENDBRANCH  28  31
ENDBRANCH  22  25
ENDBRANCH   9  12
BRANCH   1  35
HETATM   35  N   UNK N   1      29.708  17.242   5.519  0.00  0.00    -0.340 N 
HETATM   36  H   UNK N   1      29.187  17.877   4.977  0.00  0.00     0.167 HD
BRANCH  35  37
HETATM   37  C   UNK N   1      29.590  17.501   6.914  0.00  0.00     0.049 A 
HETATM   38  C   UNK N   1      30.401  16.852   7.844  0.00  0.00     0.030 A 
HETATM   39  C   UNK N   1      30.316  17.140   9.204  0.00  0.00     0.002 A 
HETATM   40  C   UNK N   1      29.398  18.081   9.659  0.00  0.00     0.001 A 
HETATM   41  C   UNK N   1      28.543  18.710   8.756  0.00  0.00     0.019 A 
HETATM   42  C   UNK N   1      28.611  18.429   7.382  0.00  0.00     0.058 A 
BRANCH  42  43
HETATM   43  C   UNK N   1      27.647  19.130   6.480  0.00  0.00     0.253 C 
HETATM   44  N   UNK N   1      27.313  20.423   6.735  0.00  0.00    -0.361 N 
HETATM   45  C   UNK N   1      26.375  21.151   5.918  0.00  0.00     0.149 C 
HETATM   46  H   UNK N   1      27.728  20.877   7.504  0.00  0.00     0.162 HD
HETATM   47  O   UNK N   1      27.142  18.547   5.531  0.00  0.00    -0.268 OA
ENDBRANCH  42  43
ENDBRANCH  35  37
ENDBRANCH   1  35
TORSDOF 9
ENDMDL
MODEL 6
REMARK VINA RESULT:      -8.4      4.042      8.639
REMARK  9 active torsions:
REMARK  status: ('A' for Active; 'I' for Inactive)
REMARK       I    between atoms: N_2  and  C_3 
REMARK    1  A    between atoms: C_3  and  C_5 
REMARK    2  A    between atoms: C_10  and  N_11 
REMARK    3  A    between atoms: N_11  and  C_12 
REMARK       I    between atoms: C_17  and  N_20 
REMARK    4  A    between atoms: N_20  and  C_21 
REMARK    5  A    between atoms: C_26  and  O_27 
REMARK    6  A    between atoms: C_32  and  N_34 
REMARK    7  A    between atoms: N_37  and  C_40 
REMARK    8  A    between atoms: C_40  and  C_41 
REMARK    9  A    between atoms: C_41  and  O_42 
ROOT
HETATM    1  C   UNK N   1      25.261  18.323   4.635  0.00  0.00     0.144 A 
HETATM    2  C   UNK N   1      25.835  19.610   4.433  0.00  0.00     0.094 A 
HETATM    3  C   UNK N   1      25.091  20.563   3.723  0.00  0.00     0.133 A 
HETATM    4  N   UNK N   1      23.813  20.310   3.335  0.00  0.00    -0.200 N 
ATOM      5  HN  UNK N   1      23.277  21.024   2.841  1.00  0.00     0.183 HD
HETATM    6  C   UNK N   1      23.257  19.114   3.604  0.00  0.00     0.684 A 
HETATM    7  N   UNK N   1      23.997  18.141   4.192  0.00  0.00    -0.175 N 
ATOM      8  HN  UNK N   1      23.575  17.219   4.306  1.00  0.00     0.186 HD
HETATM    9  N   UNK N   1      21.834  18.969   3.560  0.00  0.00    -0.189 N 
HETATM   10 Cl   UNK N   1      27.351  20.201   5.072  0.00  0.00    -0.079 Cl
HETATM   11  H   UNK N   1      21.310  19.432   2.868  0.00  0.00     0.184 HD
ENDROOT
BRANCH   9  12
HETATM   12  C   UNK N   1      21.176  18.146   4.530  0.00  0.00     0.083 A 
HETATM   13  C   UNK N   1      21.461  18.353   5.892  0.00  0.00     0.033 A 
HETATM   14  C   UNK N   1      21.034  17.496   6.870  0.00  0.00     0.010 A 
HETATM   15  C   UNK N   1      20.258  16.416   6.518  0.00  0.00    -0.047 A 
HETATM   16  C   UNK N   1      19.832  16.230   5.187  0.00  0.00    -0.016 A 
HETATM   17  C   UNK N   1      20.113  15.334   7.504  0.00  0.00     0.075 C 
HETATM   18  C   UNK N   1      20.287  17.095   4.172  0.00  0.00     0.102 A 
HETATM   19  C   UNK N   1      18.978  15.038   4.828  0.00  0.00     0.042 C 
HETATM   20  C   UNK N   1      19.582  13.671   5.198  0.00  0.00     0.007 C 
HETATM   21  C   UNK N   1      21.043  13.734   5.657  0.00  0.00     0.036 C 
HETATM   22  C   UNK N   1      21.189  14.285   7.092  0.00  0.00     0.227 C 
BRANCH  18  23
HETATM   23  O   UNK N   1      19.900  16.836   2.894  0.00  0.00    -0.353 OA
HETATM   24  C   UNK N   1      20.653  16.193   1.942  0.00  0.00     0.210 C 
ENDBRANCH  18  23
BRANCH  22  25
HETATM   25  N   UNK N   1      21.368  13.214   8.066  0.00  0.00     0.096 N 
HETATM   26  C   UNK N   1      21.327  13.830   9.403  0.00  0.00     0.303 C 
HETATM   27  C   UNK N   1      21.998  12.968  10.441  0.00  0.00     0.302 C 
HETATM   28  N   UNK N   1      23.361  12.744   9.994  0.00  0.00     0.093 N 
HETATM   29  C   UNK N   1      23.266  11.807   8.889  0.00  0.00     0.302 C 
HETATM   30  C   UNK N   1      22.635  12.541   7.712  0.00  0.00     0.303 C 
BRANCH  28  31
HETATM   31  C   UNK N   1      24.116  12.153  11.080  0.00  0.00     0.298 C 
BRANCH  31  32
HETATM   32  C   UNK N   1      23.199  11.933  12.277  0.00  0.00     0.194 C 
BRANCH  32  33
HETATM   33  O   UNK N   1      23.838  12.316  13.459  0.00  0.00    -0.399 OA
HETATM   34  H   UNK N   1      24.281  11.667  14.027  0.00  0.00     0.209 HD
ENDBRANCH  32  33
ENDBRANCH  31  32
ENDBRANCH  28  31
ENDBRANCH  22  25
ENDBRANCH   9  12
BRANCH   1  35
HETATM   35  N   UNK N   1      25.792  17.240   5.419  0.00  0.00    -0.340 N 
HETATM   36  H   UNK N   1      25.207  17.007   6.175  0.00  0.00     0.167 HD
BRANCH  35  37
HETATM   37  C   UNK N   1      26.957  16.423   5.366  0.00  0.00     0.049 A 
HETATM   38  C   UNK N   1      28.117  16.770   6.056  0.00  0.00     0.030 A 
HETATM   39  C   UNK N   1      29.241  15.947   6.041  0.00  0.00     0.002 A 
HETATM   40  C   UNK N   1      29.223  14.759   5.317  0.00  0.00     0.001 A 
HETATM   41  C   UNK N   1      28.092  14.413   4.581  0.00  0.00     0.019 A 
HETATM   42  C   UNK N   1      26.951  15.232   4.579  0.00  0.00     0.058 A 
BRANCH  42  43
HETATM   43  C   UNK N   1      25.786  14.801   3.750  0.00  0.00     0.253 C 
HETATM   44  N   UNK N   1      25.855  14.900   2.396  0.00  0.00    -0.361 N 
HETATM   45  C   UNK N   1      24.760  14.521   1.539  0.00  0.00     0.149 C 
HETATM   46  H   UNK N   1      26.683  15.242   1.988  0.00  0.00     0.162 HD
HETATM   47  O   UNK N   1      24.766  14.380   4.278  0.00  0.00    -0.268 OA
ENDBRANCH  42  43
ENDBRANCH  35  37
ENDBRANCH   1  35
TORSDOF 9
ENDMDL
MODEL 7
REMARK VINA RESULT:      -8.4      3.804      8.445
REMARK  9 active torsions:
REMARK  status: ('A' for Active; 'I' for Inactive)
REMARK       I    between atoms: N_2  and  C_3 
REMARK    1  A    between atoms: C_3  and  C_5 
REMARK    2  A    between atoms: C_10  and  N_11 
REMARK    3  A    between atoms: N_11  and  C_12 
REMARK       I    between atoms: C_17  and  N_20 
REMARK    4  A    between atoms: N_20  and  C_21 
REMARK    5  A    between atoms: C_26  and  O_27 
REMARK    6  A    between atoms: C_32  and  N_34 
REMARK    7  A    between atoms: N_37  and  C_40 
REMARK    8  A    between atoms: C_40  and  C_41 
REMARK    9  A    between atoms: C_41  and  O_42 
ROOT
HETATM    1  C   UNK N   1      25.133  18.132   3.855  0.00  0.00     0.144 A 
HETATM    2  C   UNK N   1      25.816  19.379   3.778  0.00  0.00     0.094 A 
HETATM    3  C   UNK N   1      25.080  20.517   3.420  0.00  0.00     0.133 A 
HETATM    4  N   UNK N   1      23.732  20.460   3.261  0.00  0.00    -0.200 N 
ATOM      5  HN  UNK N   1      23.208  21.304   3.025  1.00  0.00     0.183 HD
HETATM    6  C   UNK N   1      23.089  19.288   3.415  0.00  0.00     0.684 A 
HETATM    7  N   UNK N   1      23.797  18.155   3.653  0.00  0.00    -0.175 N 
ATOM      8  HN  UNK N   1      23.291  17.270   3.681  1.00  0.00     0.186 HD
HETATM    9  N   UNK N   1      21.675  19.279   3.637  0.00  0.00    -0.189 N 
HETATM   10 Cl   UNK N   1      27.485  19.693   4.192  0.00  0.00    -0.079 Cl
HETATM   11  H   UNK N   1      21.096  19.917   3.162  0.00  0.00     0.184 HD
ENDROOT
BRANCH   9  12
HETATM   12  C   UNK N   1      21.108  18.337   4.554  0.00  0.00     0.083 A 
HETATM   13  C   UNK N   1      21.402  18.470   5.924  0.00  0.00     0.033 A 
HETATM   14  C   UNK N   1      21.068  17.513   6.842  0.00  0.00     0.010 A 
HETATM   15  C   UNK N   1      20.378  16.399   6.425  0.00  0.00    -0.047 A 
HETATM   16  C   UNK N   1      19.942  16.272   5.089  0.00  0.00    -0.016 A 
HETATM   17  C   UNK N   1      20.343  15.241   7.332  0.00  0.00     0.075 C 
HETATM   18  C   UNK N   1      20.302  17.242   4.133  0.00  0.00     0.102 A 
HETATM   19  C   UNK N   1      19.184  15.040   4.657  0.00  0.00     0.042 C 
HETATM   20  C   UNK N   1      19.907  13.706   4.918  0.00  0.00     0.007 C 
HETATM   21  C   UNK N   1      21.367  13.861   5.360  0.00  0.00     0.036 C 
HETATM   22  C   UNK N   1      21.495  14.319   6.829  0.00  0.00     0.227 C 
BRANCH  18  23
HETATM   23  O   UNK N   1      19.913  17.043   2.846  0.00  0.00    -0.353 OA
HETATM   24  C   UNK N   1      20.659  16.433   1.866  0.00  0.00     0.210 C 
ENDBRANCH  18  23
BRANCH  22  25
HETATM   25  N   UNK N   1      21.783  13.201   7.721  0.00  0.00     0.096 N 
HETATM   26  C   UNK N   1      21.535  13.666   9.096  0.00  0.00     0.303 C 
HETATM   27  C   UNK N   1      22.265  12.827  10.113  0.00  0.00     0.302 C 
HETATM   28  N   UNK N   1      23.675  12.877   9.775  0.00  0.00     0.093 N 
HETATM   29  C   UNK N   1      23.828  12.051   8.591  0.00  0.00     0.302 C 
HETATM   30  C   UNK N   1      23.170  12.785   7.428  0.00  0.00     0.303 C 
BRANCH  28  31
HETATM   31  C   UNK N   1      24.437  12.313  10.872  0.00  0.00     0.298 C 
BRANCH  31  32
HETATM   32  C   UNK N   1      23.493  11.937  12.007  0.00  0.00     0.194 C 
BRANCH  32  33
HETATM   33  O   UNK N   1      24.036  12.315  13.238  0.00  0.00    -0.399 OA
HETATM   34  H   UNK N   1      24.415  11.660  13.845  0.00  0.00     0.209 HD
ENDBRANCH  32  33
ENDBRANCH  31  32
ENDBRANCH  28  31
ENDBRANCH  22  25
ENDBRANCH   9  12
BRANCH   1  35
HETATM   35  N   UNK N   1      25.658  16.871   4.303  0.00  0.00    -0.340 N 
HETATM   36  H   UNK N   1      25.037  16.403   4.907  0.00  0.00     0.167 HD
BRANCH  35  37
HETATM   37  C   UNK N   1      26.857  16.134   4.086  0.00  0.00     0.049 A 
HETATM   38  C   UNK N   1      27.159  15.592   2.838  0.00  0.00     0.030 A 
HETATM   39  C   UNK N   1      28.353  14.910   2.616  0.00  0.00     0.002 A 
HETATM   40  C   UNK N   1      29.265  14.748   3.654  0.00  0.00     0.001 A 
HETATM   41  C   UNK N   1      28.966  15.240   4.923  0.00  0.00     0.019 A 
HETATM   42  C   UNK N   1      27.765  15.925   5.168  0.00  0.00     0.058 A 
BRANCH  42  43
HETATM   43  C   UNK N   1      27.509  16.405   6.560  0.00  0.00     0.253 C 
HETATM   44  N   UNK N   1      28.366  17.294   7.128  0.00  0.00    -0.361 N 
HETATM   45  C   UNK N   1      28.190  17.781   8.473  0.00  0.00     0.149 C 
HETATM   46  H   UNK N   1      29.133  17.616   6.602  0.00  0.00     0.162 HD
HETATM   47  O   UNK N   1      26.551  15.990   7.197  0.00  0.00    -0.268 OA
ENDBRANCH  42  43
ENDBRANCH  35  37
ENDBRANCH   1  35
TORSDOF 9
ENDMDL
MODEL 8
REMARK VINA RESULT:      -8.2      3.979      9.898
REMARK  9 active torsions:
REMARK  status: ('A' for Active; 'I' for Inactive)
REMARK       I    between atoms: N_2  and  C_3 
REMARK    1  A    between atoms: C_3  and  C_5 
REMARK    2  A    between atoms: C_10  and  N_11 
REMARK    3  A    between atoms: N_11  and  C_12 
REMARK       I    between atoms: C_17  and  N_20 
REMARK    4  A    between atoms: N_20  and  C_21 
REMARK    5  A    between atoms: C_26  and  O_27 
REMARK    6  A    between atoms: C_32  and  N_34 
REMARK    7  A    between atoms: N_37  and  C_40 
REMARK    8  A    between atoms: C_40  and  C_41 
REMARK    9  A    between atoms: C_41  and  O_42 
ROOT
HETATM    1  C   UNK N   1      28.858  15.884   4.693  0.00  0.00     0.144 A 
HETATM    2  C   UNK N   1      30.186  16.126   4.242  0.00  0.00     0.094 A 
HETATM    3  C   UNK N   1      30.803  15.153   3.444  0.00  0.00     0.133 A 
HETATM    4  N   UNK N   1      30.118  14.060   3.015  0.00  0.00    -0.200 N 
ATOM      5  HN  UNK N   1      30.575  13.373   2.413  1.00  0.00     0.183 HD
HETATM    6  C   UNK N   1      28.837  13.885   3.385  0.00  0.00     0.684 A 
HETATM    7  N   UNK N   1      28.257  14.759   4.247  0.00  0.00    -0.175 N 
ATOM      8  HN  UNK N   1      27.313  14.554   4.576  1.00  0.00     0.186 HD
HETATM    9  N   UNK N   1      28.003  12.983   2.651  0.00  0.00    -0.189 N 
HETATM   10 Cl   UNK N   1      31.131  17.577   4.479  0.00  0.00    -0.079 Cl
HETATM   11  H   UNK N   1      28.371  12.135   2.311  0.00  0.00     0.184 HD
ENDROOT
BRANCH   9  12
HETATM   12  C   UNK N   1      26.633  13.320   2.413  0.00  0.00     0.083 A 
HETATM   13  C   UNK N   1      26.344  14.458   1.637  0.00  0.00     0.033 A 
HETATM   14  C   UNK N   1      25.078  14.965   1.520  0.00  0.00     0.010 A 
HETATM   15  C   UNK N   1      24.039  14.314   2.142  0.00  0.00    -0.047 A 
HETATM   16  C   UNK N   1      24.247  13.098   2.825  0.00  0.00    -0.016 A 
HETATM   17  C   UNK N   1      22.775  15.051   2.303  0.00  0.00     0.075 C 
HETATM   18  C   UNK N   1      25.550  12.583   2.969  0.00  0.00     0.102 A 
HETATM   19  C   UNK N   1      23.088  12.402   3.497  0.00  0.00     0.042 C 
HETATM   20  C   UNK N   1      22.327  13.257   4.528  0.00  0.00     0.007 C 
HETATM   21  C   UNK N   1      23.009  14.587   4.866  0.00  0.00     0.036 C 
HETATM   22  C   UNK N   1      22.847  15.637   3.746  0.00  0.00     0.227 C 
BRANCH  18  23
HETATM   23  O   UNK N   1      25.707  11.441   3.691  0.00  0.00    -0.353 OA
HETATM   24  C   UNK N   1      26.091  11.369   5.008  0.00  0.00     0.210 C 
ENDBRANCH  18  23
BRANCH  22  25
HETATM   25  N   UNK N   1      21.784  16.588   4.046  0.00  0.00     0.096 N 
HETATM   26  C   UNK N   1      20.778  16.469   2.977  0.00  0.00     0.303 C 
HETATM   27  C   UNK N   1      19.921  17.705   2.870  0.00  0.00     0.302 C 
HETATM   28  N   UNK N   1      20.815  18.826   2.645  0.00  0.00     0.093 N 
HETATM   29  C   UNK N   1      21.474  19.068   3.916  0.00  0.00     0.302 C 
HETATM   30  C   UNK N   1      22.433  17.910   4.168  0.00  0.00     0.303 C 
BRANCH  28  31
HETATM   31  C   UNK N   1      20.026  19.982   2.270  0.00  0.00     0.298 C 
BRANCH  31  32
HETATM   32  C   UNK N   1      20.815  20.839   1.287  0.00  0.00     0.194 C 
BRANCH  32  33
HETATM   33  O   UNK N   1      20.591  20.410  -0.024  0.00  0.00    -0.399 OA
HETATM   34  H   UNK N   1      19.729  20.065  -0.302  0.00  0.00     0.209 HD
ENDBRANCH  32  33
ENDBRANCH  31  32
ENDBRANCH  28  31
ENDBRANCH  22  25
ENDBRANCH   9  12
BRANCH   1  35
HETATM   35  N   UNK N   1      28.003  16.781   5.422  0.00  0.00    -0.340 N 
HETATM   36  H   UNK N   1      27.454  16.311   6.090  0.00  0.00     0.167 HD
BRANCH  35  37
HETATM   37  C   UNK N   1      27.755  18.183   5.412  0.00  0.00     0.049 A 
HETATM   38  C   UNK N   1      27.420  18.853   4.236  0.00  0.00     0.030 A 
HETATM   39  C   UNK N   1      27.134  20.216   4.236  0.00  0.00     0.002 A 
HETATM   40  C   UNK N   1      27.193  20.939   5.423  0.00  0.00     0.001 A 
HETATM   41  C   UNK N   1      27.571  20.303   6.604  0.00  0.00     0.019 A 
HETATM   42  C   UNK N   1      27.869  18.931   6.623  0.00  0.00     0.058 A 
BRANCH  42  43
HETATM   43  C   UNK N   1      28.285  18.328   7.925  0.00  0.00     0.253 C 
HETATM   44  N   UNK N   1      29.216  18.958   8.687  0.00  0.00    -0.361 N 
HETATM   45  C   UNK N   1      29.677  18.421   9.942  0.00  0.00     0.149 C 
HETATM   46  H   UNK N   1      29.589  19.813   8.370  0.00  0.00     0.162 HD
HETATM   47  O   UNK N   1      27.810  17.264   8.300  0.00  0.00    -0.268 OA
ENDBRANCH  42  43
ENDBRANCH  35  37
ENDBRANCH   1  35
TORSDOF 9
ENDMDL
MODEL 9
REMARK VINA RESULT:      -8.2      3.798      8.183
REMARK  9 active torsions:
REMARK  status: ('A' for Active; 'I' for Inactive)
REMARK       I    between atoms: N_2  and  C_3 
REMARK    1  A    between atoms: C_3  and  C_5 
REMARK    2  A    between atoms: C_10  and  N_11 
REMARK    3  A    between atoms: N_11  and  C_12 
REMARK       I    between atoms: C_17  and  N_20 
REMARK    4  A    between atoms: N_20  and  C_21 
REMARK    5  A    between atoms: C_26  and  O_27 
REMARK    6  A    between atoms: C_32  and  N_34 
REMARK    7  A    between atoms: N_37  and  C_40 
REMARK    8  A    between atoms: C_40  and  C_41 
REMARK    9  A    between atoms: C_41  and  O_42 
ROOT
HETATM    1  C   UNK N   1      26.841  18.673   5.630  0.00  0.00     0.144 A 
HETATM    2  C   UNK N   1      26.621  20.079   5.608  0.00  0.00     0.094 A 
HETATM    3  C   UNK N   1      25.929  20.626   4.518  0.00  0.00     0.133 A 
HETATM    4  N   UNK N   1      25.384  19.828   3.562  0.00  0.00    -0.200 N 
ATOM      5  HN  UNK N   1      24.862  20.241   2.788  1.00  0.00     0.183 HD
HETATM    6  C   UNK N   1      25.533  18.493   3.638  0.00  0.00     0.684 A 
HETATM    7  N   UNK N   1      26.292  17.954   4.626  0.00  0.00    -0.175 N 
ATOM      8  HN  UNK N   1      26.457  16.947   4.609  1.00  0.00     0.186 HD
HETATM    9  N   UNK N   1      24.663  17.638   2.890  0.00  0.00    -0.189 N 
HETATM   10 Cl   UNK N   1      27.024  21.228   6.863  0.00  0.00    -0.079 Cl
HETATM   11  H   UNK N   1      24.383  17.891   1.981  0.00  0.00     0.184 HD
ENDROOT
BRANCH   9  12
HETATM   12  C   UNK N   1      24.201  16.415   3.471  0.00  0.00     0.083 A 
HETATM   13  C   UNK N   1      23.207  16.474   4.465  0.00  0.00     0.033 A 
HETATM   14  C   UNK N   1      22.846  15.383   5.209  0.00  0.00     0.010 A 
HETATM   15  C   UNK N   1      23.440  14.171   4.947  0.00  0.00    -0.047 A 
HETATM   16  C   UNK N   1      24.347  14.022   3.877  0.00  0.00    -0.016 A 
HETATM   17  C   UNK N   1      23.311  13.117   5.965  0.00  0.00     0.075 C 
HETATM   18  C   UNK N   1      24.741  15.145   3.123  0.00  0.00     0.102 A 
HETATM   19  C   UNK N   1      24.984  12.679   3.609  0.00  0.00     0.042 C 
HETATM   20  C   UNK N   1      25.745  12.071   4.802  0.00  0.00     0.007 C 
HETATM   21  C   UNK N   1      25.924  13.029   5.985  0.00  0.00     0.036 C 
HETATM   22  C   UNK N   1      24.625  13.216   6.798  0.00  0.00     0.227 C 
BRANCH  18  23
HETATM   23  O   UNK N   1      25.666  14.962   2.144  0.00  0.00    -0.353 OA
HETATM   24  C   UNK N   1      27.012  15.214   2.253  0.00  0.00     0.210 C 
ENDBRANCH  18  23
BRANCH  22  25
HETATM   25  N   UNK N   1      24.619  12.397   8.004  0.00  0.00     0.096 N 
HETATM   26  C   UNK N   1      23.279  11.797   8.116  0.00  0.00     0.303 C 
HETATM   27  C   UNK N   1      22.969  11.371   9.528  0.00  0.00     0.302 C 
HETATM   28  N   UNK N   1      23.104  12.547  10.368  0.00  0.00     0.093 N 
HETATM   29  C   UNK N   1      24.530  12.797  10.472  0.00  0.00     0.302 C 
HETATM   30  C   UNK N   1      25.013  13.290   9.113  0.00  0.00     0.303 C 
BRANCH  28  31
HETATM   31  C   UNK N   1      22.558  12.249  11.677  0.00  0.00     0.298 C 
BRANCH  31  32
HETATM   32  C   UNK N   1      23.669  11.742  12.589  0.00  0.00     0.194 C 
BRANCH  32  33
HETATM   33  O   UNK N   1      23.642  12.416  13.812  0.00  0.00    -0.399 OA
HETATM   34  H   UNK N   1      24.001  12.014  14.618  0.00  0.00     0.209 HD
ENDBRANCH  32  33
ENDBRANCH  31  32
ENDBRANCH  28  31
ENDBRANCH  22  25
ENDBRANCH   9  12
BRANCH   1  35
HETATM   35  N   UNK N   1      27.423  17.893   6.688  0.00  0.00    -0.340 N 
HETATM   36  H   UNK N   1      26.799  17.216   7.037  0.00  0.00     0.167 HD
BRANCH  35  37
HETATM   37  C   UNK N   1      28.682  17.860   7.353  0.00  0.00     0.049 A 
HETATM   38  C   UNK N   1      28.932  18.652   8.472  0.00  0.00     0.030 A 
HETATM   39  C   UNK N   1      30.148  18.585   9.148  0.00  0.00     0.002 A 
HETATM   40  C   UNK N   1      31.145  17.725   8.702  0.00  0.00     0.001 A 
HETATM   41  C   UNK N   1      30.938  16.957   7.558  0.00  0.00     0.019 A 
HETATM   42  C   UNK N   1      29.721  17.015   6.859  0.00  0.00     0.058 A 
BRANCH  42  43
HETATM   43  C   UNK N   1      29.584  16.174   5.632  0.00  0.00     0.253 C 
HETATM   44  N   UNK N   1      29.851  14.843   5.699  0.00  0.00    -0.361 N 
HETATM   45  C   UNK N   1      29.759  13.980   4.549  0.00  0.00     0.149 C 
HETATM   46  H   UNK N   1      30.118  14.456   6.564  0.00  0.00     0.162 HD
HETATM   47  O   UNK N   1      29.253  16.675   4.566  0.00  0.00    -0.268 OA
ENDBRANCH  42  43
ENDBRANCH  35  37
ENDBRANCH   1  35
TORSDOF 9
ENDMDL
