REMARK  6 active torsions:
REMARK  status: ('A' for Active; 'I' for Inactive)
REMARK    1  A    between atoms: C_3  and  C_25 
REMARK    2  A    between atoms: C_5  and  N_7 
REMARK    3  A    between atoms: C_9  and  C_19 
REMARK       I    between atoms: C_19  and  N_21 
REMARK    4  A    between atoms: N_21  and  C_22 
REMARK    5  A    between atoms: C_26  and  C_27 
REMARK    6  A    between atoms: N_31  and  O_33 
ROOT
HETATM    1  N   UNK N   1      -0.383  -0.159  -0.066  0.00  0.00    -0.306 N 
HETATM    2  C   UNK N   1      -1.493  -0.938  -0.197  0.00  0.00     0.120 A 
HETATM    3  C   UNK N   1      -1.430  -2.330  -0.287  0.00  0.00     0.099 A 
HETATM    4  C   UNK N   1      -0.170  -2.955  -0.234  0.00  0.00     0.203 A 
HETATM    5  O   UNK N   1      -0.072  -4.169  -0.310  0.00  0.00    -0.286 OA
HETATM    6  C   UNK N   1       0.982  -2.167  -0.104  0.00  0.00     0.060 A 
HETATM    7  C   UNK N   1       0.867  -0.758  -0.022  0.00  0.00     0.126 A 
HETATM    8  N   UNK N   1       2.007  -0.016   0.103  0.00  0.00    -0.351 N 
ATOM      9  HN  UNK N   1       1.925   0.999   0.166  1.00  0.00     0.166 HD
HETATM   10  C   UNK N   1       3.245  -0.575   0.149  0.00  0.00     0.090 A 
HETATM   11  C   UNK N   1       3.390  -1.957   0.069  0.00  0.00     0.018 A 
HETATM   12  C   UNK N   1       2.255  -2.754  -0.057  0.00  0.00     0.021 A 
ENDROOT
BRANCH   1  13
HETATM   13  C   UNK N   1      -0.589   1.284   0.009  0.00  0.00     0.042 A 
HETATM   14  C   UNK N   1       0.491   2.160   0.041  0.00  0.00     0.050 A 
HETATM   15  C   UNK N   1       0.324   3.534   0.099  0.00  0.00     0.020 A 
HETATM   16  C   UNK N   1      -0.957   4.086   0.113  0.00  0.00     0.021 A 
HETATM   17  C   UNK N   1      -2.068   3.232   0.088  0.00  0.00     0.004 A 
HETATM   18  C   UNK N   1      -1.887   1.840   0.031  0.00  0.00     0.030 A 
BRANCH  15  19
HETATM   19  C   UNK N   1       1.520   4.308   0.062  0.00  0.00    -0.061 C 
HETATM   20  C   UNK N   1       2.662   4.677   0.095  0.00  0.00    -0.060 C 
BRANCH  20  21
HETATM   21  C   UNK N   1       4.074   4.847  -0.023  0.00  0.00     0.036 A 
HETATM   22  C   UNK N   1       4.659   6.094  -0.234  0.00  0.00     0.023 A 
HETATM   23  C   UNK N   1       6.049   6.183  -0.351  0.00  0.00     0.021 A 
HETATM   24  C   UNK N   1       6.824   5.021  -0.249  0.00  0.00     0.122 A 
HETATM   25  N   UNK N   1       6.230   3.816  -0.033  0.00  0.00    -0.246 N 
HETATM   26  C   UNK N   1       4.882   3.714   0.081  0.00  0.00     0.142 A 
BRANCH  25  27
HETATM   27  O   UNK N   1       6.976   2.720   0.063  0.00  0.00    -0.284 OA
ATOM     28  HO  UNK N   1       6.561   1.879   0.213  1.00  0.00     0.245 HD
ENDBRANCH  25  27
ENDBRANCH  20  21
ENDBRANCH  15  19
ENDBRANCH   1  13
BRANCH   3  29
HETATM   29  C   UNK N   1      -2.708  -3.073  -0.448  0.00  0.00     0.257 C 
HETATM   30  O   UNK N   1      -3.755  -2.446  -0.551  0.00  0.00    -0.267 OA
HETATM   31  N   UNK N   1      -2.727  -4.430  -0.492  0.00  0.00    -0.352 N 
HETATM   32  H   UNK N   1      -1.877  -4.917  -0.399  0.00  0.00     0.163 HD
BRANCH  31  33
HETATM   33  C   UNK N   1      -3.946  -5.191  -0.668  0.00  0.00     0.084 A 
HETATM   34  C   UNK N   1      -4.072  -6.191   0.464  0.00  0.00     0.027 A 
HETATM   35  C   UNK N   1      -4.913  -4.937   0.479  0.00  0.00     0.027 A 
ENDBRANCH  31  33
ENDBRANCH   3  29
TORSDOF 6
