REMARK  0 active torsions:
REMARK  status: ('A' for Active; 'I' for Inactive)
ROOT
HETATM    1  C   UNK N   1       0.000   1.436   0.000  0.00  0.00     0.199 C 
HETATM    2  F   UNK N   1       0.000  -2.089   0.000  0.00  0.00    -0.105 F 
HETATM    3  O   UNK N   1      -1.400   0.255   0.000  0.00  0.00    -0.195 OA
HETATM    4  O   UNK N   1       1.400   0.255   0.000  0.00  0.00    -0.195 OA
HETATM    5  S   UNK N   1       0.000  -0.378   0.000  0.00  0.00     0.296 S 
ENDROOT
TORSDOF 0
