MODEL 1
REMARK VINA RESULT:      -8.5      0.000      0.000
REMARK  11 active torsions:
REMARK  status: ('A' for Active; 'I' for Inactive)
REMARK    1  A    between atoms: C_6  and  C_12 
REMARK    2  A    between atoms: C_8  and  O_9 
REMARK    3  A    between atoms: C_12  and  S_13 
REMARK    4  A    between atoms: S_13  and  C_14 
REMARK    5  A    between atoms: C_19  and  O_38 
REMARK    6  A    between atoms: N_23  and  S_24 
REMARK    7  A    between atoms: S_24  and  C_27 
REMARK    8  A    between atoms: C_30  and  O_33 
REMARK    9  A    between atoms: O_33  and  C_34 
REMARK   10  A    between atoms: C_34  and  C_35 
REMARK   11  A    between atoms: C_35  and  O_37 
ROOT
HETATM    1  C   UNK N   1      26.996  16.800   6.426  0.00  0.00     0.192 A 
HETATM    2  N   UNK N   1      26.652  16.018   7.480  0.00  0.00    -0.332 N 
ATOM      3  HN  UNK N   1      26.978  16.085   8.445  1.00  0.00     0.168 HD
HETATM    4  C   UNK N   1      25.782  15.135   6.957  0.00  0.00     0.065 A 
HETATM    5  C   UNK N   1      25.118  14.103   7.607  0.00  0.00     0.068 A 
HETATM    6  C   UNK N   1      24.253  13.293   6.843  0.00  0.00     0.070 A 
HETATM    7  C   UNK N   1      24.081  13.557   5.454  0.00  0.00     0.039 A 
HETATM    8  C   UNK N   1      24.767  14.616   4.832  0.00  0.00     0.036 A 
HETATM    9  C   UNK N   1      25.617  15.379   5.627  0.00  0.00     0.080 A 
HETATM   10  N   UNK N   1      26.382  16.420   5.283  0.00  0.00    -0.210 N 
ENDROOT
BRANCH  10  11
HETATM   11  S   UNK N   1      26.520  17.220   3.717  0.00  0.00     0.271 S 
HETATM   12  O   UNK N   1      27.969  17.725   3.630  0.00  0.00    -0.200 OA
HETATM   13  O   UNK N   1      26.435  16.112   2.657  0.00  0.00    -0.200 OA
BRANCH  11  14
HETATM   14  C   UNK N   1      25.257  18.459   3.649  0.00  0.00     0.080 A 
HETATM   15  C   UNK N   1      25.536  19.674   3.027  0.00  0.00     0.028 A 
HETATM   16  C   UNK N   1      24.508  20.579   2.781  0.00  0.00     0.038 A 
HETATM   17  C   UNK N   1      23.183  20.259   3.132  0.00  0.00     0.069 A 
HETATM   18  C   UNK N   1      22.910  19.032   3.744  0.00  0.00     0.038 A 
HETATM   19  C   UNK N   1      23.943  18.129   3.993  0.00  0.00     0.028 A 
BRANCH  17  20
HETATM   20  O   UNK N   1      22.165  21.120   2.898  0.00  0.00    -0.341 OA
BRANCH  20  21
HETATM   21  C   UNK N   1      20.951  20.730   2.372  0.00  0.00     0.285 C 
BRANCH  21  22
HETATM   22  C   UNK N   1      20.821  21.252   0.977  0.00  0.00     0.164 C 
HETATM   23  O   UNK N   1      21.123  20.546   0.030  0.00  0.00    -0.648 OA
BRANCH  22  24
HETATM   24  O   UNK N   1      20.409  22.517   0.769  0.00  0.00    -0.775 OA
HETATM   25  H   UNK N   1      19.506  22.738   0.657  0.00  0.00     0.167 HD
ENDBRANCH  22  24
ENDBRANCH  21  22
ENDBRANCH  20  21
ENDBRANCH  17  20
ENDBRANCH  11  14
ENDBRANCH  10  11
BRANCH   1  26
HETATM   26  S   UNK N   1      28.229  18.110   6.519  0.00  0.00     0.091 S 
HETATM   27  O   UNK N   1      27.758  19.759   6.395  0.00  0.00    -0.249 OA
BRANCH  26  28
HETATM   28  C   UNK N   1      29.784  17.652   7.361  0.00  0.00     0.175 C 
BRANCH  28  29
HETATM   29  C   UNK N   1      30.771  17.349   6.282  0.00  0.00     0.029 A 
HETATM   30  N   UNK N   1      30.311  17.085   5.030  0.00  0.00    -0.367 N 
HETATM   31  C   UNK N   1      31.137  16.708   4.027  0.00  0.00     0.097 A 
ATOM     32  HN  UNK N   1      29.313  17.174   4.842  1.00  0.00     0.165 HD
HETATM   33  C   UNK N   1      32.506  16.577   4.248  0.00  0.00    -0.013 A 
HETATM   34  C   UNK N   1      33.340  16.128   3.097  0.00  0.00     0.052 C 
HETATM   35  C   UNK N   1      33.032  16.867   5.540  0.00  0.00     0.083 A 
HETATM   36  C   UNK N   1      32.142  17.260   6.557  0.00  0.00    -0.005 A 
HETATM   37  C   UNK N   1      32.657  17.548   7.932  0.00  0.00     0.053 C 
BRANCH  35  38
HETATM   38  O   UNK N   1      34.354  16.771   5.857  0.00  0.00    -0.355 OA
HETATM   39  C   UNK N   1      35.004  15.655   6.324  0.00  0.00     0.210 C 
ENDBRANCH  35  38
ENDBRANCH  28  29
ENDBRANCH  26  28
ENDBRANCH   1  26
BRANCH   6  40
HETATM   40  O   UNK N   1      23.607  12.272   7.451  0.00  0.00    -0.356 OA
HETATM   41  C   UNK N   1      23.639  12.065   8.810  0.00  0.00     0.210 C 
ENDBRANCH   6  40
TORSDOF 11
ENDMDL
MODEL 2
REMARK VINA RESULT:      -8.2      2.721      4.839
REMARK  11 active torsions:
REMARK  status: ('A' for Active; 'I' for Inactive)
REMARK    1  A    between atoms: C_6  and  C_12 
REMARK    2  A    between atoms: C_8  and  O_9 
REMARK    3  A    between atoms: C_12  and  S_13 
REMARK    4  A    between atoms: S_13  and  C_14 
REMARK    5  A    between atoms: C_19  and  O_38 
REMARK    6  A    between atoms: N_23  and  S_24 
REMARK    7  A    between atoms: S_24  and  C_27 
REMARK    8  A    between atoms: C_30  and  O_33 
REMARK    9  A    between atoms: O_33  and  C_34 
REMARK   10  A    between atoms: C_34  and  C_35 
REMARK   11  A    between atoms: C_35  and  O_37 
ROOT
HETATM    1  C   UNK N   1      24.127  14.010   6.818  0.00  0.00     0.192 A 
HETATM    2  N   UNK N   1      25.041  13.703   7.773  0.00  0.00    -0.332 N 
ATOM      3  HN  UNK N   1      26.057  13.789   7.723  1.00  0.00     0.168 HD
HETATM    4  C   UNK N   1      24.296  13.259   8.802  0.00  0.00     0.065 A 
HETATM    5  C   UNK N   1      24.733  12.812  10.043  0.00  0.00     0.068 A 
HETATM    6  C   UNK N   1      23.759  12.382  10.967  0.00  0.00     0.070 A 
HETATM    7  C   UNK N   1      22.381  12.426  10.612  0.00  0.00     0.039 A 
HETATM    8  C   UNK N   1      21.977  12.891   9.348  0.00  0.00     0.036 A 
HETATM    9  C   UNK N   1      22.976  13.293   8.467  0.00  0.00     0.080 A 
HETATM   10  N   UNK N   1      22.862  13.758   7.219  0.00  0.00    -0.210 N 
ENDROOT
BRANCH  10  11
HETATM   11  S   UNK N   1      21.397  14.081   6.291  0.00  0.00     0.271 S 
HETATM   12  O   UNK N   1      21.330  12.983   5.218  0.00  0.00    -0.200 OA
HETATM   13  O   UNK N   1      20.217  13.776   7.226  0.00  0.00    -0.200 OA
BRANCH  11  14
HETATM   14  C   UNK N   1      21.508  15.746   5.699  0.00  0.00     0.080 A 
HETATM   15  C   UNK N   1      21.276  15.998   4.348  0.00  0.00     0.028 A 
HETATM   16  C   UNK N   1      21.158  17.311   3.899  0.00  0.00     0.038 A 
HETATM   17  C   UNK N   1      21.243  18.381   4.809  0.00  0.00     0.069 A 
HETATM   18  C   UNK N   1      21.462  18.118   6.164  0.00  0.00     0.038 A 
HETATM   19  C   UNK N   1      21.585  16.803   6.610  0.00  0.00     0.028 A 
BRANCH  17  20
HETATM   20  O   UNK N   1      21.124  19.666   4.397  0.00  0.00    -0.341 OA
BRANCH  20  21
HETATM   21  C   UNK N   1      20.540  20.025   3.201  0.00  0.00     0.285 C 
BRANCH  21  22
HETATM   22  C   UNK N   1      21.560  20.674   2.323  0.00  0.00     0.164 C 
HETATM   23  O   UNK N   1      22.461  21.332   2.814  0.00  0.00    -0.648 OA
BRANCH  22  24
HETATM   24  O   UNK N   1      21.460  20.566   0.984  0.00  0.00    -0.775 OA
HETATM   25  H   UNK N   1      20.876  21.097   0.480  0.00  0.00     0.167 HD
ENDBRANCH  22  24
ENDBRANCH  21  22
ENDBRANCH  20  21
ENDBRANCH  17  20
ENDBRANCH  11  14
ENDBRANCH  10  11
BRANCH   1  26
HETATM   26  S   UNK N   1      24.568  14.566   5.163  0.00  0.00     0.091 S 
HETATM   27  O   UNK N   1      24.060  13.677   3.782  0.00  0.00    -0.249 OA
BRANCH  26  28
HETATM   28  C   UNK N   1      24.969  16.343   5.024  0.00  0.00     0.175 C 
BRANCH  28  29
HETATM   29  C   UNK N   1      26.389  16.486   5.462  0.00  0.00     0.029 A 
HETATM   30  N   UNK N   1      26.649  16.697   6.780  0.00  0.00    -0.367 N 
HETATM   31  C   UNK N   1      27.902  16.933   7.236  0.00  0.00     0.097 A 
ATOM     32  HN  UNK N   1      25.877  16.676   7.445  1.00  0.00     0.165 HD
HETATM   33  C   UNK N   1      28.981  16.968   6.355  0.00  0.00    -0.013 A 
HETATM   34  C   UNK N   1      30.322  17.266   6.936  0.00  0.00     0.052 C 
HETATM   35  C   UNK N   1      28.755  16.730   4.969  0.00  0.00     0.083 A 
HETATM   36  C   UNK N   1      27.440  16.483   4.534  0.00  0.00    -0.005 A 
HETATM   37  C   UNK N   1      27.162  16.254   3.081  0.00  0.00     0.053 C 
BRANCH  35  38
HETATM   38  O   UNK N   1      29.742  16.741   4.030  0.00  0.00    -0.355 OA
HETATM   39  C   UNK N   1      30.652  15.740   3.787  0.00  0.00     0.210 C 
ENDBRANCH  35  38
ENDBRANCH  28  29
ENDBRANCH  26  28
ENDBRANCH   1  26
BRANCH   6  40
HETATM   40  O   UNK N   1      24.161  11.929  12.176  0.00  0.00    -0.356 OA
HETATM   41  C   UNK N   1      23.352  11.937  13.289  0.00  0.00     0.210 C 
ENDBRANCH   6  40
TORSDOF 11
ENDMDL
MODEL 3
REMARK VINA RESULT:      -8.2      6.004      8.537
REMARK  11 active torsions:
REMARK  status: ('A' for Active; 'I' for Inactive)
REMARK    1  A    between atoms: C_6  and  C_12 
REMARK    2  A    between atoms: C_8  and  O_9 
REMARK    3  A    between atoms: C_12  and  S_13 
REMARK    4  A    between atoms: S_13  and  C_14 
REMARK    5  A    between atoms: C_19  and  O_38 
REMARK    6  A    between atoms: N_23  and  S_24 
REMARK    7  A    between atoms: S_24  and  C_27 
REMARK    8  A    between atoms: C_30  and  O_33 
REMARK    9  A    between atoms: O_33  and  C_34 
REMARK   10  A    between atoms: C_34  and  C_35 
REMARK   11  A    between atoms: C_35  and  O_37 
ROOT
HETATM    1  C   UNK N   1      22.770  14.097   6.144  0.00  0.00     0.192 A 
HETATM    2  N   UNK N   1      23.787  13.510   6.825  0.00  0.00    -0.332 N 
ATOM      3  HN  UNK N   1      24.717  13.266   6.480  1.00  0.00     0.168 HD
HETATM    4  C   UNK N   1      23.286  13.325   8.060  0.00  0.00     0.065 A 
HETATM    5  C   UNK N   1      23.914  12.758   9.161  0.00  0.00     0.068 A 
HETATM    6  C   UNK N   1      23.177  12.661  10.359  0.00  0.00     0.070 A 
HETATM    7  C   UNK N   1      21.839  13.145  10.408  0.00  0.00     0.039 A 
HETATM    8  C   UNK N   1      21.239  13.718   9.273  0.00  0.00     0.036 A 
HETATM    9  C   UNK N   1      22.003  13.782   8.111  0.00  0.00     0.080 A 
HETATM   10  N   UNK N   1      21.669  14.262   6.909  0.00  0.00    -0.210 N 
ENDROOT
BRANCH  10  11
HETATM   11  S   UNK N   1      20.167  15.040   6.410  0.00  0.00     0.271 S 
HETATM   12  O   UNK N   1      19.355  13.955   5.684  0.00  0.00    -0.200 OA
HETATM   13  O   UNK N   1      19.375  15.316   7.696  0.00  0.00    -0.200 OA
BRANCH  11  14
HETATM   14  C   UNK N   1      20.606  16.460   5.448  0.00  0.00     0.080 A 
HETATM   15  C   UNK N   1      19.935  16.698   4.250  0.00  0.00     0.028 A 
HETATM   16  C   UNK N   1      20.118  17.905   3.582  0.00  0.00     0.038 A 
HETATM   17  C   UNK N   1      20.955  18.897   4.127  0.00  0.00     0.069 A 
HETATM   18  C   UNK N   1      21.614  18.655   5.336  0.00  0.00     0.038 A 
HETATM   19  C   UNK N   1      21.433  17.442   6.001  0.00  0.00     0.028 A 
BRANCH  17  20
HETATM   20  O   UNK N   1      21.143  20.082   3.499  0.00  0.00    -0.341 OA
BRANCH  20  21
HETATM   21  C   UNK N   1      21.892  20.218   2.349  0.00  0.00     0.285 C 
BRANCH  21  22
HETATM   22  C   UNK N   1      20.993  20.573   1.209  0.00  0.00     0.164 C 
HETATM   23  O   UNK N   1      20.575  21.712   1.091  0.00  0.00    -0.648 OA
BRANCH  22  24
HETATM   24  O   UNK N   1      20.613  19.624   0.333  0.00  0.00    -0.775 OA
HETATM   25  H   UNK N   1      19.991  18.959   0.551  0.00  0.00     0.167 HD
ENDBRANCH  22  24
ENDBRANCH  21  22
ENDBRANCH  20  21
ENDBRANCH  17  20
ENDBRANCH  11  14
ENDBRANCH  10  11
BRANCH   1  26
HETATM   26  S   UNK N   1      22.844  14.487   4.388  0.00  0.00     0.091 S 
HETATM   27  O   UNK N   1      23.915  15.702   3.811  0.00  0.00    -0.249 OA
BRANCH  26  28
HETATM   28  C   UNK N   1      22.262  13.162   3.274  0.00  0.00     0.175 C 
BRANCH  28  29
HETATM   29  C   UNK N   1      21.326  13.809   2.307  0.00  0.00     0.029 A 
HETATM   30  N   UNK N   1      21.719  14.949   1.680  0.00  0.00    -0.367 N 
HETATM   31  C   UNK N   1      20.889  15.644   0.867  0.00  0.00     0.097 A 
ATOM     32  HN  UNK N   1      22.668  15.292   1.827  1.00  0.00     0.165 HD
HETATM   33  C   UNK N   1      19.586  15.205   0.642  0.00  0.00    -0.013 A 
HETATM   34  C   UNK N   1      18.729  16.045  -0.242  0.00  0.00     0.052 C 
HETATM   35  C   UNK N   1      19.142  14.002   1.262  0.00  0.00     0.083 A 
HETATM   36  C   UNK N   1      20.035  13.305   2.098  0.00  0.00    -0.005 A 
HETATM   37  C   UNK N   1      19.594  12.051   2.785  0.00  0.00     0.053 C 
BRANCH  35  38
HETATM   38  O   UNK N   1      17.890  13.488   1.105  0.00  0.00    -0.355 OA
HETATM   39  C   UNK N   1      17.463  12.668   0.088  0.00  0.00     0.210 C 
ENDBRANCH  35  38
ENDBRANCH  28  29
ENDBRANCH  26  28
ENDBRANCH   1  26
BRANCH   6  40
HETATM   40  O   UNK N   1      23.763  12.099  11.442  0.00  0.00    -0.356 OA
HETATM   41  C   UNK N   1      23.119  11.941  12.648  0.00  0.00     0.210 C 
ENDBRANCH   6  40
TORSDOF 11
ENDMDL
MODEL 4
REMARK VINA RESULT:      -8.1      2.858      5.163
REMARK  11 active torsions:
REMARK  status: ('A' for Active; 'I' for Inactive)
REMARK    1  A    between atoms: C_6  and  C_12 
REMARK    2  A    between atoms: C_8  and  O_9 
REMARK    3  A    between atoms: C_12  and  S_13 
REMARK    4  A    between atoms: S_13  and  C_14 
REMARK    5  A    between atoms: C_19  and  O_38 
REMARK    6  A    between atoms: N_23  and  S_24 
REMARK    7  A    between atoms: S_24  and  C_27 
REMARK    8  A    between atoms: C_30  and  O_33 
REMARK    9  A    between atoms: O_33  and  C_34 
REMARK   10  A    between atoms: C_34  and  C_35 
REMARK   11  A    between atoms: C_35  and  O_37 
ROOT
HETATM    1  C   UNK N   1      24.040  13.599   6.560  0.00  0.00     0.192 A 
HETATM    2  N   UNK N   1      24.964  13.268   7.497  0.00  0.00    -0.332 N 
ATOM      3  HN  UNK N   1      25.979  13.220   7.390  1.00  0.00     0.168 HD
HETATM    4  C   UNK N   1      24.233  13.017   8.599  0.00  0.00     0.065 A 
HETATM    5  C   UNK N   1      24.685  12.635   9.855  0.00  0.00     0.068 A 
HETATM    6  C   UNK N   1      23.722  12.417  10.862  0.00  0.00     0.070 A 
HETATM    7  C   UNK N   1      22.341  12.602  10.570  0.00  0.00     0.039 A 
HETATM    8  C   UNK N   1      21.922  12.995   9.286  0.00  0.00     0.036 A 
HETATM    9  C   UNK N   1      22.910  13.187   8.325  0.00  0.00     0.080 A 
HETATM   10  N   UNK N   1      22.779  13.546   7.043  0.00  0.00    -0.210 N 
ENDROOT
BRANCH  10  11
HETATM   11  S   UNK N   1      21.312  13.964   6.159  0.00  0.00     0.271 S 
HETATM   12  O   UNK N   1      21.147  12.878   5.083  0.00  0.00    -0.200 OA
HETATM   13  O   UNK N   1      20.142  13.727   7.125  0.00  0.00    -0.200 OA
BRANCH  11  14
HETATM   14  C   UNK N   1      21.509  15.622   5.570  0.00  0.00     0.080 A 
HETATM   15  C   UNK N   1      21.176  15.913   4.248  0.00  0.00     0.028 A 
HETATM   16  C   UNK N   1      21.130  17.237   3.822  0.00  0.00     0.038 A 
HETATM   17  C   UNK N   1      21.388  18.283   4.727  0.00  0.00     0.069 A 
HETATM   18  C   UNK N   1      21.708  17.983   6.054  0.00  0.00     0.038 A 
HETATM   19  C   UNK N   1      21.759  16.655   6.478  0.00  0.00     0.028 A 
BRANCH  17  20
HETATM   20  O   UNK N   1      21.342  19.579   4.337  0.00  0.00    -0.341 OA
BRANCH  20  21
HETATM   21  C   UNK N   1      20.483  20.046   3.365  0.00  0.00     0.285 C 
BRANCH  21  22
HETATM   22  C   UNK N   1      21.233  20.922   2.415  0.00  0.00     0.164 C 
HETATM   23  O   UNK N   1      21.038  20.831   1.215  0.00  0.00    -0.648 OA
BRANCH  22  24
HETATM   24  O   UNK N   1      22.156  21.784   2.883  0.00  0.00    -0.775 OA
HETATM   25  H   UNK N   1      21.967  22.689   3.033  0.00  0.00     0.167 HD
ENDBRANCH  22  24
ENDBRANCH  21  22
ENDBRANCH  20  21
ENDBRANCH  17  20
ENDBRANCH  11  14
ENDBRANCH  10  11
BRANCH   1  26
HETATM   26  S   UNK N   1      24.446  13.941   4.840  0.00  0.00     0.091 S 
HETATM   27  O   UNK N   1      24.081  12.791   3.615  0.00  0.00    -0.249 OA
BRANCH  26  28
HETATM   28  C   UNK N   1      24.631  15.710   4.424  0.00  0.00     0.175 C 
BRANCH  28  29
HETATM   29  C   UNK N   1      25.997  16.106   4.877  0.00  0.00     0.029 A 
HETATM   30  N   UNK N   1      26.911  15.131   5.128  0.00  0.00    -0.367 N 
HETATM   31  C   UNK N   1      28.136  15.408   5.633  0.00  0.00     0.097 A 
ATOM     32  HN  UNK N   1      26.666  14.161   4.929  1.00  0.00     0.165 HD
HETATM   33  C   UNK N   1      28.505  16.721   5.916  0.00  0.00    -0.013 A 
HETATM   34  C   UNK N   1      29.860  16.935   6.499  0.00  0.00     0.052 C 
HETATM   35  C   UNK N   1      27.585  17.774   5.646  0.00  0.00     0.083 A 
HETATM   36  C   UNK N   1      26.323  17.447   5.116  0.00  0.00    -0.005 A 
HETATM   37  C   UNK N   1      25.322  18.527   4.844  0.00  0.00     0.053 C 
BRANCH  35  38
HETATM   38  O   UNK N   1      27.851  19.089   5.885  0.00  0.00    -0.355 OA
HETATM   39  C   UNK N   1      27.764  19.735   7.095  0.00  0.00     0.210 C 
ENDBRANCH  35  38
ENDBRANCH  28  29
ENDBRANCH  26  28
ENDBRANCH   1  26
BRANCH   6  40
HETATM   40  O   UNK N   1      24.137  12.030  12.090  0.00  0.00    -0.356 OA
HETATM   41  C   UNK N   1      23.301  11.965  13.180  0.00  0.00     0.210 C 
ENDBRANCH   6  40
TORSDOF 11
ENDMDL
MODEL 5
REMARK VINA RESULT:      -8.0     11.521     14.371
REMARK  11 active torsions:
REMARK  status: ('A' for Active; 'I' for Inactive)
REMARK    1  A    between atoms: C_6  and  C_12 
REMARK    2  A    between atoms: C_8  and  O_9 
REMARK    3  A    between atoms: C_12  and  S_13 
REMARK    4  A    between atoms: S_13  and  C_14 
REMARK    5  A    between atoms: C_19  and  O_38 
REMARK    6  A    between atoms: N_23  and  S_24 
REMARK    7  A    between atoms: S_24  and  C_27 
REMARK    8  A    between atoms: C_30  and  O_33 
REMARK    9  A    between atoms: O_33  and  C_34 
REMARK   10  A    between atoms: C_34  and  C_35 
REMARK   11  A    between atoms: C_35  and  O_37 
ROOT
HETATM    1  C   UNK N   1      32.458  24.419  -5.232  0.00  0.00     0.192 A 
HETATM    2  N   UNK N   1      33.484  23.838  -5.904  0.00  0.00    -0.332 N 
ATOM      3  HN  UNK N   1      34.070  24.247  -6.633  1.00  0.00     0.168 HD
HETATM    4  C   UNK N   1      33.550  22.599  -5.384  0.00  0.00     0.065 A 
HETATM    5  C   UNK N   1      34.433  21.579  -5.717  0.00  0.00     0.068 A 
HETATM    6  C   UNK N   1      34.303  20.350  -5.038  0.00  0.00     0.070 A 
HETATM    7  C   UNK N   1      33.297  20.195  -4.043  0.00  0.00     0.039 A 
HETATM    8  C   UNK N   1      32.425  21.253  -3.730  0.00  0.00     0.036 A 
HETATM    9  C   UNK N   1      32.586  22.442  -4.435  0.00  0.00     0.080 A 
HETATM   10  N   UNK N   1      31.890  23.579  -4.338  0.00  0.00    -0.210 N 
ENDROOT
BRANCH  10  11
HETATM   11  S   UNK N   1      30.575  23.978  -3.233  0.00  0.00     0.271 S 
HETATM   12  O   UNK N   1      30.816  23.133  -1.972  0.00  0.00    -0.200 OA
HETATM   13  O   UNK N   1      30.817  25.425  -2.777  0.00  0.00    -0.200 OA
BRANCH  11  14
HETATM   14  C   UNK N   1      29.057  23.679  -4.094  0.00  0.00     0.080 A 
HETATM   15  C   UNK N   1      27.886  24.271  -3.625  0.00  0.00     0.028 A 
HETATM   16  C   UNK N   1      26.727  24.218  -4.393  0.00  0.00     0.038 A 
HETATM   17  C   UNK N   1      26.740  23.593  -5.654  0.00  0.00     0.069 A 
HETATM   18  C   UNK N   1      27.923  23.014  -6.123  0.00  0.00     0.038 A 
HETATM   19  C   UNK N   1      29.082  23.064  -5.349  0.00  0.00     0.028 A 
BRANCH  17  20
HETATM   20  O   UNK N   1      25.627  23.535  -6.422  0.00  0.00    -0.341 OA
BRANCH  20  21
HETATM   21  C   UNK N   1      25.643  23.158  -7.749  0.00  0.00     0.285 C 
BRANCH  21  22
HETATM   22  C   UNK N   1      24.833  21.914  -7.923  0.00  0.00     0.164 C 
HETATM   23  O   UNK N   1      25.383  20.827  -7.970  0.00  0.00    -0.648 OA
BRANCH  22  24
HETATM   24  O   UNK N   1      23.497  21.998  -8.071  0.00  0.00    -0.775 OA
HETATM   25  H   UNK N   1      22.903  21.842  -7.364  0.00  0.00     0.167 HD
ENDBRANCH  22  24
ENDBRANCH  21  22
ENDBRANCH  20  21
ENDBRANCH  17  20
ENDBRANCH  11  14
ENDBRANCH  10  11
BRANCH   1  26
HETATM   26  S   UNK N   1      31.845  26.074  -5.590  0.00  0.00     0.091 S 
HETATM   27  O   UNK N   1      32.887  27.435  -5.453  0.00  0.00    -0.249 OA
BRANCH  26  28
HETATM   28  C   UNK N   1      30.373  26.139  -6.668  0.00  0.00     0.175 C 
BRANCH  28  29
HETATM   29  C   UNK N   1      29.335  26.901  -5.913  0.00  0.00     0.029 A 
HETATM   30  N   UNK N   1      29.658  27.419  -4.698  0.00  0.00    -0.367 N 
HETATM   31  C   UNK N   1      28.742  28.037  -3.914  0.00  0.00     0.097 A 
ATOM     32  HN  UNK N   1      30.619  27.341  -4.367  1.00  0.00     0.165 HD
HETATM   33  C   UNK N   1      27.421  28.163  -4.334  0.00  0.00    -0.013 A 
HETATM   34  C   UNK N   1      26.471  28.829  -3.397  0.00  0.00     0.052 C 
HETATM   35  C   UNK N   1      27.045  27.655  -5.611  0.00  0.00     0.083 A 
HETATM   36  C   UNK N   1      28.026  27.023  -6.399  0.00  0.00    -0.005 A 
HETATM   37  C   UNK N   1      27.661  26.455  -7.735  0.00  0.00     0.053 C 
BRANCH  35  38
HETATM   38  O   UNK N   1      25.781  27.730  -6.113  0.00  0.00    -0.355 OA
HETATM   39  C   UNK N   1      24.696  26.988  -5.712  0.00  0.00     0.210 C 
ENDBRANCH  35  38
ENDBRANCH  28  29
ENDBRANCH  26  28
ENDBRANCH   1  26
BRANCH   6  40
HETATM   40  O   UNK N   1      35.142  19.337  -5.354  0.00  0.00    -0.356 OA
HETATM   41  C   UNK N   1      36.142  19.454  -6.292  0.00  0.00     0.210 C 
ENDBRANCH   6  40
TORSDOF 11
ENDMDL
MODEL 6
REMARK VINA RESULT:      -7.7      4.951      8.166
REMARK  11 active torsions:
REMARK  status: ('A' for Active; 'I' for Inactive)
REMARK    1  A    between atoms: C_6  and  C_12 
REMARK    2  A    between atoms: C_8  and  O_9 
REMARK    3  A    between atoms: C_12  and  S_13 
REMARK    4  A    between atoms: S_13  and  C_14 
REMARK    5  A    between atoms: C_19  and  O_38 
REMARK    6  A    between atoms: N_23  and  S_24 
REMARK    7  A    between atoms: S_24  and  C_27 
REMARK    8  A    between atoms: C_30  and  O_33 
REMARK    9  A    between atoms: O_33  and  C_34 
REMARK   10  A    between atoms: C_34  and  C_35 
REMARK   11  A    between atoms: C_35  and  O_37 
ROOT
HETATM    1  C   UNK N   1      20.357  15.243   4.324  0.00  0.00     0.192 A 
HETATM    2  N   UNK N   1      20.667  13.923   4.361  0.00  0.00    -0.332 N 
ATOM      3  HN  UNK N   1      20.478  13.252   5.107  1.00  0.00     0.168 HD
HETATM    4  C   UNK N   1      21.283  13.703   3.184  0.00  0.00     0.065 A 
HETATM    5  C   UNK N   1      21.808  12.510   2.704  0.00  0.00     0.068 A 
HETATM    6  C   UNK N   1      22.421  12.525   1.435  0.00  0.00     0.070 A 
HETATM    7  C   UNK N   1      22.477  13.738   0.691  0.00  0.00     0.039 A 
HETATM    8  C   UNK N   1      21.929  14.926   1.209  0.00  0.00     0.036 A 
HETATM    9  C   UNK N   1      21.344  14.861   2.470  0.00  0.00     0.080 A 
HETATM   10  N   UNK N   1      20.770  15.836   3.182  0.00  0.00    -0.210 N 
ENDROOT
BRANCH  10  11
HETATM   11  S   UNK N   1      20.500  17.520   2.732  0.00  0.00     0.271 S 
HETATM   12  O   UNK N   1      20.263  17.515   1.213  0.00  0.00    -0.200 OA
HETATM   13  O   UNK N   1      19.141  17.914   3.330  0.00  0.00    -0.200 OA
BRANCH  11  14
HETATM   14  C   UNK N   1      21.897  18.445   3.301  0.00  0.00     0.080 A 
HETATM   15  C   UNK N   1      22.877  17.796   4.050  0.00  0.00     0.028 A 
HETATM   16  C   UNK N   1      24.075  18.446   4.334  0.00  0.00     0.038 A 
HETATM   17  C   UNK N   1      24.311  19.743   3.844  0.00  0.00     0.069 A 
HETATM   18  C   UNK N   1      23.328  20.382   3.082  0.00  0.00     0.038 A 
HETATM   19  C   UNK N   1      22.127  19.731   2.804  0.00  0.00     0.028 A 
BRANCH  17  20
HETATM   20  O   UNK N   1      25.471  20.393   4.102  0.00  0.00    -0.341 OA
BRANCH  20  21
HETATM   21  C   UNK N   1      26.503  19.838   4.829  0.00  0.00     0.285 C 
BRANCH  21  22
HETATM   22  C   UNK N   1      26.606  20.525   6.152  0.00  0.00     0.164 C 
HETATM   23  O   UNK N   1      26.425  21.728   6.233  0.00  0.00    -0.648 OA
BRANCH  22  24
HETATM   24  O   UNK N   1      26.940  19.820   7.250  0.00  0.00    -0.775 OA
HETATM   25  H   UNK N   1      26.845  20.164   8.116  0.00  0.00     0.167 HD
ENDBRANCH  22  24
ENDBRANCH  21  22
ENDBRANCH  20  21
ENDBRANCH  17  20
ENDBRANCH  11  14
ENDBRANCH  10  11
BRANCH   1  26
HETATM   26  S   UNK N   1      19.597  16.124   5.699  0.00  0.00     0.091 S 
HETATM   27  O   UNK N   1      17.925  15.920   6.044  0.00  0.00    -0.249 OA
BRANCH  26  28
HETATM   28  C   UNK N   1      20.753  16.669   7.003  0.00  0.00     0.175 C 
BRANCH  28  29
HETATM   29  C   UNK N   1      20.985  15.483   7.879  0.00  0.00     0.029 A 
HETATM   30  N   UNK N   1      20.071  15.192   8.843  0.00  0.00    -0.367 N 
HETATM   31  C   UNK N   1      20.262  14.193   9.736  0.00  0.00     0.097 A 
ATOM     32  HN  UNK N   1      19.215  15.744   8.895  1.00  0.00     0.165 HD
HETATM   33  C   UNK N   1      21.419  13.418   9.694  0.00  0.00    -0.013 A 
HETATM   34  C   UNK N   1      21.564  12.358  10.733  0.00  0.00     0.052 C 
HETATM   35  C   UNK N   1      22.391  13.674   8.686  0.00  0.00     0.083 A 
HETATM   36  C   UNK N   1      22.155  14.719   7.772  0.00  0.00    -0.005 A 
HETATM   37  C   UNK N   1      23.167  15.033   6.715  0.00  0.00     0.053 C 
BRANCH  35  38
HETATM   38  O   UNK N   1      23.553  12.973   8.559  0.00  0.00    -0.355 OA
HETATM   39  C   UNK N   1      24.710  13.170   9.275  0.00  0.00     0.210 C 
ENDBRANCH  35  38
ENDBRANCH  28  29
ENDBRANCH  26  28
ENDBRANCH   1  26
BRANCH   6  40
HETATM   40  O   UNK N   1      22.953  11.378   0.952  0.00  0.00    -0.356 OA
HETATM   41  C   UNK N   1      24.216  11.304   0.414  0.00  0.00     0.210 C 
ENDBRANCH   6  40
TORSDOF 11
ENDMDL
MODEL 7
REMARK VINA RESULT:      -7.7      2.250      7.017
REMARK  11 active torsions:
REMARK  status: ('A' for Active; 'I' for Inactive)
REMARK    1  A    between atoms: C_6  and  C_12 
REMARK    2  A    between atoms: C_8  and  O_9 
REMARK    3  A    between atoms: C_12  and  S_13 
REMARK    4  A    between atoms: S_13  and  C_14 
REMARK    5  A    between atoms: C_19  and  O_38 
REMARK    6  A    between atoms: N_23  and  S_24 
REMARK    7  A    between atoms: S_24  and  C_27 
REMARK    8  A    between atoms: C_30  and  O_33 
REMARK    9  A    between atoms: O_33  and  C_34 
REMARK   10  A    between atoms: C_34  and  C_35 
REMARK   11  A    between atoms: C_35  and  O_37 
ROOT
HETATM    1  C   UNK N   1      25.957  16.833   4.891  0.00  0.00     0.192 A 
HETATM    2  N   UNK N   1      25.903  18.157   4.595  0.00  0.00    -0.332 N 
ATOM      3  HN  UNK N   1      26.651  18.848   4.661  1.00  0.00     0.168 HD
HETATM    4  C   UNK N   1      24.632  18.346   4.196  0.00  0.00     0.065 A 
HETATM    5  C   UNK N   1      24.035  19.529   3.776  0.00  0.00     0.068 A 
HETATM    6  C   UNK N   1      22.674  19.485   3.412  0.00  0.00     0.070 A 
HETATM    7  C   UNK N   1      21.965  18.252   3.474  0.00  0.00     0.039 A 
HETATM    8  C   UNK N   1      22.605  17.073   3.899  0.00  0.00     0.036 A 
HETATM    9  C   UNK N   1      23.946  17.171   4.258  0.00  0.00     0.080 A 
HETATM   10  N   UNK N   1      24.771  16.215   4.700  0.00  0.00    -0.210 N 
ENDROOT
BRANCH  10  11
HETATM   11  S   UNK N   1      24.453  14.494   4.913  0.00  0.00     0.271 S 
HETATM   12  O   UNK N   1      23.404  14.127   3.850  0.00  0.00    -0.200 OA
HETATM   13  O   UNK N   1      25.725  13.761   4.464  0.00  0.00    -0.200 OA
BRANCH  11  14
HETATM   14  C   UNK N   1      23.972  14.254   6.599  0.00  0.00     0.080 A 
HETATM   15  C   UNK N   1      22.694  14.642   6.999  0.00  0.00     0.028 A 
HETATM   16  C   UNK N   1      22.223  14.281   8.258  0.00  0.00     0.038 A 
HETATM   17  C   UNK N   1      23.020  13.502   9.117  0.00  0.00     0.069 A 
HETATM   18  C   UNK N   1      24.295  13.106   8.703  0.00  0.00     0.038 A 
HETATM   19  C   UNK N   1      24.767  13.472   7.443  0.00  0.00     0.028 A 
BRANCH  17  20
HETATM   20  O   UNK N   1      22.581  13.133  10.343  0.00  0.00    -0.341 OA
BRANCH  20  21
HETATM   21  C   UNK N   1      22.772  11.872  10.867  0.00  0.00     0.285 C 
BRANCH  21  22
HETATM   22  C   UNK N   1      23.611  11.966  12.100  0.00  0.00     0.164 C 
HETATM   23  O   UNK N   1      23.108  11.793  13.197  0.00  0.00    -0.648 OA
BRANCH  22  24
HETATM   24  O   UNK N   1      24.916  12.284  12.001  0.00  0.00    -0.775 OA
HETATM   25  H   UNK N   1      25.462  12.404  12.753  0.00  0.00     0.167 HD
ENDBRANCH  22  24
ENDBRANCH  21  22
ENDBRANCH  20  21
ENDBRANCH  17  20
ENDBRANCH  11  14
ENDBRANCH  10  11
BRANCH   1  26
HETATM   26  S   UNK N   1      27.413  16.028   5.580  0.00  0.00     0.091 S 
HETATM   27  O   UNK N   1      28.398  15.019   4.595  0.00  0.00    -0.249 OA
BRANCH  26  28
HETATM   28  C   UNK N   1      28.102  16.819   7.075  0.00  0.00     0.175 C 
BRANCH  28  29
HETATM   29  C   UNK N   1      29.545  17.074   6.786  0.00  0.00     0.029 A 
HETATM   30  N   UNK N   1      29.955  17.120   5.491  0.00  0.00    -0.367 N 
HETATM   31  C   UNK N   1      31.260  17.249   5.155  0.00  0.00     0.097 A 
ATOM     32  HN  UNK N   1      29.258  17.055   4.749  1.00  0.00     0.165 HD
HETATM   33  C   UNK N   1      32.239  17.340   6.141  0.00  0.00    -0.013 A 
HETATM   34  C   UNK N   1      33.654  17.449   5.685  0.00  0.00     0.052 C 
HETATM   35  C   UNK N   1      31.850  17.319   7.511  0.00  0.00     0.083 A 
HETATM   36  C   UNK N   1      30.483  17.188   7.821  0.00  0.00    -0.005 A 
HETATM   37  C   UNK N   1      30.040  17.138   9.250  0.00  0.00     0.053 C 
BRANCH  35  38
HETATM   38  O   UNK N   1      32.729  17.404   8.549  0.00  0.00    -0.355 OA
HETATM   39  C   UNK N   1      33.569  16.411   8.993  0.00  0.00     0.210 C 
ENDBRANCH  35  38
ENDBRANCH  28  29
ENDBRANCH  26  28
ENDBRANCH   1  26
BRANCH   6  40
HETATM   40  O   UNK N   1      22.067  20.627   3.014  0.00  0.00    -0.356 OA
HETATM   41  C   UNK N   1      20.716  20.715   2.772  0.00  0.00     0.210 C 
ENDBRANCH   6  40
TORSDOF 11
ENDMDL
MODEL 8
REMARK VINA RESULT:      -7.6      2.384      7.373
REMARK  11 active torsions:
REMARK  status: ('A' for Active; 'I' for Inactive)
REMARK    1  A    between atoms: C_6  and  C_12 
REMARK    2  A    between atoms: C_8  and  O_9 
REMARK    3  A    between atoms: C_12  and  S_13 
REMARK    4  A    between atoms: S_13  and  C_14 
REMARK    5  A    between atoms: C_19  and  O_38 
REMARK    6  A    between atoms: N_23  and  S_24 
REMARK    7  A    between atoms: S_24  and  C_27 
REMARK    8  A    between atoms: C_30  and  O_33 
REMARK    9  A    between atoms: O_33  and  C_34 
REMARK   10  A    between atoms: C_34  and  C_35 
REMARK   11  A    between atoms: C_35  and  O_37 
ROOT
HETATM    1  C   UNK N   1      25.991  15.266   6.031  0.00  0.00     0.192 A 
HETATM    2  N   UNK N   1      27.122  15.651   6.675  0.00  0.00    -0.332 N 
ATOM      3  HN  UNK N   1      27.327  15.597   7.673  1.00  0.00     0.168 HD
HETATM    4  C   UNK N   1      27.911  16.120   5.690  0.00  0.00     0.065 A 
HETATM    5  C   UNK N   1      29.193  16.642   5.798  0.00  0.00     0.068 A 
HETATM    6  C   UNK N   1      29.824  17.083   4.617  0.00  0.00     0.070 A 
HETATM    7  C   UNK N   1      29.146  16.976   3.370  0.00  0.00     0.039 A 
HETATM    8  C   UNK N   1      27.849  16.436   3.300  0.00  0.00     0.036 A 
HETATM    9  C   UNK N   1      27.265  16.024   4.494  0.00  0.00     0.080 A 
HETATM   10  N   UNK N   1      26.054  15.495   4.701  0.00  0.00    -0.210 N 
ENDROOT
BRANCH  10  11
HETATM   11  S   UNK N   1      24.815  15.078   3.517  0.00  0.00     0.271 S 
HETATM   12  O   UNK N   1      25.529  15.047   2.156  0.00  0.00    -0.200 OA
HETATM   13  O   UNK N   1      24.438  13.613   3.785  0.00  0.00    -0.200 OA
BRANCH  11  14
HETATM   14  C   UNK N   1      23.509  16.260   3.687  0.00  0.00     0.080 A 
HETATM   15  C   UNK N   1      23.819  17.555   4.098  0.00  0.00     0.028 A 
HETATM   16  C   UNK N   1      22.847  18.550   4.044  0.00  0.00     0.038 A 
HETATM   17  C   UNK N   1      21.563  18.261   3.549  0.00  0.00     0.069 A 
HETATM   18  C   UNK N   1      21.264  16.962   3.126  0.00  0.00     0.038 A 
HETATM   19  C   UNK N   1      22.237  15.965   3.186  0.00  0.00     0.028 A 
BRANCH  17  20
HETATM   20  O   UNK N   1      20.603  19.214   3.481  0.00  0.00    -0.341 OA
BRANCH  20  21
HETATM   21  C   UNK N   1      20.087  19.681   2.291  0.00  0.00     0.285 C 
BRANCH  21  22
HETATM   22  C   UNK N   1      20.992  20.732   1.733  0.00  0.00     0.164 C 
HETATM   23  O   UNK N   1      21.323  20.694   0.560  0.00  0.00    -0.648 OA
BRANCH  22  24
HETATM   24  O   UNK N   1      21.476  21.697   2.538  0.00  0.00    -0.775 OA
HETATM   25  H   UNK N   1      20.956  22.424   2.819  0.00  0.00     0.167 HD
ENDBRANCH  22  24
ENDBRANCH  21  22
ENDBRANCH  20  21
ENDBRANCH  17  20
ENDBRANCH  11  14
ENDBRANCH  10  11
BRANCH   1  26
HETATM   26  S   UNK N   1      24.528  14.645   6.878  0.00  0.00     0.091 S 
HETATM   27  O   UNK N   1      23.054  15.528   6.830  0.00  0.00    -0.249 OA
BRANCH  26  28
HETATM   28  C   UNK N   1      24.520  12.845   7.189  0.00  0.00     0.175 C 
BRANCH  28  29
HETATM   29  C   UNK N   1      24.096  12.668   8.610  0.00  0.00     0.029 A 
HETATM   30  N   UNK N   1      25.045  12.685   9.583  0.00  0.00    -0.367 N 
HETATM   31  C   UNK N   1      24.749  12.434  10.880  0.00  0.00     0.097 A 
ATOM     32  HN  UNK N   1      26.011  12.891   9.327  1.00  0.00     0.165 HD
HETATM   33  C   UNK N   1      23.441  12.148  11.265  0.00  0.00    -0.013 A 
HETATM   34  C   UNK N   1      23.207  11.854  12.707  0.00  0.00     0.052 C 
HETATM   35  C   UNK N   1      22.412  12.144  10.280  0.00  0.00     0.083 A 
HETATM   36  C   UNK N   1      22.758  12.413   8.942  0.00  0.00    -0.005 A 
HETATM   37  C   UNK N   1      21.707  12.393   7.878  0.00  0.00     0.053 C 
BRANCH  35  38
HETATM   38  O   UNK N   1      21.104  11.879  10.554  0.00  0.00    -0.355 OA
HETATM   39  C   UNK N   1      20.201  12.733  11.142  0.00  0.00     0.210 C 
ENDBRANCH  35  38
ENDBRANCH  28  29
ENDBRANCH  26  28
ENDBRANCH   1  26
BRANCH   6  40
HETATM   40  O   UNK N   1      31.068  17.609   4.699  0.00  0.00    -0.356 OA
HETATM   41  C   UNK N   1      32.002  17.193   5.619  0.00  0.00     0.210 C 
ENDBRANCH   6  40
TORSDOF 11
ENDMDL
MODEL 9
REMARK VINA RESULT:      -7.6      6.082      9.440
REMARK  11 active torsions:
REMARK  status: ('A' for Active; 'I' for Inactive)
REMARK    1  A    between atoms: C_6  and  C_12 
REMARK    2  A    between atoms: C_8  and  O_9 
REMARK    3  A    between atoms: C_12  and  S_13 
REMARK    4  A    between atoms: S_13  and  C_14 
REMARK    5  A    between atoms: C_19  and  O_38 
REMARK    6  A    between atoms: N_23  and  S_24 
REMARK    7  A    between atoms: S_24  and  C_27 
REMARK    8  A    between atoms: C_30  and  O_33 
REMARK    9  A    between atoms: O_33  and  C_34 
REMARK   10  A    between atoms: C_34  and  C_35 
REMARK   11  A    between atoms: C_35  and  O_37 
ROOT
HETATM    1  C   UNK N   1      34.736  12.136   8.323  0.00  0.00     0.192 A 
HETATM    2  N   UNK N   1      34.477  10.984   8.992  0.00  0.00    -0.332 N 
ATOM      3  HN  UNK N   1      34.256  10.067   8.602  1.00  0.00     0.168 HD
HETATM    4  C   UNK N   1      34.580  11.333  10.287  0.00  0.00     0.065 A 
HETATM    5  C   UNK N   1      34.410  10.526  11.405  0.00  0.00     0.068 A 
HETATM    6  C   UNK N   1      34.559  11.121  12.674  0.00  0.00     0.070 A 
HETATM    7  C   UNK N   1      34.883  12.504  12.772  0.00  0.00     0.039 A 
HETATM    8  C   UNK N   1      35.052  13.288  11.617  0.00  0.00     0.036 A 
HETATM    9  C   UNK N   1      34.884  12.657  10.388  0.00  0.00     0.080 A 
HETATM   10  N   UNK N   1      34.977  13.171   9.158  0.00  0.00    -0.210 N 
ENDROOT
BRANCH  10  11
HETATM   11  S   UNK N   1      35.413  14.811   8.677  0.00  0.00     0.271 S 
HETATM   12  O   UNK N   1      36.514  15.255   9.652  0.00  0.00    -0.200 OA
HETATM   13  O   UNK N   1      36.127  14.689   7.322  0.00  0.00    -0.200 OA
BRANCH  11  14
HETATM   14  C   UNK N   1      33.927  15.773   8.687  0.00  0.00     0.080 A 
HETATM   15  C   UNK N   1      34.006  17.141   8.436  0.00  0.00     0.028 A 
HETATM   16  C   UNK N   1      32.842  17.878   8.238  0.00  0.00     0.038 A 
HETATM   17  C   UNK N   1      31.587  17.241   8.264  0.00  0.00     0.069 A 
HETATM   18  C   UNK N   1      31.517  15.865   8.503  0.00  0.00     0.038 A 
HETATM   19  C   UNK N   1      32.685  15.131   8.706  0.00  0.00     0.028 A 
BRANCH  17  20
HETATM   20  O   UNK N   1      30.441  17.935   8.068  0.00  0.00    -0.341 OA
BRANCH  20  21
HETATM   21  C   UNK N   1      29.229  17.334   7.802  0.00  0.00     0.285 C 
BRANCH  21  22
HETATM   22  C   UNK N   1      28.226  17.758   8.825  0.00  0.00     0.164 C 
HETATM   23  O   UNK N   1      27.920  17.003   9.732  0.00  0.00    -0.648 OA
BRANCH  22  24
HETATM   24  O   UNK N   1      27.631  18.962   8.723  0.00  0.00    -0.775 OA
HETATM   25  H   UNK N   1      27.292  19.420   9.466  0.00  0.00     0.167 HD
ENDBRANCH  22  24
ENDBRANCH  21  22
ENDBRANCH  20  21
ENDBRANCH  17  20
ENDBRANCH  11  14
ENDBRANCH  10  11
BRANCH   1  26
HETATM   26  S   UNK N   1      34.638  12.289   6.531  0.00  0.00     0.091 S 
HETATM   27  O   UNK N   1      35.934  11.745   5.540  0.00  0.00    -0.249 OA
BRANCH  26  28
HETATM   28  C   UNK N   1      32.947  12.420   5.855  0.00  0.00     0.175 C 
BRANCH  28  29
HETATM   29  C   UNK N   1      32.805  13.817   5.350  0.00  0.00     0.029 A 
HETATM   30  N   UNK N   1      33.907  14.611   5.304  0.00  0.00    -0.367 N 
HETATM   31  C   UNK N   1      33.837  15.917   4.950  0.00  0.00     0.097 A 
ATOM     32  HN  UNK N   1      34.814  14.212   5.543  1.00  0.00     0.165 HD
HETATM   33  C   UNK N   1      32.616  16.495   4.616  0.00  0.00    -0.013 A 
HETATM   34  C   UNK N   1      32.623  17.945   4.269  0.00  0.00     0.052 C 
HETATM   35  C   UNK N   1      31.439  15.692   4.629  0.00  0.00     0.083 A 
HETATM   36  C   UNK N   1      31.552  14.338   4.998  0.00  0.00    -0.005 A 
HETATM   37  C   UNK N   1      30.333  13.471   5.047  0.00  0.00     0.053 C 
BRANCH  35  38
HETATM   38  O   UNK N   1      30.199  16.162   4.318  0.00  0.00    -0.355 OA
HETATM   39  C   UNK N   1      29.691  16.358   3.056  0.00  0.00     0.210 C 
ENDBRANCH  35  38
ENDBRANCH  28  29
ENDBRANCH  26  28
ENDBRANCH   1  26
BRANCH   6  40
HETATM   40  O   UNK N   1      34.385  10.359  13.778  0.00  0.00    -0.356 OA
HETATM   41  C   UNK N   1      33.642  10.766  14.863  0.00  0.00     0.210 C 
ENDBRANCH   6  40
TORSDOF 11
ENDMDL
