MODEL 1
REMARK VINA RESULT:      -6.5      0.000      0.000
REMARK  1 active torsions:
REMARK  status: ('A' for Active; 'I' for Inactive)
REMARK    1  A    between atoms: N_17  and  C_12 
REMARK       I    between atoms: N_17  and  C_13 
ROOT
HETATM    1  C   UNK N   1      28.957  17.948   7.340  0.00  0.00     0.005 C 
HETATM    2  C   UNK N   1      29.556  17.418   8.628  0.00  0.00     0.005 C 
HETATM    3  C   UNK N   1      33.302  17.166   5.145  0.00  0.00     0.003 A 
HETATM    4  C   UNK N   1      29.654  17.315   6.139  0.00  0.00     0.039 C 
HETATM    5  C   UNK N   1      31.910  17.129   5.093  0.00  0.00     0.008 A 
HETATM    6  C   UNK N   1      31.017  17.840   8.742  0.00  0.00     0.041 C 
HETATM    7  C   UNK N   1      33.950  17.427   6.353  0.00  0.00     0.030 A 
HETATM    8  C   UNK N   1      31.153  17.356   6.245  0.00  0.00    -0.050 A 
HETATM    9  C   UNK N   1      31.805  17.614   7.475  0.00  0.00    -0.025 A 
HETATM   10  C   UNK N   1      33.211  17.653   7.525  0.00  0.00     0.056 A 
ENDROOT
BRANCH  10  11
HETATM   11  N   UNK N   1      33.854  17.884   8.774  0.00  0.00    -0.192 N 
HETATM   12  C   UNK N   1      34.653  16.948   9.486  0.00  0.00     0.674 A 
HETATM   13  N   UNK N   1      35.058  17.172  10.666  0.00  0.00    -0.225 N 
HETATM   14  N   UNK N   1      35.040  15.705   8.994  0.00  0.00    -0.225 N 
HETATM   15  C   UNK N   1      35.820  16.054  11.173  0.00  0.00     0.158 A 
ATOM     16  HN  UNK N   1      34.874  18.029  11.188  1.00  0.00     0.177 HD
HETATM   17  C   UNK N   1      35.808  15.031  10.006  0.00  0.00     0.158 A 
HETATM   18  H   UNK N   1      34.824  15.347   8.103  0.00  0.00     0.177 HD
HETATM   19  H   UNK N   1      33.734  18.773   9.183  0.00  0.00     0.184 HD
ENDBRANCH  10  11
TORSDOF 1
ENDMDL
MODEL 2
REMARK VINA RESULT:      -6.5      0.959      2.832
REMARK  1 active torsions:
REMARK  status: ('A' for Active; 'I' for Inactive)
REMARK    1  A    between atoms: N_17  and  C_12 
REMARK       I    between atoms: N_17  and  C_13 
ROOT
HETATM    1  C   UNK N   1      32.019  16.554   3.812  0.00  0.00     0.005 C 
HETATM    2  C   UNK N   1      33.100  17.506   4.286  0.00  0.00     0.005 C 
HETATM    3  C   UNK N   1      29.631  17.358   8.051  0.00  0.00     0.003 A 
HETATM    4  C   UNK N   1      30.679  16.930   4.440  0.00  0.00     0.039 C 
HETATM    5  C   UNK N   1      29.591  17.164   6.671  0.00  0.00     0.008 A 
HETATM    6  C   UNK N   1      33.306  17.362   5.789  0.00  0.00     0.041 C 
HETATM    7  C   UNK N   1      30.855  17.545   8.694  0.00  0.00     0.030 A 
HETATM    8  C   UNK N   1      30.771  17.151   5.924  0.00  0.00    -0.050 A 
HETATM    9  C   UNK N   1      32.015  17.348   6.571  0.00  0.00    -0.025 A 
HETATM   10  C   UNK N   1      32.054  17.541   7.965  0.00  0.00     0.056 A 
ENDROOT
BRANCH  10  11
HETATM   11  N   UNK N   1      33.309  17.767   8.598  0.00  0.00    -0.192 N 
HETATM   12  C   UNK N   1      33.944  16.896   9.524  0.00  0.00     0.674 A 
HETATM   13  N   UNK N   1      34.981  17.240  10.167  0.00  0.00    -0.225 N 
HETATM   14  N   UNK N   1      33.493  15.618   9.843  0.00  0.00    -0.225 N 
HETATM   15  C   UNK N   1      35.407  16.190  11.064  0.00  0.00     0.158 A 
ATOM     16  HN  UNK N   1      35.454  18.138  10.064  1.00  0.00     0.177 HD
HETATM   17  C   UNK N   1      34.370  15.058  10.836  0.00  0.00     0.158 A 
HETATM   18  H   UNK N   1      32.706  15.173   9.455  0.00  0.00     0.177 HD
HETATM   19  H   UNK N   1      33.779  18.604   8.376  0.00  0.00     0.184 HD
ENDBRANCH  10  11
TORSDOF 1
ENDMDL
MODEL 3
REMARK VINA RESULT:      -6.2      6.293     10.447
REMARK  1 active torsions:
REMARK  status: ('A' for Active; 'I' for Inactive)
REMARK    1  A    between atoms: N_17  and  C_12 
REMARK       I    between atoms: N_17  and  C_13 
ROOT
HETATM    1  C   UNK N   1      35.741   8.997  17.072  0.00  0.00     0.005 C 
HETATM    2  C   UNK N   1      35.728   9.197  15.569  0.00  0.00     0.005 C 
HETATM    3  C   UNK N   1      35.440  13.890  17.600  0.00  0.00     0.003 A 
HETATM    4  C   UNK N   1      34.992  10.136  17.758  0.00  0.00     0.039 C 
HETATM    5  C   UNK N   1      35.066  12.615  18.020  0.00  0.00     0.008 A 
HETATM    6  C   UNK N   1      36.494  10.463  15.200  0.00  0.00     0.041 C 
HETATM    7  C   UNK N   1      36.156  14.053  16.414  0.00  0.00     0.030 A 
HETATM    8  C   UNK N   1      35.409  11.492  17.261  0.00  0.00    -0.050 A 
HETATM    9  C   UNK N   1      36.129  11.653  16.054  0.00  0.00    -0.025 A 
HETATM   10  C   UNK N   1      36.507  12.941  15.632  0.00  0.00     0.056 A 
ENDROOT
BRANCH  10  11
HETATM   11  N   UNK N   1      37.205  13.091  14.400  0.00  0.00    -0.192 N 
HETATM   12  C   UNK N   1      36.633  13.484  13.160  0.00  0.00     0.674 A 
HETATM   13  N   UNK N   1      37.286  13.439  12.075  0.00  0.00    -0.225 N 
HETATM   14  N   UNK N   1      35.320  13.918  12.999  0.00  0.00    -0.225 N 
HETATM   15  C   UNK N   1      36.468  13.858  10.960  0.00  0.00     0.158 A 
ATOM     16  HN  UNK N   1      38.261  13.148  11.999  1.00  0.00     0.177 HD
HETATM   17  C   UNK N   1      35.098  14.193  11.605  0.00  0.00     0.158 A 
HETATM   18  H   UNK N   1      34.656  14.019  13.717  0.00  0.00     0.177 HD
HETATM   19  H   UNK N   1      38.173  12.905  14.408  0.00  0.00     0.184 HD
ENDBRANCH  10  11
TORSDOF 1
ENDMDL
MODEL 4
REMARK VINA RESULT:      -6.2      6.828     10.679
REMARK  1 active torsions:
REMARK  status: ('A' for Active; 'I' for Inactive)
REMARK    1  A    between atoms: N_17  and  C_12 
REMARK       I    between atoms: N_17  and  C_13 
ROOT
HETATM    1  C   UNK N   1      35.030  13.053  19.142  0.00  0.00     0.005 C 
HETATM    2  C   UNK N   1      35.355  13.870  17.907  0.00  0.00     0.005 C 
HETATM    3  C   UNK N   1      35.428   8.977  16.395  0.00  0.00     0.003 A 
HETATM    4  C   UNK N   1      35.673  11.672  19.040  0.00  0.00     0.039 C 
HETATM    5  C   UNK N   1      35.654   9.635  17.603  0.00  0.00     0.008 A 
HETATM    6  C   UNK N   1      34.734  13.227  16.672  0.00  0.00     0.041 C 
HETATM    7  C   UNK N   1      34.973   9.691  15.286  0.00  0.00     0.030 A 
HETATM    8  C   UNK N   1      35.424  11.008  17.714  0.00  0.00    -0.050 A 
HETATM    9  C   UNK N   1      34.969  11.738  16.590  0.00  0.00    -0.025 A 
HETATM   10  C   UNK N   1      34.740  11.073  15.372  0.00  0.00     0.056 A 
ENDROOT
BRANCH  10  11
HETATM   11  N   UNK N   1      34.311  11.825  14.241  0.00  0.00    -0.192 N 
HETATM   12  C   UNK N   1      35.154  12.377  13.239  0.00  0.00     0.674 A 
HETATM   13  N   UNK N   1      34.714  13.169  12.353  0.00  0.00    -0.225 N 
HETATM   14  N   UNK N   1      36.523  12.144  13.143  0.00  0.00    -0.225 N 
HETATM   15  C   UNK N   1      35.777  13.612  11.480  0.00  0.00     0.158 A 
ATOM     16  HN  UNK N   1      33.738  13.454  12.266  1.00  0.00     0.177 HD
HETATM   17  C   UNK N   1      37.038  12.896  12.030  0.00  0.00     0.158 A 
HETATM   18  H   UNK N   1      37.050  11.563  13.737  0.00  0.00     0.177 HD
HETATM   19  H   UNK N   1      33.342  11.976  14.144  0.00  0.00     0.184 HD
ENDBRANCH  10  11
TORSDOF 1
ENDMDL
MODEL 5
REMARK VINA RESULT:      -6.1      6.509      8.758
REMARK  1 active torsions:
REMARK  status: ('A' for Active; 'I' for Inactive)
REMARK    1  A    between atoms: N_17  and  C_12 
REMARK       I    between atoms: N_17  and  C_13 
ROOT
HETATM    1  C   UNK N   1      34.530  10.150  15.267  0.00  0.00     0.005 C 
HETATM    2  C   UNK N   1      33.743  10.711  14.098  0.00  0.00     0.005 C 
HETATM    3  C   UNK N   1      36.750  14.530  15.714  0.00  0.00     0.003 A 
HETATM    4  C   UNK N   1      34.900  11.270  16.235  0.00  0.00     0.039 C 
HETATM    5  C   UNK N   1      36.178  13.409  16.315  0.00  0.00     0.008 A 
HETATM    6  C   UNK N   1      34.612  11.669  13.292  0.00  0.00     0.041 C 
HETATM    7  C   UNK N   1      36.636  14.718  14.336  0.00  0.00     0.030 A 
HETATM    8  C   UNK N   1      35.492  12.467  15.545  0.00  0.00    -0.050 A 
HETATM    9  C   UNK N   1      35.367  12.657  14.148  0.00  0.00    -0.025 A 
HETATM   10  C   UNK N   1      35.947  13.788  13.543  0.00  0.00     0.056 A 
ENDROOT
BRANCH  10  11
HETATM   11  N   UNK N   1      35.788  13.982  12.141  0.00  0.00    -0.192 N 
HETATM   12  C   UNK N   1      36.788  13.777  11.152  0.00  0.00     0.674 A 
HETATM   13  N   UNK N   1      36.620  14.125   9.945  0.00  0.00    -0.225 N 
HETATM   14  N   UNK N   1      38.039  13.218  11.399  0.00  0.00    -0.225 N 
HETATM   15  C   UNK N   1      37.795  13.838   9.155  0.00  0.00     0.158 A 
ATOM     16  HN  UNK N   1      35.767  14.549   9.579  1.00  0.00     0.177 HD
HETATM   17  C   UNK N   1      38.784  13.204  10.169  0.00  0.00     0.158 A 
HETATM   18  H   UNK N   1      38.359  12.889  12.269  0.00  0.00     0.177 HD
HETATM   19  H   UNK N   1      34.904  14.287  11.828  0.00  0.00     0.184 HD
ENDBRANCH  10  11
TORSDOF 1
ENDMDL
MODEL 6
REMARK VINA RESULT:      -6.1      6.328     10.381
REMARK  1 active torsions:
REMARK  status: ('A' for Active; 'I' for Inactive)
REMARK    1  A    between atoms: N_17  and  C_12 
REMARK       I    between atoms: N_17  and  C_13 
ROOT
HETATM    1  C   UNK N   1      34.869  10.336  17.899  0.00  0.00     0.005 C 
HETATM    2  C   UNK N   1      35.271  11.792  18.034  0.00  0.00     0.005 C 
HETATM    3  C   UNK N   1      38.313   9.842  14.405  0.00  0.00     0.003 A 
HETATM    4  C   UNK N   1      36.060   9.507  17.427  0.00  0.00     0.039 C 
HETATM    5  C   UNK N   1      37.644   9.318  15.510  0.00  0.00     0.008 A 
HETATM    6  C   UNK N   1      35.644  12.364  16.671  0.00  0.00     0.041 C 
HETATM    7  C   UNK N   1      38.114  11.171  14.033  0.00  0.00     0.030 A 
HETATM    8  C   UNK N   1      36.767  10.117  16.249  0.00  0.00    -0.050 A 
HETATM    9  C   UNK N   1      36.567  11.468  15.879  0.00  0.00    -0.025 A 
HETATM   10  C   UNK N   1      37.242  11.995  14.763  0.00  0.00     0.056 A 
ENDROOT
BRANCH  10  11
HETATM   11  N   UNK N   1      37.054  13.364  14.420  0.00  0.00    -0.192 N 
HETATM   12  C   UNK N   1      36.306  13.852  13.315  0.00  0.00     0.674 A 
HETATM   13  N   UNK N   1      36.319  15.076  12.983  0.00  0.00    -0.225 N 
HETATM   14  N   UNK N   1      35.527  13.059  12.477  0.00  0.00    -0.225 N 
HETATM   15  C   UNK N   1      35.506  15.303  11.810  0.00  0.00     0.158 A 
ATOM     16  HN  UNK N   1      36.833  15.804  13.480  1.00  0.00     0.177 HD
HETATM   17  C   UNK N   1      34.953  13.897  11.459  0.00  0.00     0.158 A 
HETATM   18  H   UNK N   1      35.392  12.089  12.567  0.00  0.00     0.177 HD
HETATM   19  H   UNK N   1      37.482  14.034  15.003  0.00  0.00     0.184 HD
ENDBRANCH  10  11
TORSDOF 1
ENDMDL
MODEL 7
REMARK VINA RESULT:      -5.9      3.532      6.263
REMARK  1 active torsions:
REMARK  status: ('A' for Active; 'I' for Inactive)
REMARK    1  A    between atoms: N_17  and  C_12 
REMARK       I    between atoms: N_17  and  C_13 
ROOT
HETATM    1  C   UNK N   1      33.292  17.208   8.199  0.00  0.00     0.005 C 
HETATM    2  C   UNK N   1      31.931  17.848   8.385  0.00  0.00     0.005 C 
HETATM    3  C   UNK N   1      32.428  17.072   3.347  0.00  0.00     0.003 A 
HETATM    4  C   UNK N   1      33.849  17.553   6.821  0.00  0.00     0.039 C 
HETATM    5  C   UNK N   1      33.317  17.281   4.400  0.00  0.00     0.008 A 
HETATM    6  C   UNK N   1      30.934  17.263   7.390  0.00  0.00     0.041 C 
HETATM    7  C   UNK N   1      31.065  16.919   3.603  0.00  0.00     0.030 A 
HETATM    8  C   UNK N   1      32.852  17.335   5.717  0.00  0.00    -0.050 A 
HETATM    9  C   UNK N   1      31.470  17.187   5.981  0.00  0.00    -0.025 A 
HETATM   10  C   UNK N   1      30.574  16.974   4.917  0.00  0.00     0.056 A 
ENDROOT
BRANCH  10  11
HETATM   11  N   UNK N   1      29.182  16.858   5.195  0.00  0.00    -0.192 N 
HETATM   12  C   UNK N   1      28.194  17.845   4.933  0.00  0.00     0.674 A 
HETATM   13  N   UNK N   1      27.004  17.732   5.354  0.00  0.00    -0.225 N 
HETATM   14  N   UNK N   1      28.425  19.026   4.233  0.00  0.00    -0.225 N 
HETATM   15  C   UNK N   1      26.212  18.882   4.983  0.00  0.00     0.158 A 
ATOM     16  HN  UNK N   1      26.652  16.935   5.885  1.00  0.00     0.177 HD
HETATM   17  C   UNK N   1      27.202  19.783   4.199  0.00  0.00     0.158 A 
HETATM   18  H   UNK N   1      29.280  19.297   3.830  0.00  0.00     0.177 HD
HETATM   19  H   UNK N   1      28.877  16.016   5.607  0.00  0.00     0.184 HD
ENDBRANCH  10  11
TORSDOF 1
ENDMDL
MODEL 8
REMARK VINA RESULT:      -5.8     17.568     19.171
REMARK  1 active torsions:
REMARK  status: ('A' for Active; 'I' for Inactive)
REMARK    1  A    between atoms: N_17  and  C_12 
REMARK       I    between atoms: N_17  and  C_13 
ROOT
HETATM    1  C   UNK N   1      28.938  29.904  -6.816  0.00  0.00     0.005 C 
HETATM    2  C   UNK N   1      29.251  28.572  -7.470  0.00  0.00     0.005 C 
HETATM    3  C   UNK N   1      25.187  27.727  -4.468  0.00  0.00     0.003 A 
HETATM    4  C   UNK N   1      28.275  29.678  -5.460  0.00  0.00     0.039 C 
HETATM    5  C   UNK N   1      26.249  28.630  -4.451  0.00  0.00     0.008 A 
HETATM    6  C   UNK N   1      27.960  27.819  -7.773  0.00  0.00     0.041 C 
HETATM    7  C   UNK N   1      25.021  26.865  -5.552  0.00  0.00     0.030 A 
HETATM    8  C   UNK N   1      27.150  28.682  -5.518  0.00  0.00    -0.050 A 
HETATM    9  C   UNK N   1      26.990  27.804  -6.616  0.00  0.00    -0.025 A 
HETATM   10  C   UNK N   1      25.917  26.894  -6.633  0.00  0.00     0.056 A 
ENDROOT
BRANCH  10  11
HETATM   11  N   UNK N   1      25.785  25.996  -7.730  0.00  0.00    -0.192 N 
HETATM   12  C   UNK N   1      25.699  24.580  -7.643  0.00  0.00     0.674 A 
HETATM   13  N   UNK N   1      25.746  23.841  -8.671  0.00  0.00    -0.225 N 
HETATM   14  N   UNK N   1      25.591  23.868  -6.452  0.00  0.00    -0.225 N 
HETATM   15  C   UNK N   1      25.672  22.444  -8.308  0.00  0.00     0.158 A 
ATOM     16  HN  UNK N   1      25.823  24.185  -9.628  1.00  0.00     0.177 HD
HETATM   17  C   UNK N   1      25.563  22.463  -6.761  0.00  0.00     0.158 A 
HETATM   18  H   UNK N   1      25.543  24.260  -5.551  0.00  0.00     0.177 HD
HETATM   19  H   UNK N   1      25.751  26.393  -8.632  0.00  0.00     0.184 HD
ENDBRANCH  10  11
TORSDOF 1
ENDMDL
MODEL 9
REMARK VINA RESULT:      -5.7      4.074      7.197
REMARK  1 active torsions:
REMARK  status: ('A' for Active; 'I' for Inactive)
REMARK    1  A    between atoms: N_17  and  C_12 
REMARK       I    between atoms: N_17  and  C_13 
ROOT
HETATM    1  C   UNK N   1      32.321  16.870   5.997  0.00  0.00     0.005 C 
HETATM    2  C   UNK N   1      31.173  15.977   5.567  0.00  0.00     0.005 C 
HETATM    3  C   UNK N   1      29.438  18.635   9.588  0.00  0.00     0.003 A 
HETATM    4  C   UNK N   1      32.224  17.164   7.492  0.00  0.00     0.039 C 
HETATM    5  C   UNK N   1      30.695  18.212   9.159  0.00  0.00     0.008 A 
HETATM    6  C   UNK N   1      29.845  16.703   5.751  0.00  0.00     0.041 C 
HETATM    7  C   UNK N   1      28.321  18.439   8.774  0.00  0.00     0.030 A 
HETATM    8  C   UNK N   1      30.848  17.595   7.915  0.00  0.00    -0.050 A 
HETATM    9  C   UNK N   1      29.717  17.388   7.090  0.00  0.00    -0.025 A 
HETATM   10  C   UNK N   1      28.448  17.817   7.523  0.00  0.00     0.056 A 
ENDROOT
BRANCH  10  11
HETATM   11  N   UNK N   1      27.315  17.575   6.695  0.00  0.00    -0.192 N 
HETATM   12  C   UNK N   1      26.687  18.524   5.844  0.00  0.00     0.674 A 
HETATM   13  N   UNK N   1      25.587  18.280   5.262  0.00  0.00    -0.225 N 
HETATM   14  N   UNK N   1      27.177  19.802   5.589  0.00  0.00    -0.225 N 
HETATM   15  C   UNK N   1      25.148  19.417   4.486  0.00  0.00     0.158 A 
ATOM     16  HN  UNK N   1      25.080  17.398   5.331  1.00  0.00     0.177 HD
HETATM   17  C   UNK N   1      26.258  20.477   4.712  0.00  0.00     0.158 A 
HETATM   18  H   UNK N   1      28.012  20.179   5.947  0.00  0.00     0.177 HD
HETATM   19  H   UNK N   1      26.931  16.668   6.715  0.00  0.00     0.184 HD
ENDBRANCH  10  11
TORSDOF 1
ENDMDL
