MODEL 1
REMARK VINA RESULT:      -6.2      0.000      0.000
REMARK  4 active torsions:
REMARK  status: ('A' for Active; 'I' for Inactive)
REMARK    1  A    between atoms: C_12  and  C_9 
REMARK    2  A    between atoms: N_17  and  C_9 
REMARK    3  A    between atoms: O_18  and  C_12 
REMARK    4  A    between atoms: N_15  and  C_14 
ROOT
HETATM    1  C   UNK N   1      36.358  13.808  14.723  0.00  0.00     0.134 C 
HETATM    2  N   UNK N   1      35.276  13.341  15.252  0.00  0.00    -0.338 N 
ATOM      3  HN  UNK N   1      34.388  13.620  14.833  1.00  0.00     0.168 HD
ENDROOT
BRANCH   1   4
HETATM    4  C   UNK N   1      36.257  14.591  13.448  0.00  0.00     0.209 C 
BRANCH   4   5
HETATM    5  N   UNK N   1      35.955  13.751  12.305  0.00  0.00    -0.345 N 
HETATM    6  C   UNK N   1      36.753  12.619  11.961  0.00  0.00     0.127 A 
HETATM    7  C   UNK N   1      36.103  12.070  10.675  0.00  0.00     0.029 A 
HETATM    8  C   UNK N   1      34.888  12.960  10.358  0.00  0.00     0.104 A 
HETATM    9  C   UNK N   1      34.948  13.955  11.446  0.00  0.00     0.220 A 
HETATM   10  O   UNK N   1      34.153  14.873  11.555  0.00  0.00    -0.273 OA
ENDBRANCH   4   5
ENDBRANCH   1   4
BRANCH   1  11
HETATM   11  O   UNK N   1      37.563  13.599  15.297  0.00  0.00    -0.348 OA
HETATM   12  H   UNK N   1      38.389  14.021  15.435  0.00  0.00     0.219 HD
ENDBRANCH   1  11
BRANCH   2  13
HETATM   13  C   UNK N   1      35.228  12.465  16.379  0.00  0.00     0.045 A 
HETATM   14  C   UNK N   1      35.219  11.071  16.171  0.00  0.00    -0.035 A 
HETATM   15  C   UNK N   1      35.202  10.500  14.794  0.00  0.00     0.050 C 
HETATM   16  C   UNK N   1      35.220  10.198  17.262  0.00  0.00     0.009 A 
HETATM   17  C   UNK N   1      35.242  10.696  18.564  0.00  0.00     0.001 A 
HETATM   18  C   UNK N   1      35.270  12.071  18.784  0.00  0.00     0.009 A 
HETATM   19  C   UNK N   1      35.263  12.961  17.708  0.00  0.00    -0.035 A 
HETATM   20  C   UNK N   1      35.359  14.419  18.009  0.00  0.00     0.050 C 
ENDBRANCH   2  13
TORSDOF 4
ENDMDL
MODEL 2
REMARK VINA RESULT:      -6.1      0.128      2.044
REMARK  4 active torsions:
REMARK  status: ('A' for Active; 'I' for Inactive)
REMARK    1  A    between atoms: C_12  and  C_9 
REMARK    2  A    between atoms: N_17  and  C_9 
REMARK    3  A    between atoms: O_18  and  C_12 
REMARK    4  A    between atoms: N_15  and  C_14 
ROOT
HETATM    1  C   UNK N   1      36.364  13.684  14.687  0.00  0.00     0.134 C 
HETATM    2  N   UNK N   1      35.297  13.241  15.263  0.00  0.00    -0.338 N 
ATOM      3  HN  UNK N   1      34.398  13.558  14.898  1.00  0.00     0.168 HD
ENDROOT
BRANCH   1   4
HETATM    4  C   UNK N   1      36.224  14.498  13.436  0.00  0.00     0.209 C 
BRANCH   4   5
HETATM    5  N   UNK N   1      35.910  13.682  12.278  0.00  0.00    -0.345 N 
HETATM    6  C   UNK N   1      36.706  12.558  11.901  0.00  0.00     0.127 A 
HETATM    7  C   UNK N   1      36.043  12.037  10.610  0.00  0.00     0.029 A 
HETATM    8  C   UNK N   1      34.823  12.932  10.326  0.00  0.00     0.104 A 
HETATM    9  C   UNK N   1      34.894  13.903  11.434  0.00  0.00     0.220 A 
HETATM   10  O   UNK N   1      34.099  14.817  11.571  0.00  0.00    -0.273 OA
ENDBRANCH   4   5
ENDBRANCH   1   4
BRANCH   1  11
HETATM   11  O   UNK N   1      37.590  13.424  15.193  0.00  0.00    -0.348 OA
HETATM   12  H   UNK N   1      38.007  13.116  15.974  0.00  0.00     0.219 HD
ENDBRANCH   1  11
BRANCH   2  13
HETATM   13  C   UNK N   1      35.278  12.344  16.374  0.00  0.00     0.045 A 
HETATM   14  C   UNK N   1      35.296  12.864  17.684  0.00  0.00    -0.035 A 
HETATM   15  C   UNK N   1      35.390  14.331  17.926  0.00  0.00     0.050 C 
HETATM   16  C   UNK N   1      35.230  12.003  18.783  0.00  0.00     0.009 A 
HETATM   17  C   UNK N   1      35.134  10.624  18.594  0.00  0.00     0.001 A 
HETATM   18  C   UNK N   1      35.098  10.098  17.305  0.00  0.00     0.009 A 
HETATM   19  C   UNK N   1      35.168  10.940  16.193  0.00  0.00    -0.035 A 
HETATM   20  C   UNK N   1      35.059  10.320  14.841  0.00  0.00     0.050 C 
ENDBRANCH   2  13
TORSDOF 4
ENDMDL
MODEL 3
REMARK VINA RESULT:      -6.0     20.735     24.142
REMARK  4 active torsions:
REMARK  status: ('A' for Active; 'I' for Inactive)
REMARK    1  A    between atoms: C_12  and  C_9 
REMARK    2  A    between atoms: N_17  and  C_9 
REMARK    3  A    between atoms: O_18  and  C_12 
REMARK    4  A    between atoms: N_15  and  C_14 
ROOT
HETATM    1  C   UNK N   1      29.484  25.694  -4.289  0.00  0.00     0.134 C 
HETATM    2  N   UNK N   1      28.271  25.511  -3.885  0.00  0.00    -0.338 N 
ATOM      3  HN  UNK N   1      28.128  24.885  -3.092  1.00  0.00     0.168 HD
ENDROOT
BRANCH   1   4
HETATM    4  C   UNK N   1      30.608  25.112  -3.486  0.00  0.00     0.209 C 
BRANCH   4   5
HETATM    5  N   UNK N   1      30.733  23.679  -3.668  0.00  0.00    -0.345 N 
HETATM    6  C   UNK N   1      30.897  23.087  -4.957  0.00  0.00     0.127 A 
HETATM    7  C   UNK N   1      30.934  21.571  -4.679  0.00  0.00     0.029 A 
HETATM    8  C   UNK N   1      30.806  21.379  -3.157  0.00  0.00     0.104 A 
HETATM    9  C   UNK N   1      30.674  22.770  -2.686  0.00  0.00     0.220 A 
HETATM   10  O   UNK N   1      30.530  23.065  -1.511  0.00  0.00    -0.273 OA
ENDBRANCH   4   5
ENDBRANCH   1   4
BRANCH   1  11
HETATM   11  O   UNK N   1      29.746  26.396  -5.414  0.00  0.00    -0.348 OA
HETATM   12  H   UNK N   1      30.411  26.932  -5.801  0.00  0.00     0.219 HD
ENDBRANCH   1  11
BRANCH   2  13
HETATM   13  C   UNK N   1      27.115  26.117  -4.464  0.00  0.00     0.045 A 
HETATM   14  C   UNK N   1      26.323  25.376  -5.364  0.00  0.00    -0.035 A 
HETATM   15  C   UNK N   1      26.705  23.992  -5.762  0.00  0.00     0.050 C 
HETATM   16  C   UNK N   1      25.161  25.935  -5.903  0.00  0.00     0.009 A 
HETATM   17  C   UNK N   1      24.769  27.225  -5.548  0.00  0.00     0.001 A 
HETATM   18  C   UNK N   1      25.532  27.963  -4.645  0.00  0.00     0.009 A 
HETATM   19  C   UNK N   1      26.700  27.425  -4.099  0.00  0.00    -0.035 A 
HETATM   20  C   UNK N   1      27.437  28.239  -3.091  0.00  0.00     0.050 C 
ENDBRANCH   2  13
TORSDOF 4
ENDMDL
MODEL 4
REMARK VINA RESULT:      -6.0      2.535      3.983
REMARK  4 active torsions:
REMARK  status: ('A' for Active; 'I' for Inactive)
REMARK    1  A    between atoms: C_12  and  C_9 
REMARK    2  A    between atoms: N_17  and  C_9 
REMARK    3  A    between atoms: O_18  and  C_12 
REMARK    4  A    between atoms: N_15  and  C_14 
ROOT
HETATM    1  C   UNK N   1      35.153  14.021  11.247  0.00  0.00     0.134 C 
HETATM    2  N   UNK N   1      35.677  12.994  11.829  0.00  0.00    -0.338 N 
ATOM      3  HN  UNK N   1      36.575  12.660  11.477  1.00  0.00     0.168 HD
ENDROOT
BRANCH   1   4
HETATM    4  C   UNK N   1      35.953  14.747  10.207  0.00  0.00     0.209 C 
BRANCH   4   5
HETATM    5  N   UNK N   1      35.126  15.582   9.358  0.00  0.00    -0.345 N 
HETATM    6  C   UNK N   1      34.411  15.058   8.239  0.00  0.00     0.127 A 
HETATM    7  C   UNK N   1      33.726  16.289   7.612  0.00  0.00     0.029 A 
HETATM    8  C   UNK N   1      34.093  17.509   8.476  0.00  0.00     0.104 A 
HETATM    9  C   UNK N   1      34.972  16.906   9.495  0.00  0.00     0.220 A 
HETATM   10  O   UNK N   1      35.504  17.551  10.383  0.00  0.00    -0.273 OA
ENDBRANCH   4   5
ENDBRANCH   1   4
BRANCH   1  11
HETATM   11  O   UNK N   1      33.908  14.442  11.562  0.00  0.00    -0.348 OA
HETATM   12  H   UNK N   1      33.369  14.638  12.303  0.00  0.00     0.219 HD
ENDBRANCH   1  11
BRANCH   2  13
HETATM   13  C   UNK N   1      35.097  12.292  12.929  0.00  0.00     0.045 A 
HETATM   14  C   UNK N   1      34.362  11.114  12.686  0.00  0.00    -0.035 A 
HETATM   15  C   UNK N   1      34.136  10.623  11.298  0.00  0.00     0.050 C 
HETATM   16  C   UNK N   1      33.827  10.386  13.753  0.00  0.00     0.009 A 
HETATM   17  C   UNK N   1      34.025  10.812  15.066  0.00  0.00     0.001 A 
HETATM   18  C   UNK N   1      34.764  11.965  15.322  0.00  0.00     0.009 A 
HETATM   19  C   UNK N   1      35.303  12.709  14.270  0.00  0.00    -0.035 A 
HETATM   20  C   UNK N   1      36.138  13.897  14.612  0.00  0.00     0.050 C 
ENDBRANCH   2  13
TORSDOF 4
ENDMDL
MODEL 5
REMARK VINA RESULT:      -6.0      2.464      4.334
REMARK  4 active torsions:
REMARK  status: ('A' for Active; 'I' for Inactive)
REMARK    1  A    between atoms: C_12  and  C_9 
REMARK    2  A    between atoms: N_17  and  C_9 
REMARK    3  A    between atoms: O_18  and  C_12 
REMARK    4  A    between atoms: N_15  and  C_14 
ROOT
HETATM    1  C   UNK N   1      35.177  13.916  11.319  0.00  0.00     0.134 C 
HETATM    2  N   UNK N   1      35.721  12.891  11.885  0.00  0.00    -0.338 N 
ATOM      3  HN  UNK N   1      36.586  12.532  11.480  1.00  0.00     0.168 HD
ENDROOT
BRANCH   1   4
HETATM    4  C   UNK N   1      35.918  14.607  10.213  0.00  0.00     0.209 C 
BRANCH   4   5
HETATM    5  N   UNK N   1      35.062  15.484   9.438  0.00  0.00    -0.345 N 
HETATM    6  C   UNK N   1      34.264  15.007   8.355  0.00  0.00     0.127 A 
HETATM    7  C   UNK N   1      33.574  16.271   7.803  0.00  0.00     0.029 A 
HETATM    8  C   UNK N   1      34.028  17.459   8.670  0.00  0.00     0.104 A 
HETATM    9  C   UNK N   1      34.953  16.807   9.617  0.00  0.00     0.220 A 
HETATM   10  O   UNK N   1      35.557  17.416  10.484  0.00  0.00    -0.273 OA
ENDBRANCH   4   5
ENDBRANCH   1   4
BRANCH   1  11
HETATM   11  O   UNK N   1      33.965  14.367  11.707  0.00  0.00    -0.348 OA
HETATM   12  H   UNK N   1      33.349  15.053  11.531  0.00  0.00     0.219 HD
ENDBRANCH   1  11
BRANCH   2  13
HETATM   13  C   UNK N   1      35.204  12.221  13.035  0.00  0.00     0.045 A 
HETATM   14  C   UNK N   1      35.461  12.749  14.317  0.00  0.00    -0.035 A 
HETATM   15  C   UNK N   1      36.308  13.962  14.492  0.00  0.00     0.050 C 
HETATM   16  C   UNK N   1      34.923  12.134  15.451  0.00  0.00     0.009 A 
HETATM   17  C   UNK N   1      34.119  11.002  15.325  0.00  0.00     0.001 A 
HETATM   18  C   UNK N   1      33.842  10.480  14.063  0.00  0.00     0.009 A 
HETATM   19  C   UNK N   1      34.374  11.075  12.918  0.00  0.00    -0.035 A 
HETATM   20  C   UNK N   1      33.988  10.507  11.594  0.00  0.00     0.050 C 
ENDBRANCH   2  13
TORSDOF 4
ENDMDL
MODEL 6
REMARK VINA RESULT:      -5.9     20.704     24.179
REMARK  4 active torsions:
REMARK  status: ('A' for Active; 'I' for Inactive)
REMARK    1  A    between atoms: C_12  and  C_9 
REMARK    2  A    between atoms: N_17  and  C_9 
REMARK    3  A    between atoms: O_18  and  C_12 
REMARK    4  A    between atoms: N_15  and  C_14 
ROOT
HETATM    1  C   UNK N   1      29.483  25.597  -4.325  0.00  0.00     0.134 C 
HETATM    2  N   UNK N   1      28.307  25.501  -3.800  0.00  0.00    -0.338 N 
ATOM      3  HN  UNK N   1      28.224  24.991  -2.920  1.00  0.00     0.168 HD
ENDROOT
BRANCH   1   4
HETATM    4  C   UNK N   1      30.664  25.100  -3.546  0.00  0.00     0.209 C 
BRANCH   4   5
HETATM    5  N   UNK N   1      30.868  23.673  -3.701  0.00  0.00    -0.345 N 
HETATM    6  C   UNK N   1      31.144  23.077  -4.969  0.00  0.00     0.127 A 
HETATM    7  C   UNK N   1      31.233  21.567  -4.670  0.00  0.00     0.029 A 
HETATM    8  C   UNK N   1      31.013  21.384  -3.158  0.00  0.00     0.104 A 
HETATM    9  C   UNK N   1      30.786  22.772  -2.714  0.00  0.00     0.220 A 
HETATM   10  O   UNK N   1      30.550  23.071  -1.555  0.00  0.00    -0.273 OA
ENDBRANCH   4   5
ENDBRANCH   1   4
BRANCH   1  11
HETATM   11  O   UNK N   1      29.658  26.134  -5.552  0.00  0.00    -0.348 OA
HETATM   12  H   UNK N   1      29.733  25.887  -6.454  0.00  0.00     0.219 HD
ENDBRANCH   1  11
BRANCH   2  13
HETATM   13  C   UNK N   1      27.114  26.052  -4.358  0.00  0.00     0.045 A 
HETATM   14  C   UNK N   1      26.797  27.404  -4.112  0.00  0.00    -0.035 A 
HETATM   15  C   UNK N   1      27.657  28.247  -3.235  0.00  0.00     0.050 C 
HETATM   16  C   UNK N   1      25.658  27.974  -4.688  0.00  0.00     0.009 A 
HETATM   17  C   UNK N   1      24.834  27.218  -5.519  0.00  0.00     0.001 A 
HETATM   18  C   UNK N   1      25.145  25.886  -5.786  0.00  0.00     0.009 A 
HETATM   19  C   UNK N   1      26.275  25.295  -5.216  0.00  0.00    -0.035 A 
HETATM   20  C   UNK N   1      26.588  23.886  -5.591  0.00  0.00     0.050 C 
ENDBRANCH   2  13
TORSDOF 4
ENDMDL
MODEL 7
REMARK VINA RESULT:      -5.8      3.413      5.572
REMARK  4 active torsions:
REMARK  status: ('A' for Active; 'I' for Inactive)
REMARK    1  A    between atoms: C_12  and  C_9 
REMARK    2  A    between atoms: N_17  and  C_9 
REMARK    3  A    between atoms: O_18  and  C_12 
REMARK    4  A    between atoms: N_15  and  C_14 
ROOT
HETATM    1  C   UNK N   1      36.011  15.887  10.939  0.00  0.00     0.134 C 
HETATM    2  N   UNK N   1      35.439  14.895  11.536  0.00  0.00    -0.338 N 
ATOM      3  HN  UNK N   1      34.479  15.028  11.857  1.00  0.00     0.168 HD
ENDROOT
BRANCH   1   4
HETATM    4  C   UNK N   1      35.194  17.102  10.616  0.00  0.00     0.209 C 
BRANCH   4   5
HETATM    5  N   UNK N   1      34.618  17.044   9.287  0.00  0.00    -0.345 N 
HETATM    6  C   UNK N   1      33.922  15.892   8.809  0.00  0.00     0.127 A 
HETATM    7  C   UNK N   1      33.538  16.252   7.360  0.00  0.00     0.029 A 
HETATM    8  C   UNK N   1      34.047  17.679   7.090  0.00  0.00     0.104 A 
HETATM    9  C   UNK N   1      34.702  18.015   8.368  0.00  0.00     0.220 A 
HETATM   10  O   UNK N   1      35.262  19.079   8.571  0.00  0.00    -0.273 OA
ENDBRANCH   4   5
ENDBRANCH   1   4
BRANCH   1  11
HETATM   11  O   UNK N   1      37.320  15.841  10.607  0.00  0.00    -0.348 OA
HETATM   12  H   UNK N   1      38.153  15.586  10.953  0.00  0.00     0.219 HD
ENDBRANCH   1  11
BRANCH   2  13
HETATM   13  C   UNK N   1      36.046  13.626  11.782  0.00  0.00     0.045 A 
HETATM   14  C   UNK N   1      36.547  13.336  13.067  0.00  0.00    -0.035 A 
HETATM   15  C   UNK N   1      36.501  14.352  14.156  0.00  0.00     0.050 C 
HETATM   16  C   UNK N   1      37.102  12.083  13.339  0.00  0.00     0.009 A 
HETATM   17  C   UNK N   1      37.155  11.105  12.347  0.00  0.00     0.001 A 
HETATM   18  C   UNK N   1      36.648  11.371  11.077  0.00  0.00     0.009 A 
HETATM   19  C   UNK N   1      36.094  12.619  10.782  0.00  0.00    -0.035 A 
HETATM   20  C   UNK N   1      35.511  12.820   9.425  0.00  0.00     0.050 C 
ENDBRANCH   2  13
TORSDOF 4
ENDMDL
MODEL 8
REMARK VINA RESULT:      -5.5      9.828     13.450
REMARK  4 active torsions:
REMARK  status: ('A' for Active; 'I' for Inactive)
REMARK    1  A    between atoms: C_12  and  C_9 
REMARK    2  A    between atoms: N_17  and  C_9 
REMARK    3  A    between atoms: O_18  and  C_12 
REMARK    4  A    between atoms: N_15  and  C_14 
ROOT
HETATM    1  C   UNK N   1      29.307  17.289   5.311  0.00  0.00     0.134 C 
HETATM    2  N   UNK N   1      28.046  17.388   5.573  0.00  0.00    -0.338 N 
ATOM      3  HN  UNK N   1      27.644  16.708   6.219  1.00  0.00     0.168 HD
ENDROOT
BRANCH   1   4
HETATM    4  C   UNK N   1      30.127  16.296   6.079  0.00  0.00     0.209 C 
BRANCH   4   5
HETATM    5  N   UNK N   1      31.296  16.900   6.690  0.00  0.00    -0.345 N 
HETATM    6  C   UNK N   1      31.276  17.422   8.019  0.00  0.00     0.127 A 
HETATM    7  C   UNK N   1      32.691  17.999   8.224  0.00  0.00     0.029 A 
HETATM    8  C   UNK N   1      33.487  17.735   6.933  0.00  0.00     0.104 A 
HETATM    9  C   UNK N   1      32.479  17.068   6.086  0.00  0.00     0.220 A 
HETATM   10  O   UNK N   1      32.705  16.700   4.946  0.00  0.00    -0.273 OA
ENDBRANCH   4   5
ENDBRANCH   1   4
BRANCH   1  11
HETATM   11  O   UNK N   1      29.886  18.061   4.366  0.00  0.00    -0.348 OA
HETATM   12  H   UNK N   1      29.782  18.884   3.930  0.00  0.00     0.219 HD
ENDBRANCH   1  11
BRANCH   2  13
HETATM   13  C   UNK N   1      27.172  18.377   5.028  0.00  0.00     0.045 A 
HETATM   14  C   UNK N   1      26.383  18.057   3.904  0.00  0.00    -0.035 A 
HETATM   15  C   UNK N   1      26.488  16.725   3.245  0.00  0.00     0.050 C 
HETATM   16  C   UNK N   1      25.487  18.995   3.385  0.00  0.00     0.009 A 
HETATM   17  C   UNK N   1      25.356  20.250   3.979  0.00  0.00     0.001 A 
HETATM   18  C   UNK N   1      26.116  20.573   5.101  0.00  0.00     0.009 A 
HETATM   19  C   UNK N   1      27.022  19.652   5.632  0.00  0.00    -0.035 A 
HETATM   20  C   UNK N   1      27.759  20.034   6.871  0.00  0.00     0.050 C 
ENDBRANCH   2  13
TORSDOF 4
ENDMDL
MODEL 9
REMARK VINA RESULT:      -5.5     21.616     23.954
REMARK  4 active torsions:
REMARK  status: ('A' for Active; 'I' for Inactive)
REMARK    1  A    between atoms: C_12  and  C_9 
REMARK    2  A    between atoms: N_17  and  C_9 
REMARK    3  A    between atoms: O_18  and  C_12 
REMARK    4  A    between atoms: N_15  and  C_14 
ROOT
HETATM    1  C   UNK N   1      28.278  24.166  -4.279  0.00  0.00     0.134 C 
HETATM    2  N   UNK N   1      29.357  24.213  -3.571  0.00  0.00    -0.338 N 
ATOM      3  HN  UNK N   1      29.272  24.524  -2.602  1.00  0.00     0.168 HD
ENDROOT
BRANCH   1   4
HETATM    4  C   UNK N   1      26.962  24.415  -3.604  0.00  0.00     0.209 C 
BRANCH   4   5
HETATM    5  N   UNK N   1      26.271  25.568  -4.150  0.00  0.00    -0.345 N 
HETATM    6  C   UNK N   1      26.356  26.861  -3.549  0.00  0.00     0.127 A 
HETATM    7  C   UNK N   1      25.440  27.746  -4.419  0.00  0.00     0.029 A 
HETATM    8  C   UNK N   1      24.874  26.859  -5.542  0.00  0.00     0.104 A 
HETATM    9  C   UNK N   1      25.468  25.548  -5.222  0.00  0.00     0.220 A 
HETATM   10  O   UNK N   1      25.253  24.541  -5.876  0.00  0.00    -0.273 OA
ENDBRANCH   4   5
ENDBRANCH   1   4
BRANCH   1  11
HETATM   11  O   UNK N   1      28.322  23.899  -5.602  0.00  0.00    -0.348 OA
HETATM   12  H   UNK N   1      27.906  23.370  -6.255  0.00  0.00     0.219 HD
ENDBRANCH   1  11
BRANCH   2  13
HETATM   13  C   UNK N   1      30.660  23.863  -4.040  0.00  0.00     0.045 A 
HETATM   14  C   UNK N   1      31.538  24.881  -4.463  0.00  0.00    -0.035 A 
HETATM   15  C   UNK N   1      31.109  26.308  -4.480  0.00  0.00     0.050 C 
HETATM   16  C   UNK N   1      32.833  24.562  -4.881  0.00  0.00     0.009 A 
HETATM   17  C   UNK N   1      33.272  23.239  -4.871  0.00  0.00     0.001 A 
HETATM   18  C   UNK N   1      32.420  22.225  -4.438  0.00  0.00     0.009 A 
HETATM   19  C   UNK N   1      31.120  22.521  -4.023  0.00  0.00    -0.035 A 
HETATM   20  C   UNK N   1      30.280  21.400  -3.510  0.00  0.00     0.050 C 
ENDBRANCH   2  13
TORSDOF 4
ENDMDL
