REMARK  16 active torsions:
REMARK  status: ('A' for Active; 'I' for Inactive)
REMARK    1  A    between atoms: C_18  and  C_5 
REMARK    2  A    between atoms: C_19  and  C_6 
REMARK    3  A    between atoms: N_31  and  C_7 
REMARK    4  A    between atoms: N_31  and  C_8 
REMARK    5  A    between atoms: N_32  and  C_18 
REMARK    6  A    between atoms: N_32  and  C_19 
REMARK    7  A    between atoms: C_21  and  C_20 
REMARK    8  A    between atoms: N_31  and  C_20 
REMARK    9  A    between atoms: O_35  and  C_21 
REMARK   10  A    between atoms: C_23  and  C_22 
REMARK   11  A    between atoms: C_26  and  C_22 
REMARK   12  A    between atoms: C_27  and  C_24 
REMARK   13  A    between atoms: O_35  and  C_25 
REMARK   14  A    between atoms: C_28  and  C_26 
REMARK   15  A    between atoms: N_29  and  C_26 
REMARK   16  A    between atoms: O_33  and  C_27 
REMARK       I    between atoms: N_32  and  C_28 
ROOT
HETATM    1  C   UNK N   1       2.836   2.809   0.112  0.00  0.00     0.180 C 
ENDROOT
BRANCH   1   2
HETATM    2  C   UNK N   1       3.415   3.546  -1.110  0.00  0.00     0.073 C 
BRANCH   2   3
HETATM    3  C   UNK N   1       3.711   4.989  -0.854  0.00  0.00    -0.056 A 
HETATM    4  C   UNK N   1       4.791   5.355  -0.047  0.00  0.00     0.010 A 
HETATM    5  C   UNK N   1       5.080   6.698   0.185  0.00  0.00     0.037 A 
HETATM    6  C   UNK N   1       4.281   7.692  -0.382  0.00  0.00     0.068 A 
HETATM    7  C   UNK N   1       3.202   7.325  -1.208  0.00  0.00     0.037 A 
HETATM    8  C   UNK N   1       2.925   5.978  -1.449  0.00  0.00     0.010 A 
BRANCH   6   9
HETATM    9  O   UNK N   1       4.552   8.988  -0.104  0.00  0.00    -0.349 OA
BRANCH   9  10
HETATM   10  C   UNK N   1       3.677  10.014  -0.381  0.00  0.00     0.206 C 
BRANCH  10  11
HETATM   11  C   UNK N   1       2.591  10.050   0.684  0.00  0.00     0.299 C 
BRANCH  11  12
HETATM   12  N   UNK N   1       1.284   9.860   0.076  0.00  0.00     0.089 N 
BRANCH  12  13
HETATM   13  C   UNK N   1       0.413  10.879   0.640  0.00  0.00     0.268 C 
HETATM   14  C   UNK N   1       0.063  11.893  -0.429  0.00  0.00     0.037 C 
ENDBRANCH  12  13
BRANCH  12  15
HETATM   15  C   UNK N   1       0.780   8.565   0.514  0.00  0.00     0.268 C 
HETATM   16  C   UNK N   1      -0.363   8.115  -0.381  0.00  0.00     0.037 C 
ENDBRANCH  12  15
ENDBRANCH  11  12
ENDBRANCH  10  11
ENDBRANCH   9  10
ENDBRANCH   6   9
ENDBRANCH   2   3
ENDBRANCH   1   2
BRANCH   1  17
HETATM   17  C   UNK N   1       1.345   3.195   0.195  0.00  0.00     0.242 C 
HETATM   18  N   UNK N   1       0.295   2.303   0.095  0.00  0.00    -0.350 N 
HETATM   19  O   UNK N   1       1.096   4.384   0.314  0.00  0.00    -0.271 OA
BRANCH  18  20
HETATM   20  C   UNK N   1       0.485   0.874   0.036  0.00  0.00     0.125 C 
BRANCH  20  21
HETATM   21  C   UNK N   1       0.137   0.340  -1.342  0.00  0.00     0.015 C 
HETATM   22  C   UNK N   1       0.399  -1.151  -1.383  0.00  0.00     0.006 C 
ENDBRANCH  20  21
ENDBRANCH  18  20
BRANCH  18  23
HETATM   23  C   UNK N   1      -1.070   2.794  -0.036  0.00  0.00     0.125 C 
BRANCH  23  24
HETATM   24  C   UNK N   1      -1.510   3.663   1.128  0.00  0.00     0.015 C 
HETATM   25  C   UNK N   1      -2.224   4.878   0.564  0.00  0.00     0.006 C 
ENDBRANCH  23  24
ENDBRANCH  18  23
ENDBRANCH   1  17
BRANCH   1  26
HETATM   26  N   UNK N   1       3.068   1.392  -0.086  0.00  0.00    -0.357 N 
HETATM   27  C   UNK N   1       4.218   0.792  -0.154  0.00  0.00     0.146 C 
ATOM     28  HN  UNK N   1       2.240   0.803  -0.182  1.00  0.00     0.162 HD
BRANCH  27  29
HETATM   29  C   UNK N   1       5.528   1.466   0.086  0.00  0.00     0.014 A 
HETATM   30  C   UNK N   1       5.638   2.640   0.846  0.00  0.00     0.016 A 
HETATM   31  C   UNK N   1       6.883   3.240   1.058  0.00  0.00     0.001 A 
HETATM   32  C   UNK N   1       8.033   2.676   0.506  0.00  0.00     0.000 A 
HETATM   33  C   UNK N   1       7.941   1.497  -0.238  0.00  0.00     0.001 A 
HETATM   34  C   UNK N   1       6.697   0.889  -0.434  0.00  0.00     0.016 A 
ENDBRANCH  27  29
BRANCH  27  35
HETATM   35  O   UNK N   1       4.232  -0.509  -0.502  0.00  0.00    -0.346 OA
HETATM   36  H   UNK N   1       3.453  -0.971  -0.744  0.00  0.00     0.219 HD
ENDBRANCH  27  35
ENDBRANCH   1  26
TORSDOF 16
