MODEL 1
REMARK VINA RESULT:      -9.1      0.000      0.000
REMARK  3 active torsions:
REMARK  status: ('A' for Active; 'I' for Inactive)
REMARK    1  A    between atoms: C_3  and  N_30 
REMARK    2  A    between atoms: C_6  and  C_7 
REMARK       I    between atoms: C_10  and  N_24 
REMARK       I    between atoms: C_13  and  N_16 
REMARK       I    between atoms: N_30  and  C_31 
REMARK       I    between atoms: C_31  and  N_33 
REMARK    3  A    between atoms: N_33  and  C_34 
ROOT
HETATM    1  C   UNK N   1      33.172  14.781   8.628  0.00  0.00     0.146 A 
HETATM    2  N   UNK N   1      32.160  15.632   8.930  0.00  0.00    -0.175 N 
ATOM      3  HN  UNK N   1      32.112  16.057   9.857  1.00  0.00     0.186 HD
HETATM    4  C   UNK N   1      31.214  15.919   8.005  0.00  0.00     0.696 A 
HETATM    5  N   UNK N   1      31.353  15.435   6.739  0.00  0.00    -0.022 N 
ATOM      6  HN  UNK N   1      30.690  15.703   6.012  1.00  0.00     0.203 HD
HETATM    7  C   UNK N   1      32.386  14.589   6.446  0.00  0.00     0.697 A 
HETATM    8  N   UNK N   1      33.250  14.238   7.411  0.00  0.00    -0.175 N 
ATOM      9  HN  UNK N   1      33.973  13.547   7.213  1.00  0.00     0.186 HD
HETATM   10  N   UNK N   1      32.820  14.424   5.105  0.00  0.00    -0.204 N 
HETATM   11  C   UNK N   1      34.164  13.964   4.876  0.00  0.00     0.126 C 
HETATM   12  C   UNK N   1      34.216  13.887   3.363  0.00  0.00     0.030 C 
HETATM   13  C   UNK N   1      33.149  14.887   2.890  0.00  0.00     0.030 C 
HETATM   14  C   UNK N   1      32.545  15.462   4.165  0.00  0.00     0.126 C 
HETATM   15  C   UNK N   1      33.463  16.658   4.562  0.00  0.00     0.193 C 
HETATM   16  O   UNK N   1      34.396  16.329   5.592  0.00  0.00    -0.387 OA
HETATM   17  C   UNK N   1      35.110  15.138   5.267  0.00  0.00     0.193 C 
HETATM   18  N   UNK N   1      30.149  16.805   8.333  0.00  0.00    -0.213 N 
HETATM   19  C   UNK N   1      29.997  17.279   9.700  0.00  0.00     0.167 C 
HETATM   20  C   UNK N   1      29.434  18.700   9.699  0.00  0.00     0.188 C 
HETATM   21  O   UNK N   1      28.268  18.733   8.917  0.00  0.00    -0.388 OA
HETATM   22  C   UNK N   1      28.701  18.616   7.587  0.00  0.00     0.188 C 
HETATM   23  C   UNK N   1      29.168  17.180   7.334  0.00  0.00     0.167 C 
ENDROOT
BRANCH   1  24
HETATM   24  C   UNK N   1      34.333  14.677   9.476  0.00  0.00     0.009 C 
HETATM   25  C   UNK N   1      34.204  15.058  10.802  0.00  0.00     0.017 C 
HETATM   26  C   UNK N   1      35.292  14.993  11.636  0.00  0.00     0.030 C 
HETATM   27  C   UNK N   1      36.529  14.526  11.165  0.00  0.00     0.036 C 
HETATM   28  C   UNK N   1      36.685  14.208   9.814  0.00  0.00     0.030 C 
HETATM   29  C   UNK N   1      35.593  14.336   8.954  0.00  0.00     0.017 C 
BRANCH  27  30
HETATM   30  N   UNK N   1      37.327  13.873  12.123  0.00  0.00    -0.309 N 
HETATM   31  C   UNK N   1      36.636  13.113  13.019  0.00  0.00     0.325 C 
HETATM   32  O   UNK N   1      35.469  12.812  12.777  0.00  0.00    -0.247 OA
HETATM   33  N   UNK N   1      37.166  12.834  14.232  0.00  0.00    -0.309 N 
HETATM   34  H   UNK N   1      38.140  12.902  14.350  0.00  0.00     0.170 HD
HETATM   35  H   UNK N   1      38.307  13.958  12.145  0.00  0.00     0.170 HD
BRANCH  33  36
HETATM   36  C   UNK N   1      36.361  12.443  15.346  0.00  0.00     0.038 A 
HETATM   37  C   UNK N   1      36.322  11.103  15.716  0.00  0.00     0.046 A 
HETATM   38  C   UNK N   1      35.660  10.730  16.890  0.00  0.00     0.090 A 
HETATM   39  N   UNK N   1      35.068  11.671  17.676  0.00  0.00    -0.375 N 
HETATM   40  C   UNK N   1      35.092  12.987  17.345  0.00  0.00     0.090 A 
ATOM     41  HN  UNK N   1      34.596  11.380  18.533  1.00  0.00     0.164 HD
HETATM   42  C   UNK N   1      35.743  13.393  16.186  0.00  0.00     0.046 A 
ENDBRANCH  33  36
ENDBRANCH  27  30
ENDBRANCH   1  24
TORSDOF 3
ENDMDL
MODEL 2
REMARK VINA RESULT:      -9.1      3.733      6.495
REMARK  3 active torsions:
REMARK  status: ('A' for Active; 'I' for Inactive)
REMARK    1  A    between atoms: C_3  and  N_30 
REMARK    2  A    between atoms: C_6  and  C_7 
REMARK       I    between atoms: C_10  and  N_24 
REMARK       I    between atoms: C_13  and  N_16 
REMARK       I    between atoms: N_30  and  C_31 
REMARK       I    between atoms: C_31  and  N_33 
REMARK    3  A    between atoms: N_33  and  C_34 
ROOT
HETATM    1  C   UNK N   1      30.319  16.615   4.774  0.00  0.00     0.146 A 
HETATM    2  N   UNK N   1      29.851  15.492   4.173  0.00  0.00    -0.175 N 
ATOM      3  HN  UNK N   1      30.308  14.596   4.343  1.00  0.00     0.186 HD
HETATM    4  C   UNK N   1      28.781  15.559   3.347  0.00  0.00     0.696 A 
HETATM    5  N   UNK N   1      28.114  16.741   3.218  0.00  0.00    -0.022 N 
ATOM      6  HN  UNK N   1      27.262  16.790   2.659  1.00  0.00     0.203 HD
HETATM    7  C   UNK N   1      28.589  17.861   3.841  0.00  0.00     0.697 A 
HETATM    8  N   UNK N   1      29.714  17.787   4.569  0.00  0.00    -0.175 N 
ATOM      9  HN  UNK N   1      30.112  18.636   4.970  1.00  0.00     0.186 HD
HETATM   10  N   UNK N   1      27.728  18.959   4.099  0.00  0.00    -0.204 N 
HETATM   11  C   UNK N   1      28.082  19.866   5.159  0.00  0.00     0.126 C 
HETATM   12  C   UNK N   1      26.962  20.885   5.085  0.00  0.00     0.030 C 
HETATM   13  C   UNK N   1      25.792  20.126   4.441  0.00  0.00     0.030 C 
HETATM   14  C   UNK N   1      26.322  18.723   4.174  0.00  0.00     0.126 C 
HETATM   15  C   UNK N   1      26.088  17.927   5.494  0.00  0.00     0.193 C 
HETATM   16  O   UNK N   1      27.264  17.820   6.298  0.00  0.00    -0.387 OA
HETATM   17  C   UNK N   1      27.861  19.099   6.495  0.00  0.00     0.193 C 
HETATM   18  N   UNK N   1      28.301  14.380   2.711  0.00  0.00    -0.213 N 
HETATM   19  C   UNK N   1      29.051  13.139   2.830  0.00  0.00     0.167 C 
HETATM   20  C   UNK N   1      28.091  11.949   2.838  0.00  0.00     0.188 C 
HETATM   21  O   UNK N   1      27.242  12.035   1.723  0.00  0.00    -0.388 OA
HETATM   22  C   UNK N   1      26.360  13.092   1.999  0.00  0.00     0.188 C 
HETATM   23  C   UNK N   1      27.113  14.420   1.881  0.00  0.00     0.167 C 
ENDROOT
BRANCH   1  24
HETATM   24  C   UNK N   1      31.261  16.536   5.862  0.00  0.00     0.009 C 
HETATM   25  C   UNK N   1      32.363  17.375   5.829  0.00  0.00     0.017 C 
HETATM   26  C   UNK N   1      33.293  17.315   6.836  0.00  0.00     0.030 C 
HETATM   27  C   UNK N   1      33.130  16.426   7.911  0.00  0.00     0.036 C 
HETATM   28  C   UNK N   1      32.059  15.528   7.915  0.00  0.00     0.030 C 
HETATM   29  C   UNK N   1      31.151  15.548   6.856  0.00  0.00     0.017 C 
BRANCH  27  30
HETATM   30  N   UNK N   1      33.668  16.862   9.136  0.00  0.00    -0.309 N 
HETATM   31  C   UNK N   1      34.515  15.978   9.734  0.00  0.00     0.325 C 
HETATM   32  O   UNK N   1      34.974  15.046   9.075  0.00  0.00    -0.247 OA
HETATM   33  N   UNK N   1      34.720  16.022  11.071  0.00  0.00    -0.309 N 
HETATM   34  H   UNK N   1      34.518  16.855  11.553  0.00  0.00     0.170 HD
HETATM   35  H   UNK N   1      33.448  17.736   9.532  0.00  0.00     0.170 HD
BRANCH  33  36
HETATM   36  C   UNK N   1      35.217  14.902  11.805  0.00  0.00     0.038 A 
HETATM   37  C   UNK N   1      36.102  15.121  12.856  0.00  0.00     0.046 A 
HETATM   38  C   UNK N   1      36.479  14.052  13.675  0.00  0.00     0.090 A 
HETATM   39  N   UNK N   1      35.975  12.807  13.458  0.00  0.00    -0.375 N 
HETATM   40  C   UNK N   1      35.107  12.561  12.444  0.00  0.00     0.090 A 
ATOM     41  HN  UNK N   1      36.256  12.041  14.071  1.00  0.00     0.164 HD
HETATM   42  C   UNK N   1      34.710  13.601  11.612  0.00  0.00     0.046 A 
ENDBRANCH  33  36
ENDBRANCH  27  30
ENDBRANCH   1  24
TORSDOF 3
ENDMDL
MODEL 3
REMARK VINA RESULT:      -9.1      2.734      4.248
REMARK  3 active torsions:
REMARK  status: ('A' for Active; 'I' for Inactive)
REMARK    1  A    between atoms: C_3  and  N_30 
REMARK    2  A    between atoms: C_6  and  C_7 
REMARK       I    between atoms: C_10  and  N_24 
REMARK       I    between atoms: C_13  and  N_16 
REMARK       I    between atoms: N_30  and  C_31 
REMARK       I    between atoms: C_31  and  N_33 
REMARK    3  A    between atoms: N_33  and  C_34 
ROOT
HETATM    1  C   UNK N   1      30.112  16.568   6.999  0.00  0.00     0.146 A 
HETATM    2  N   UNK N   1      29.346  17.685   6.926  0.00  0.00    -0.175 N 
ATOM      3  HN  UNK N   1      29.548  18.481   7.531  1.00  0.00     0.186 HD
HETATM    4  C   UNK N   1      28.314  17.746   6.051  0.00  0.00     0.696 A 
HETATM    5  N   UNK N   1      28.126  16.721   5.172  0.00  0.00    -0.022 N 
ATOM      6  HN  UNK N   1      27.401  16.785   4.458  1.00  0.00     0.203 HD
HETATM    7  C   UNK N   1      28.915  15.608   5.249  0.00  0.00     0.697 A 
HETATM    8  N   UNK N   1      29.864  15.531   6.196  0.00  0.00    -0.175 N 
ATOM      9  HN  UNK N   1      30.400  14.670   6.303  1.00  0.00     0.186 HD
HETATM   10  N   UNK N   1      29.057  14.750   4.127  0.00  0.00    -0.204 N 
HETATM   11  C   UNK N   1      30.230  13.918   4.051  0.00  0.00     0.126 C 
HETATM   12  C   UNK N   1      29.986  13.152   2.765  0.00  0.00     0.030 C 
HETATM   13  C   UNK N   1      29.051  14.057   1.948  0.00  0.00     0.030 C 
HETATM   14  C   UNK N   1      28.808  15.279   2.825  0.00  0.00     0.126 C 
HETATM   15  C   UNK N   1      29.986  16.254   2.523  0.00  0.00     0.193 C 
HETATM   16  O   UNK N   1      31.017  16.209   3.511  0.00  0.00    -0.387 OA
HETATM   17  C   UNK N   1      31.429  14.865   3.752  0.00  0.00     0.193 C 
HETATM   18  N   UNK N   1      27.508  18.916   5.987  0.00  0.00    -0.213 N 
HETATM   19  C   UNK N   1      27.699  19.981   6.961  0.00  0.00     0.167 C 
HETATM   20  C   UNK N   1      27.415  21.336   6.314  0.00  0.00     0.188 C 
HETATM   21  O   UNK N   1      26.151  21.299   5.703  0.00  0.00    -0.388 OA
HETATM   22  C   UNK N   1      26.302  20.487   4.568  0.00  0.00     0.188 C 
HETATM   23  C   UNK N   1      26.444  19.027   5.008  0.00  0.00     0.167 C 
ENDROOT
BRANCH   1  24
HETATM   24  C   UNK N   1      31.371  16.576   7.701  0.00  0.00     0.009 C 
HETATM   25  C   UNK N   1      32.072  17.769   7.762  0.00  0.00     0.017 C 
HETATM   26  C   UNK N   1      33.284  17.812   8.405  0.00  0.00     0.030 C 
HETATM   27  C   UNK N   1      33.812  16.665   9.018  0.00  0.00     0.036 C 
HETATM   28  C   UNK N   1      33.144  15.443   8.900  0.00  0.00     0.030 C 
HETATM   29  C   UNK N   1      31.944  15.389   8.190  0.00  0.00     0.017 C 
BRANCH  27  30
HETATM   30  N   UNK N   1      34.613  16.905  10.150  0.00  0.00    -0.309 N 
HETATM   31  C   UNK N   1      35.516  15.923  10.429  0.00  0.00     0.325 C 
HETATM   32  O   UNK N   1      35.778  15.086   9.567  0.00  0.00    -0.247 OA
HETATM   33  N   UNK N   1      35.993  15.769  11.685  0.00  0.00    -0.309 N 
HETATM   34  H   UNK N   1      35.940  16.528  12.309  0.00  0.00     0.170 HD
HETATM   35  H   UNK N   1      34.528  17.718  10.698  0.00  0.00     0.170 HD
BRANCH  33  36
HETATM   36  C   UNK N   1      36.569  14.541  12.139  0.00  0.00     0.038 A 
HETATM   37  C   UNK N   1      36.293  14.101  13.429  0.00  0.00     0.046 A 
HETATM   38  C   UNK N   1      36.726  12.834  13.833  0.00  0.00     0.090 A 
HETATM   39  N   UNK N   1      37.402  12.029  12.968  0.00  0.00    -0.375 N 
HETATM   40  C   UNK N   1      37.684  12.428  11.702  0.00  0.00     0.090 A 
ATOM     41  HN  UNK N   1      37.704  11.105  13.279  1.00  0.00     0.164 HD
HETATM   42  C   UNK N   1      37.266  13.680  11.267  0.00  0.00     0.046 A 
ENDBRANCH  33  36
ENDBRANCH  27  30
ENDBRANCH   1  24
TORSDOF 3
ENDMDL
MODEL 4
REMARK VINA RESULT:      -8.9      4.878     13.598
REMARK  3 active torsions:
REMARK  status: ('A' for Active; 'I' for Inactive)
REMARK    1  A    between atoms: C_3  and  N_30 
REMARK    2  A    between atoms: C_6  and  C_7 
REMARK       I    between atoms: C_10  and  N_24 
REMARK       I    between atoms: C_13  and  N_16 
REMARK       I    between atoms: N_30  and  C_31 
REMARK       I    between atoms: C_31  and  N_33 
REMARK    3  A    between atoms: N_33  and  C_34 
ROOT
HETATM    1  C   UNK N   1      35.007  10.748  19.878  0.00  0.00     0.146 A 
HETATM    2  N   UNK N   1      33.976   9.870  19.974  0.00  0.00    -0.175 N 
ATOM      3  HN  UNK N   1      33.285   9.812  19.226  1.00  0.00     0.186 HD
HETATM    4  C   UNK N   1      33.863   9.071  21.062  0.00  0.00     0.696 A 
HETATM    5  N   UNK N   1      34.854   9.078  21.998  0.00  0.00    -0.022 N 
ATOM      6  HN  UNK N   1      34.821   8.428  22.784  1.00  0.00     0.203 HD
HETATM    7  C   UNK N   1      35.893   9.958  21.880  0.00  0.00     0.697 A 
HETATM    8  N   UNK N   1      35.924  10.813  20.845  0.00  0.00    -0.175 N 
ATOM      9  HN  UNK N   1      36.656  11.521  20.799  1.00  0.00     0.186 HD
HETATM   10  N   UNK N   1      37.122   9.711  22.546  0.00  0.00    -0.204 N 
HETATM   11  C   UNK N   1      38.313  10.333  22.028  0.00  0.00     0.126 C 
HETATM   12  C   UNK N   1      39.364   9.862  23.013  0.00  0.00     0.030 C 
HETATM   13  C   UNK N   1      38.796   8.555  23.589  0.00  0.00     0.030 C 
HETATM   14  C   UNK N   1      37.447   8.369  22.905  0.00  0.00     0.126 C 
HETATM   15  C   UNK N   1      37.752   7.626  21.569  0.00  0.00     0.193 C 
HETATM   16  O   UNK N   1      37.789   8.499  20.440  0.00  0.00    -0.387 OA
HETATM   17  C   UNK N   1      38.644   9.613  20.688  0.00  0.00     0.193 C 
HETATM   18  N   UNK N   1      32.775   8.160  21.161  0.00  0.00    -0.213 N 
HETATM   19  C   UNK N   1      31.709   8.196  20.172  0.00  0.00     0.167 C 
HETATM   20  C   UNK N   1      31.160   6.788  19.945  0.00  0.00     0.188 C 
HETATM   21  O   UNK N   1      30.813   6.224  21.184  0.00  0.00    -0.388 OA
HETATM   22  C   UNK N   1      32.030   5.937  21.823  0.00  0.00     0.188 C 
HETATM   23  C   UNK N   1      32.677   7.246  22.283  0.00  0.00     0.167 C 
ENDROOT
BRANCH   1  24
HETATM   24  C   UNK N   1      35.312  11.398  18.629  0.00  0.00     0.009 C 
HETATM   25  C   UNK N   1      35.041  12.753  18.520  0.00  0.00     0.017 C 
HETATM   26  C   UNK N   1      35.299  13.403  17.339  0.00  0.00     0.030 C 
HETATM   27  C   UNK N   1      35.853  12.716  16.247  0.00  0.00     0.036 C 
HETATM   28  C   UNK N   1      36.062  11.337  16.327  0.00  0.00     0.030 C 
HETATM   29  C   UNK N   1      35.739  10.666  17.507  0.00  0.00     0.017 C 
BRANCH  27  30
HETATM   30  N   UNK N   1      36.674  13.490  15.406  0.00  0.00    -0.309 N 
HETATM   31  C   UNK N   1      36.142  13.760  14.181  0.00  0.00     0.325 C 
HETATM   32  O   UNK N   1      34.938  13.590  13.998  0.00  0.00    -0.247 OA
HETATM   33  N   UNK N   1      36.947  14.050  13.133  0.00  0.00    -0.309 N 
HETATM   34  H   UNK N   1      37.861  14.369  13.312  0.00  0.00     0.170 HD
HETATM   35  H   UNK N   1      37.563  13.810  15.679  0.00  0.00     0.170 HD
BRANCH  33  36
HETATM   36  C   UNK N   1      36.519  13.908  11.777  0.00  0.00     0.038 A 
HETATM   37  C   UNK N   1      36.087  15.034  11.083  0.00  0.00     0.046 A 
HETATM   38  C   UNK N   1      35.807  14.937   9.717  0.00  0.00     0.090 A 
HETATM   39  N   UNK N   1      35.968  13.755   9.063  0.00  0.00    -0.375 N 
HETATM   40  C   UNK N   1      36.391  12.640   9.710  0.00  0.00     0.090 A 
ATOM     41  HN  UNK N   1      35.766  13.705   8.063  1.00  0.00     0.164 HD
HETATM   42  C   UNK N   1      36.681  12.701  11.068  0.00  0.00     0.046 A 
ENDBRANCH  33  36
ENDBRANCH  27  30
ENDBRANCH   1  24
TORSDOF 3
ENDMDL
MODEL 5
REMARK VINA RESULT:      -8.9      2.721      9.306
REMARK  3 active torsions:
REMARK  status: ('A' for Active; 'I' for Inactive)
REMARK    1  A    between atoms: C_3  and  N_30 
REMARK    2  A    between atoms: C_6  and  C_7 
REMARK       I    between atoms: C_10  and  N_24 
REMARK       I    between atoms: C_13  and  N_16 
REMARK       I    between atoms: N_30  and  C_31 
REMARK       I    between atoms: C_31  and  N_33 
REMARK    3  A    between atoms: N_33  and  C_34 
ROOT
HETATM    1  C   UNK N   1      36.003  14.703  10.395  0.00  0.00     0.146 A 
HETATM    2  N   UNK N   1      35.759  14.157  11.613  0.00  0.00    -0.175 N 
ATOM      3  HN  UNK N   1      34.858  14.310  12.068  1.00  0.00     0.186 HD
HETATM    4  C   UNK N   1      36.707  13.411  12.227  0.00  0.00     0.696 A 
HETATM    5  N   UNK N   1      37.860  13.122  11.560  0.00  0.00    -0.022 N 
ATOM      6  HN  UNK N   1      38.552  12.500  11.978  1.00  0.00     0.203 HD
HETATM    7  C   UNK N   1      38.087  13.668  10.327  0.00  0.00     0.697 A 
HETATM    8  N   UNK N   1      37.173  14.491   9.789  0.00  0.00    -0.175 N 
ATOM      9  HN  UNK N   1      37.376  14.959   8.906  1.00  0.00     0.186 HD
HETATM   10  N   UNK N   1      39.017  13.070   9.438  0.00  0.00    -0.204 N 
HETATM   11  C   UNK N   1      38.874  13.330   8.029  0.00  0.00     0.126 C 
HETATM   12  C   UNK N   1      40.048  12.565   7.450  0.00  0.00     0.030 C 
HETATM   13  C   UNK N   1      40.344  11.470   8.487  0.00  0.00     0.030 C 
HETATM   14  C   UNK N   1      39.328  11.687   9.601  0.00  0.00     0.126 C 
HETATM   15  C   UNK N   1      38.052  10.904   9.165  0.00  0.00     0.193 C 
HETATM   16  O   UNK N   1      37.050  11.744   8.590  0.00  0.00    -0.387 OA
HETATM   17  C   UNK N   1      37.603  12.562   7.561  0.00  0.00     0.193 C 
HETATM   18  N   UNK N   1      36.448  12.850  13.509  0.00  0.00    -0.213 N 
HETATM   19  C   UNK N   1      35.228  13.203  14.219  0.00  0.00     0.167 C 
HETATM   20  C   UNK N   1      34.747  12.015  15.051  0.00  0.00     0.188 C 
HETATM   21  O   UNK N   1      35.803  11.559  15.857  0.00  0.00    -0.388 OA
HETATM   22  C   UNK N   1      36.701  10.927  14.982  0.00  0.00     0.188 C 
HETATM   23  C   UNK N   1      37.423  11.989  14.149  0.00  0.00     0.167 C 
ENDROOT
BRANCH   1  24
HETATM   24  C   UNK N   1      34.934  15.254   9.601  0.00  0.00     0.009 C 
HETATM   25  C   UNK N   1      34.869  16.631   9.467  0.00  0.00     0.017 C 
HETATM   26  C   UNK N   1      33.854  17.195   8.735  0.00  0.00     0.030 C 
HETATM   27  C   UNK N   1      32.892  16.390   8.105  0.00  0.00     0.036 C 
HETATM   28  C   UNK N   1      32.911  15.006   8.294  0.00  0.00     0.030 C 
HETATM   29  C   UNK N   1      33.907  14.441   9.091  0.00  0.00     0.017 C 
BRANCH  27  30
HETATM   30  N   UNK N   1      32.359  16.914   6.912  0.00  0.00    -0.309 N 
HETATM   31  C   UNK N   1      31.057  17.309   6.994  0.00  0.00     0.325 C 
HETATM   32  O   UNK N   1      30.545  17.463   8.101  0.00  0.00    -0.247 OA
HETATM   33  N   UNK N   1      30.290  17.370   5.881  0.00  0.00    -0.309 N 
HETATM   34  H   UNK N   1      30.731  17.437   5.004  0.00  0.00     0.170 HD
HETATM   35  H   UNK N   1      32.885  16.989   6.083  0.00  0.00     0.170 HD
BRANCH  33  36
HETATM   36  C   UNK N   1      28.862  17.340   5.935  0.00  0.00     0.038 A 
HETATM   37  C   UNK N   1      28.149  18.499   5.645  0.00  0.00     0.046 A 
HETATM   38  C   UNK N   1      26.755  18.446   5.548  0.00  0.00     0.090 A 
HETATM   39  N   UNK N   1      26.097  17.267   5.724  0.00  0.00    -0.375 N 
HETATM   40  C   UNK N   1      26.763  16.119   6.005  0.00  0.00     0.090 A 
ATOM     41  HN  UNK N   1      25.080  17.247   5.642  1.00  0.00     0.164 HD
HETATM   42  C   UNK N   1      28.149  16.135   6.105  0.00  0.00     0.046 A 
ENDBRANCH  33  36
ENDBRANCH  27  30
ENDBRANCH   1  24
TORSDOF 3
ENDMDL
MODEL 6
REMARK VINA RESULT:      -8.9      2.442      5.292
REMARK  3 active torsions:
REMARK  status: ('A' for Active; 'I' for Inactive)
REMARK    1  A    between atoms: C_3  and  N_30 
REMARK    2  A    between atoms: C_6  and  C_7 
REMARK       I    between atoms: C_10  and  N_24 
REMARK       I    between atoms: C_13  and  N_16 
REMARK       I    between atoms: N_30  and  C_31 
REMARK       I    between atoms: C_31  and  N_33 
REMARK    3  A    between atoms: N_33  and  C_34 
ROOT
HETATM    1  C   UNK N   1      35.695  14.414   9.137  0.00  0.00     0.146 A 
HETATM    2  N   UNK N   1      36.303  13.747   8.123  0.00  0.00    -0.175 N 
ATOM      3  HN  UNK N   1      36.909  12.952   8.328  1.00  0.00     0.186 HD
HETATM    4  C   UNK N   1      36.108  14.135   6.841  0.00  0.00     0.696 A 
HETATM    5  N   UNK N   1      35.209  15.125   6.575  0.00  0.00    -0.022 N 
ATOM      6  HN  UNK N   1      34.995  15.376   5.610  1.00  0.00     0.203 HD
HETATM    7  C   UNK N   1      34.594  15.778   7.606  0.00  0.00     0.697 A 
HETATM    8  N   UNK N   1      34.887  15.442   8.872  0.00  0.00    -0.175 N 
ATOM      9  HN  UNK N   1      34.488  15.980   9.641  1.00  0.00     0.186 HD
HETATM   10  N   UNK N   1      33.373  16.469   7.391  0.00  0.00    -0.204 N 
HETATM   11  C   UNK N   1      32.513  16.698   8.522  0.00  0.00     0.126 C 
HETATM   12  C   UNK N   1      31.372  17.474   7.894  0.00  0.00     0.030 C 
HETATM   13  C   UNK N   1      31.393  17.062   6.414  0.00  0.00     0.030 C 
HETATM   14  C   UNK N   1      32.555  16.085   6.287  0.00  0.00     0.126 C 
HETATM   15  C   UNK N   1      31.970  14.686   6.649  0.00  0.00     0.193 C 
HETATM   16  O   UNK N   1      32.263  14.287   7.989  0.00  0.00    -0.387 OA
HETATM   17  C   UNK N   1      31.912  15.315   8.912  0.00  0.00     0.193 C 
HETATM   18  N   UNK N   1      36.757  13.438   5.783  0.00  0.00    -0.213 N 
HETATM   19  C   UNK N   1      37.742  12.413   6.091  0.00  0.00     0.167 C 
HETATM   20  C   UNK N   1      37.697  11.312   5.031  0.00  0.00     0.188 C 
HETATM   21  O   UNK N   1      37.810  11.894   3.757  0.00  0.00    -0.388 OA
HETATM   22  C   UNK N   1      36.585  12.539   3.526  0.00  0.00     0.188 C 
HETATM   23  C   UNK N   1      36.503  13.793   4.400  0.00  0.00     0.167 C 
ENDROOT
BRANCH   1  24
HETATM   24  C   UNK N   1      35.654  13.862  10.468  0.00  0.00     0.009 C 
HETATM   25  C   UNK N   1      35.027  12.639  10.643  0.00  0.00     0.017 C 
HETATM   26  C   UNK N   1      34.949  12.090  11.899  0.00  0.00     0.030 C 
HETATM   27  C   UNK N   1      35.514  12.746  13.004  0.00  0.00     0.036 C 
HETATM   28  C   UNK N   1      36.085  14.011  12.846  0.00  0.00     0.030 C 
HETATM   29  C   UNK N   1      36.105  14.595  11.579  0.00  0.00     0.017 C 
BRANCH  27  30
HETATM   30  N   UNK N   1      35.987  11.900  14.025  0.00  0.00    -0.309 N 
HETATM   31  C   UNK N   1      35.320  12.007  15.209  0.00  0.00     0.325 C 
HETATM   32  O   UNK N   1      34.227  12.569  15.234  0.00  0.00    -0.247 OA
HETATM   33  N   UNK N   1      35.922  11.653  16.368  0.00  0.00    -0.309 N 
HETATM   34  H   UNK N   1      36.693  11.042  16.334  0.00  0.00     0.170 HD
HETATM   35  H   UNK N   1      36.741  11.281  13.895  0.00  0.00     0.170 HD
BRANCH  33  36
HETATM   36  C   UNK N   1      35.478  12.134  17.638  0.00  0.00     0.038 A 
HETATM   37  C   UNK N   1      35.406  11.250  18.709  0.00  0.00     0.046 A 
HETATM   38  C   UNK N   1      35.118  11.736  19.988  0.00  0.00     0.090 A 
HETATM   39  N   UNK N   1      34.922  13.068  20.190  0.00  0.00    -0.375 N 
HETATM   40  C   UNK N   1      34.990  13.957  19.167  0.00  0.00     0.090 A 
ATOM     41  HN  UNK N   1      34.720  13.406  21.132  1.00  0.00     0.164 HD
HETATM   42  C   UNK N   1      35.277  13.508  17.884  0.00  0.00     0.046 A 
ENDBRANCH  33  36
ENDBRANCH  27  30
ENDBRANCH   1  24
TORSDOF 3
ENDMDL
MODEL 7
REMARK VINA RESULT:      -8.8      1.848      4.977
REMARK  3 active torsions:
REMARK  status: ('A' for Active; 'I' for Inactive)
REMARK    1  A    between atoms: C_3  and  N_30 
REMARK    2  A    between atoms: C_6  and  C_7 
REMARK       I    between atoms: C_10  and  N_24 
REMARK       I    between atoms: C_13  and  N_16 
REMARK       I    between atoms: N_30  and  C_31 
REMARK       I    between atoms: C_31  and  N_33 
REMARK    3  A    between atoms: N_33  and  C_34 
ROOT
HETATM    1  C   UNK N   1      35.159  15.008   7.038  0.00  0.00     0.146 A 
HETATM    2  N   UNK N   1      35.514  14.328   5.918  0.00  0.00    -0.175 N 
ATOM      3  HN  UNK N   1      36.236  13.609   5.967  1.00  0.00     0.186 HD
HETATM    4  C   UNK N   1      34.911  14.601   4.737  0.00  0.00     0.696 A 
HETATM    5  N   UNK N   1      33.871  15.482   4.709  0.00  0.00    -0.022 N 
ATOM      6  HN  UNK N   1      33.359  15.642   3.841  1.00  0.00     0.203 HD
HETATM    7  C   UNK N   1      33.516  16.150   5.848  0.00  0.00     0.697 A 
HETATM    8  N   UNK N   1      34.201  15.936   6.982  0.00  0.00    -0.175 N 
ATOM      9  HN  UNK N   1      33.987  16.490   7.811  1.00  0.00     0.186 HD
HETATM   10  N   UNK N   1      32.218  16.709   5.976  0.00  0.00    -0.204 N 
HETATM   11  C   UNK N   1      31.705  16.940   7.301  0.00  0.00     0.126 C 
HETATM   12  C   UNK N   1      30.353  17.560   7.009  0.00  0.00     0.030 C 
HETATM   13  C   UNK N   1      29.987  17.045   5.609  0.00  0.00     0.030 C 
HETATM   14  C   UNK N   1      31.160  16.172   5.183  0.00  0.00     0.126 C 
HETATM   15  C   UNK N   1      30.863  14.755   5.763  0.00  0.00     0.193 C 
HETATM   16  O   UNK N   1      31.576  14.484   6.970  0.00  0.00    -0.387 OA
HETATM   17  C   UNK N   1      31.400  15.540   7.911  0.00  0.00     0.193 C 
HETATM   18  N   UNK N   1      35.296  13.892   3.565  0.00  0.00    -0.213 N 
HETATM   19  C   UNK N   1      36.434  12.986   3.609  0.00  0.00     0.167 C 
HETATM   20  C   UNK N   1      36.201  11.812   2.659  0.00  0.00     0.188 C 
HETATM   21  O   UNK N   1      35.874  12.306   1.385  0.00  0.00    -0.388 OA
HETATM   22  C   UNK N   1      34.572  12.818   1.502  0.00  0.00     0.188 C 
HETATM   23  C   UNK N   1      34.613  14.120   2.307  0.00  0.00     0.167 C 
ENDROOT
BRANCH   1  24
HETATM   24  C   UNK N   1      35.568  14.554   8.343  0.00  0.00     0.009 C 
HETATM   25  C   UNK N   1      36.319  13.392   8.419  0.00  0.00     0.017 C 
HETATM   26  C   UNK N   1      36.711  12.917   9.646  0.00  0.00     0.030 C 
HETATM   27  C   UNK N   1      36.373  13.604  10.823  0.00  0.00     0.036 C 
HETATM   28  C   UNK N   1      35.556  14.736  10.758  0.00  0.00     0.030 C 
HETATM   29  C   UNK N   1      35.107  15.180   9.514  0.00  0.00     0.017 C 
BRANCH  27  30
HETATM   30  N   UNK N   1      37.302  13.484  11.873  0.00  0.00    -0.309 N 
HETATM   31  C   UNK N   1      36.871  12.746  12.935  0.00  0.00     0.325 C 
HETATM   32  O   UNK N   1      35.888  12.020  12.801  0.00  0.00    -0.247 OA
HETATM   33  N   UNK N   1      37.409  12.933  14.162  0.00  0.00    -0.309 N 
HETATM   34  H   UNK N   1      38.296  13.353  14.231  0.00  0.00     0.170 HD
HETATM   35  H   UNK N   1      38.193  13.902  11.845  0.00  0.00     0.170 HD
BRANCH  33  36
HETATM   36  C   UNK N   1      36.735  12.541  15.360  0.00  0.00     0.038 A 
HETATM   37  C   UNK N   1      35.972  13.480  16.045  0.00  0.00     0.046 A 
HETATM   38  C   UNK N   1      35.190  13.074  17.131  0.00  0.00     0.090 A 
HETATM   39  N   UNK N   1      35.163  11.767  17.510  0.00  0.00    -0.375 N 
HETATM   40  C   UNK N   1      35.894  10.826  16.861  0.00  0.00     0.090 A 
ATOM     41  HN  UNK N   1      34.580  11.489  18.301  1.00  0.00     0.164 HD
HETATM   42  C   UNK N   1      36.680  11.194  15.775  0.00  0.00     0.046 A 
ENDBRANCH  33  36
ENDBRANCH  27  30
ENDBRANCH   1  24
TORSDOF 3
ENDMDL
MODEL 8
REMARK VINA RESULT:      -8.8      6.887     10.102
REMARK  3 active torsions:
REMARK  status: ('A' for Active; 'I' for Inactive)
REMARK    1  A    between atoms: C_3  and  N_30 
REMARK    2  A    between atoms: C_6  and  C_7 
REMARK       I    between atoms: C_10  and  N_24 
REMARK       I    between atoms: C_13  and  N_16 
REMARK       I    between atoms: N_30  and  C_31 
REMARK       I    between atoms: C_31  and  N_33 
REMARK    3  A    between atoms: N_33  and  C_34 
ROOT
HETATM    1  C   UNK N   1      24.162  15.861   4.928  0.00  0.00     0.146 A 
HETATM    2  N   UNK N   1      23.203  16.774   4.635  0.00  0.00    -0.175 N 
ATOM      3  HN  UNK N   1      23.275  17.724   5.001  1.00  0.00     0.186 HD
HETATM    4  C   UNK N   1      22.149  16.428   3.859  0.00  0.00     0.696 A 
HETATM    5  N   UNK N   1      22.123  15.192   3.286  0.00  0.00    -0.022 N 
ATOM      6  HN  UNK N   1      21.375  14.943   2.639  1.00  0.00     0.203 HD
HETATM    7  C   UNK N   1      23.104  14.287   3.579  0.00  0.00     0.697 A 
HETATM    8  N   UNK N   1      24.081  14.623   4.436  0.00  0.00    -0.175 N 
ATOM      9  HN  UNK N   1      24.769  13.923   4.716  1.00  0.00     0.186 HD
HETATM   10  N   UNK N   1      23.364  13.200   2.703  0.00  0.00    -0.204 N 
HETATM   11  C   UNK N   1      24.665  12.587   2.747  0.00  0.00     0.126 C 
HETATM   12  C   UNK N   1      24.524  11.480   1.721  0.00  0.00     0.030 C 
HETATM   13  C   UNK N   1      23.413  11.968   0.778  0.00  0.00     0.030 C 
HETATM   14  C   UNK N   1      22.979  13.318   1.334  0.00  0.00     0.126 C 
HETATM   15  C   UNK N   1      23.949  14.363   0.702  0.00  0.00     0.193 C 
HETATM   16  O   UNK N   1      25.003  14.753   1.584  0.00  0.00    -0.387 OA
HETATM   17  C   UNK N   1      25.661  13.609   2.124  0.00  0.00     0.193 C 
HETATM   18  N   UNK N   1      21.140  17.388   3.564  0.00  0.00    -0.213 N 
HETATM   19  C   UNK N   1      21.166  18.687   4.218  0.00  0.00     0.167 C 
HETATM   20  C   UNK N   1      20.617  19.756   3.274  0.00  0.00     0.188 C 
HETATM   21  O   UNK N   1      19.362  19.348   2.795  0.00  0.00    -0.388 OA
HETATM   22  C   UNK N   1      19.622  18.304   1.894  0.00  0.00     0.188 C 
HETATM   23  C   UNK N   1      20.043  17.057   2.677  0.00  0.00     0.167 C 
ENDROOT
BRANCH   1  24
HETATM   24  C   UNK N   1      25.420  16.265   5.504  0.00  0.00     0.009 C 
HETATM   25  C   UNK N   1      25.960  17.475   5.098  0.00  0.00     0.017 C 
HETATM   26  C   UNK N   1      27.166  17.885   5.609  0.00  0.00     0.030 C 
HETATM   27  C   UNK N   1      27.850  17.101   6.551  0.00  0.00     0.036 C 
HETATM   28  C   UNK N   1      27.347  15.848   6.910  0.00  0.00     0.030 C 
HETATM   29  C   UNK N   1      26.153  15.405   6.341  0.00  0.00     0.017 C 
BRANCH  27  30
HETATM   30  N   UNK N   1      28.632  17.819   7.475  0.00  0.00    -0.309 N 
HETATM   31  C   UNK N   1      29.978  17.679   7.315  0.00  0.00     0.325 C 
HETATM   32  O   UNK N   1      30.412  17.214   6.262  0.00  0.00    -0.247 OA
HETATM   33  N   UNK N   1      30.817  17.888   8.356  0.00  0.00    -0.309 N 
HETATM   34  H   UNK N   1      30.504  18.429   9.115  0.00  0.00     0.170 HD
HETATM   35  H   UNK N   1      28.238  18.379   8.182  0.00  0.00     0.170 HD
BRANCH  33  36
HETATM   36  C   UNK N   1      32.140  17.349   8.391  0.00  0.00     0.038 A 
HETATM   37  C   UNK N   1      33.219  18.187   8.133  0.00  0.00     0.046 A 
HETATM   38  C   UNK N   1      34.522  17.711   8.310  0.00  0.00     0.090 A 
HETATM   39  N   UNK N   1      34.737  16.439   8.745  0.00  0.00    -0.375 N 
HETATM   40  C   UNK N   1      33.706  15.598   9.010  0.00  0.00     0.090 A 
ATOM     41  HN  UNK N   1      35.694  16.112   8.875  1.00  0.00     0.164 HD
HETATM   42  C   UNK N   1      32.398  16.039   8.847  0.00  0.00     0.046 A 
ENDBRANCH  33  36
ENDBRANCH  27  30
ENDBRANCH   1  24
TORSDOF 3
ENDMDL
MODEL 9
REMARK VINA RESULT:      -8.7      6.382     10.687
REMARK  3 active torsions:
REMARK  status: ('A' for Active; 'I' for Inactive)
REMARK    1  A    between atoms: C_3  and  N_30 
REMARK    2  A    between atoms: C_6  and  C_7 
REMARK       I    between atoms: C_10  and  N_24 
REMARK       I    between atoms: C_13  and  N_16 
REMARK       I    between atoms: N_30  and  C_31 
REMARK       I    between atoms: C_31  and  N_33 
REMARK    3  A    between atoms: N_33  and  C_34 
ROOT
HETATM    1  C   UNK N   1      24.750  17.368   5.248  0.00  0.00     0.146 A 
HETATM    2  N   UNK N   1      23.967  18.186   4.500  0.00  0.00    -0.175 N 
ATOM      3  HN  UNK N   1      24.395  18.897   3.906  1.00  0.00     0.186 HD
HETATM    4  C   UNK N   1      22.619  18.062   4.542  0.00  0.00     0.696 A 
HETATM    5  N   UNK N   1      22.068  17.037   5.251  0.00  0.00    -0.022 N 
ATOM      6  HN  UNK N   1      21.060  16.885   5.231  1.00  0.00     0.203 HD
HETATM    7  C   UNK N   1      22.871  16.212   5.988  0.00  0.00     0.697 A 
HETATM    8  N   UNK N   1      24.196  16.425   6.012  0.00  0.00    -0.175 N 
ATOM      9  HN  UNK N   1      24.786  15.860   6.622  1.00  0.00     0.186 HD
HETATM   10  N   UNK N   1      22.421  14.919   6.362  0.00  0.00    -0.204 N 
HETATM   11  C   UNK N   1      23.409  13.918   6.669  0.00  0.00     0.126 C 
HETATM   12  C   UNK N   1      22.544  12.731   7.046  0.00  0.00     0.030 C 
HETATM   13  C   UNK N   1      21.212  12.979   6.322  0.00  0.00     0.030 C 
HETATM   14  C   UNK N   1      21.395  14.301   5.586  0.00  0.00     0.126 C 
HETATM   15  C   UNK N   1      22.050  13.934   4.219  0.00  0.00     0.193 C 
HETATM   16  O   UNK N   1      23.461  14.151   4.199  0.00  0.00    -0.387 OA
HETATM   17  C   UNK N   1      24.085  13.531   5.322  0.00  0.00     0.193 C 
HETATM   18  N   UNK N   1      21.804  18.930   3.763  0.00  0.00    -0.213 N 
HETATM   19  C   UNK N   1      22.409  20.041   3.046  0.00  0.00     0.167 C 
HETATM   20  C   UNK N   1      21.647  20.300   1.747  0.00  0.00     0.188 C 
HETATM   21  O   UNK N   1      20.280  20.443   2.035  0.00  0.00    -0.388 OA
HETATM   22  C   UNK N   1      19.825  19.155   2.360  0.00  0.00     0.188 C 
HETATM   23  C   UNK N   1      20.363  18.765   3.739  0.00  0.00     0.167 C 
ENDROOT
BRANCH   1  24
HETATM   24  C   UNK N   1      26.170  17.284   5.014  0.00  0.00     0.009 C 
HETATM   25  C   UNK N   1      26.604  17.112   3.710  0.00  0.00     0.017 C 
HETATM   26  C   UNK N   1      27.948  17.007   3.450  0.00  0.00     0.030 C 
HETATM   27  C   UNK N   1      28.888  17.092   4.489  0.00  0.00     0.036 C 
HETATM   28  C   UNK N   1      28.455  17.195   5.813  0.00  0.00     0.030 C 
HETATM   29  C   UNK N   1      27.086  17.236   6.080  0.00  0.00     0.017 C 
BRANCH  27  30
HETATM   30  N   UNK N   1      30.133  17.640   4.128  0.00  0.00    -0.309 N 
HETATM   31  C   UNK N   1      31.213  16.894   4.494  0.00  0.00     0.325 C 
HETATM   32  O   UNK N   1      31.049  15.721   4.823  0.00  0.00    -0.247 OA
HETATM   33  N   UNK N   1      32.424  17.477   4.656  0.00  0.00    -0.309 N 
HETATM   34  H   UNK N   1      32.596  18.342   4.220  0.00  0.00     0.170 HD
HETATM   35  H   UNK N   1      30.217  18.496   3.649  0.00  0.00     0.170 HD
BRANCH  33  36
HETATM   36  C   UNK N   1      33.460  16.880   5.439  0.00  0.00     0.038 A 
HETATM   37  C   UNK N   1      33.618  17.273   6.764  0.00  0.00     0.046 A 
HETATM   38  C   UNK N   1      34.527  16.593   7.581  0.00  0.00     0.090 A 
HETATM   39  N   UNK N   1      35.244  15.545   7.091  0.00  0.00    -0.375 N 
HETATM   40  C   UNK N   1      35.110  15.135   5.805  0.00  0.00     0.090 A 
ATOM     41  HN  UNK N   1      35.897  15.057   7.705  1.00  0.00     0.164 HD
HETATM   42  C   UNK N   1      34.214  15.786   4.966  0.00  0.00     0.046 A 
ENDBRANCH  33  36
ENDBRANCH  27  30
ENDBRANCH   1  24
TORSDOF 3
ENDMDL
