MODEL 1
REMARK VINA RESULT:      -7.6      0.000      0.000
REMARK  4 active torsions:
REMARK  status: ('A' for Active; 'I' for Inactive)
REMARK    1  A    between atoms: C_2  and  C_3 
REMARK    2  A    between atoms: C_2  and  N_6 
REMARK    3  A    between atoms: C_10  and  C_17 
REMARK    4  A    between atoms: C_19  and  C_23 
REMARK       I    between atoms: C_23  and  N_25 
ROOT
HETATM    1  N   UNK N   1      28.922  17.567   5.791  0.00  0.00    -0.339 N 
HETATM    2  C   UNK N   1      29.249  17.554   7.213  0.00  0.00     0.166 A 
HETATM    3  C   UNK N   1      30.720  17.253   7.169  0.00  0.00    -0.022 A 
HETATM    4  C   UNK N   1      31.564  17.070   8.249  0.00  0.00     0.024 A 
HETATM    5  C   UNK N   1      32.914  16.758   8.016  0.00  0.00     0.002 A 
HETATM    6  C   UNK N   1      33.392  16.650   6.689  0.00  0.00     0.039 A 
HETATM    7  C   UNK N   1      32.512  16.842   5.602  0.00  0.00     0.051 A 
HETATM    8  C   UNK N   1      31.170  17.134   5.881  0.00  0.00     0.061 A 
HETATM    9  C   UNK N   1      30.022  17.336   5.036  0.00  0.00     0.256 A 
HETATM   10  O   UNK N   1      30.016  17.270   3.816  0.00  0.00    -0.267 OA
HETATM   11 Cl   UNK N   1      33.097  16.686   3.956  0.00  0.00    -0.083 Cl
ENDROOT
BRANCH   5  12
HETATM   12  C   UNK N   1      33.782  16.507   9.175  0.00  0.00     0.111 A 
HETATM   13  C   UNK N   1      33.990  15.267   9.742  0.00  0.00     0.077 A 
HETATM   14  C   UNK N   1      34.892  15.516  10.750  0.00  0.00     0.125 A 
HETATM   15  N   UNK N   1      35.189  16.833  10.768  0.00  0.00    -0.255 N 
HETATM   16  O   UNK N   1      34.509  17.397   9.810  0.00  0.00    -0.237 OA
ATOM     17  HN  UNK N   1      35.828  17.300  11.412  1.00  0.00     0.195 HD
BRANCH  14  18
HETATM   18  C   UNK N   1      35.437  14.465  11.650  0.00  0.00     0.271 C 
HETATM   19  O   UNK N   1      34.793  14.182  12.652  0.00  0.00    -0.266 OA
HETATM   20  N   UNK N   1      36.612  13.808  11.403  0.00  0.00    -0.355 N 
HETATM   21  C   UNK N   1      37.078  12.795  12.319  0.00  0.00     0.152 C 
HETATM   22  C   UNK N   1      37.419  14.088  10.244  0.00  0.00     0.152 C 
ENDBRANCH  14  18
ENDBRANCH   5  12
BRANCH   1  23
HETATM   23  C   UNK N   1      27.569  17.731   5.272  0.00  0.00     0.088 C 
HETATM   24  C   UNK N   1      26.611  16.696   5.862  0.00  0.00     0.033 C 
BRANCH  23  25
HETATM   25  C   UNK N   1      27.028  19.131   5.533  0.00  0.00     0.008 A 
HETATM   26  C   UNK N   1      27.915  20.148   4.843  0.00  0.00     0.007 A 
HETATM   27  C   UNK N   1      26.587  19.770   4.227  0.00  0.00     0.007 A 
ENDBRANCH  23  25
ENDBRANCH   1  23
TORSDOF 4
ENDMDL
MODEL 2
REMARK VINA RESULT:      -7.3      3.348      9.836
REMARK  4 active torsions:
REMARK  status: ('A' for Active; 'I' for Inactive)
REMARK    1  A    between atoms: C_2  and  C_3 
REMARK    2  A    between atoms: C_2  and  N_6 
REMARK    3  A    between atoms: C_10  and  C_17 
REMARK    4  A    between atoms: C_19  and  C_23 
REMARK       I    between atoms: C_23  and  N_25 
ROOT
HETATM    1  N   UNK N   1      35.925  12.313  14.141  0.00  0.00    -0.339 N 
HETATM    2  C   UNK N   1      34.901  13.250  13.687  0.00  0.00     0.166 A 
HETATM    3  C   UNK N   1      35.501  13.731  12.397  0.00  0.00    -0.022 A 
HETATM    4  C   UNK N   1      34.982  14.687  11.543  0.00  0.00     0.024 A 
HETATM    5  C   UNK N   1      35.703  15.039  10.391  0.00  0.00     0.002 A 
HETATM    6  C   UNK N   1      36.938  14.405  10.112  0.00  0.00     0.039 A 
HETATM    7  C   UNK N   1      37.448  13.431  10.998  0.00  0.00     0.051 A 
HETATM    8  C   UNK N   1      36.703  13.123  12.145  0.00  0.00     0.061 A 
HETATM    9  C   UNK N   1      36.945  12.239  13.254  0.00  0.00     0.256 A 
HETATM   10  O   UNK N   1      37.940  11.547  13.409  0.00  0.00    -0.267 OA
HETATM   11 Cl   UNK N   1      38.988  12.659  10.666  0.00  0.00    -0.083 Cl
ENDROOT
BRANCH   5  12
HETATM   12  C   UNK N   1      35.166  16.100   9.528  0.00  0.00     0.111 A 
HETATM   13  C   UNK N   1      34.532  15.882   8.323  0.00  0.00     0.077 A 
HETATM   14  C   UNK N   1      34.175  17.144   7.909  0.00  0.00     0.125 A 
HETATM   15  N   UNK N   1      34.583  18.047   8.826  0.00  0.00    -0.255 N 
HETATM   16  O   UNK N   1      35.171  17.388   9.784  0.00  0.00    -0.237 OA
ATOM     17  HN  UNK N   1      34.454  19.058   8.778  1.00  0.00     0.195 HD
BRANCH  14  18
HETATM   18  C   UNK N   1      33.442  17.423   6.645  0.00  0.00     0.271 C 
HETATM   19  O   UNK N   1      34.084  17.865   5.700  0.00  0.00    -0.266 OA
HETATM   20  N   UNK N   1      32.099  17.205   6.497  0.00  0.00    -0.355 N 
HETATM   21  C   UNK N   1      31.455  17.495   5.239  0.00  0.00     0.152 C 
HETATM   22  C   UNK N   1      31.284  16.687   7.565  0.00  0.00     0.152 C 
ENDBRANCH  14  18
ENDBRANCH   5  12
BRANCH   1  23
HETATM   23  C   UNK N   1      35.876  11.618  15.423  0.00  0.00     0.088 C 
HETATM   24  C   UNK N   1      35.667  12.591  16.582  0.00  0.00     0.033 C 
BRANCH  23  25
HETATM   25  C   UNK N   1      34.784  10.555  15.448  0.00  0.00     0.008 A 
HETATM   26  C   UNK N   1      35.031   9.558  14.334  0.00  0.00     0.007 A 
HETATM   27  C   UNK N   1      35.389   9.197  15.758  0.00  0.00     0.007 A 
ENDBRANCH  23  25
ENDBRANCH   1  23
TORSDOF 4
ENDMDL
MODEL 3
REMARK VINA RESULT:      -7.0      3.992      9.864
REMARK  4 active torsions:
REMARK  status: ('A' for Active; 'I' for Inactive)
REMARK    1  A    between atoms: C_2  and  C_3 
REMARK    2  A    between atoms: C_2  and  N_6 
REMARK    3  A    between atoms: C_10  and  C_17 
REMARK    4  A    between atoms: C_19  and  C_23 
REMARK       I    between atoms: C_23  and  N_25 
ROOT
HETATM    1  N   UNK N   1      36.523  13.444  13.942  0.00  0.00    -0.339 N 
HETATM    2  C   UNK N   1      35.854  14.436  13.106  0.00  0.00     0.166 A 
HETATM    3  C   UNK N   1      36.107  13.879  11.735  0.00  0.00    -0.022 A 
HETATM    4  C   UNK N   1      35.739  14.442  10.527  0.00  0.00     0.024 A 
HETATM    5  C   UNK N   1      36.094  13.792   9.333  0.00  0.00     0.002 A 
HETATM    6  C   UNK N   1      36.807  12.571   9.382  0.00  0.00     0.039 A 
HETATM    7  C   UNK N   1      37.172  12.014  10.627  0.00  0.00     0.051 A 
HETATM    8  C   UNK N   1      36.812  12.706  11.792  0.00  0.00     0.061 A 
HETATM    9  C   UNK N   1      37.060  12.456  13.188  0.00  0.00     0.256 A 
HETATM   10  O   UNK N   1      37.696  11.515  13.641  0.00  0.00    -0.267 OA
HETATM   11 Cl   UNK N   1      38.076  10.512  10.690  0.00  0.00    -0.083 Cl
ENDROOT
BRANCH   5  12
HETATM   12  C   UNK N   1      35.747  14.435   8.059  0.00  0.00     0.111 A 
HETATM   13  C   UNK N   1      34.752  15.376   7.902  0.00  0.00     0.077 A 
HETATM   14  C   UNK N   1      34.826  15.713   6.571  0.00  0.00     0.125 A 
HETATM   15  N   UNK N   1      35.812  15.002   5.984  0.00  0.00    -0.255 N 
HETATM   16  O   UNK N   1      36.345  14.248   6.904  0.00  0.00    -0.237 OA
ATOM     17  HN  UNK N   1      36.089  15.046   5.004  1.00  0.00     0.195 HD
BRANCH  14  18
HETATM   18  C   UNK N   1      33.943  16.720   5.922  0.00  0.00     0.271 C 
HETATM   19  O   UNK N   1      34.213  17.903   6.085  0.00  0.00    -0.266 OA
HETATM   20  N   UNK N   1      32.860  16.380   5.158  0.00  0.00    -0.355 N 
HETATM   21  C   UNK N   1      32.051  17.412   4.556  0.00  0.00     0.152 C 
HETATM   22  C   UNK N   1      32.486  15.010   4.923  0.00  0.00     0.152 C 
ENDBRANCH  14  18
ENDBRANCH   5  12
BRANCH   1  23
HETATM   23  C   UNK N   1      36.655  13.559  15.390  0.00  0.00     0.088 C 
HETATM   24  C   UNK N   1      37.249  14.908  15.794  0.00  0.00     0.033 C 
BRANCH  23  25
HETATM   25  C   UNK N   1      35.320  13.358  16.097  0.00  0.00     0.008 A 
HETATM   26  C   UNK N   1      34.763  11.996  15.735  0.00  0.00     0.007 A 
HETATM   27  C   UNK N   1      35.422  12.204  17.080  0.00  0.00     0.007 A 
ENDBRANCH  23  25
ENDBRANCH   1  23
TORSDOF 4
ENDMDL
MODEL 4
REMARK VINA RESULT:      -7.0      2.687      4.148
REMARK  4 active torsions:
REMARK  status: ('A' for Active; 'I' for Inactive)
REMARK    1  A    between atoms: C_2  and  C_3 
REMARK    2  A    between atoms: C_2  and  N_6 
REMARK    3  A    between atoms: C_10  and  C_17 
REMARK    4  A    between atoms: C_19  and  C_23 
REMARK       I    between atoms: C_23  and  N_25 
ROOT
HETATM    1  N   UNK N   1      26.302  18.006   3.875  0.00  0.00    -0.339 N 
HETATM    2  C   UNK N   1      27.311  18.635   4.721  0.00  0.00     0.166 A 
HETATM    3  C   UNK N   1      28.502  17.762   4.448  0.00  0.00    -0.022 A 
HETATM    4  C   UNK N   1      29.755  17.858   5.027  0.00  0.00     0.024 A 
HETATM    5  C   UNK N   1      30.744  16.927   4.674  0.00  0.00     0.002 A 
HETATM    6  C   UNK N   1      30.454  15.916   3.727  0.00  0.00     0.039 A 
HETATM    7  C   UNK N   1      29.169  15.837   3.149  0.00  0.00     0.051 A 
HETATM    8  C   UNK N   1      28.206  16.777   3.543  0.00  0.00     0.061 A 
HETATM    9  C   UNK N   1      26.820  16.953   3.200  0.00  0.00     0.256 A 
HETATM   10  O   UNK N   1      26.178  16.240   2.443  0.00  0.00    -0.267 OA
HETATM   11 Cl   UNK N   1      28.799  14.572   1.991  0.00  0.00    -0.083 Cl
ENDROOT
BRANCH   5  12
HETATM   12  C   UNK N   1      32.050  17.007   5.344  0.00  0.00     0.111 A 
HETATM   13  C   UNK N   1      32.229  17.335   6.671  0.00  0.00     0.077 A 
HETATM   14  C   UNK N   1      33.589  17.242   6.851  0.00  0.00     0.125 A 
HETATM   15  N   UNK N   1      34.169  16.880   5.687  0.00  0.00    -0.255 N 
HETATM   16  O   UNK N   1      33.219  16.745   4.805  0.00  0.00    -0.237 OA
ATOM     17  HN  UNK N   1      35.167  16.737   5.527  1.00  0.00     0.195 HD
BRANCH  14  18
HETATM   18  C   UNK N   1      34.271  17.496   8.148  0.00  0.00     0.271 C 
HETATM   19  O   UNK N   1      34.627  18.643   8.388  0.00  0.00    -0.266 OA
HETATM   20  N   UNK N   1      34.510  16.515   9.070  0.00  0.00    -0.355 N 
HETATM   21  C   UNK N   1      35.175  16.837  10.310  0.00  0.00     0.152 C 
HETATM   22  C   UNK N   1      34.119  15.146   8.854  0.00  0.00     0.152 C 
ENDBRANCH  14  18
ENDBRANCH   5  12
BRANCH   1  23
HETATM   23  C   UNK N   1      24.904  18.421   3.835  0.00  0.00     0.088 C 
HETATM   24  C   UNK N   1      24.089  17.759   4.946  0.00  0.00     0.033 C 
BRANCH  23  25
HETATM   25  C   UNK N   1      24.761  19.936   3.933  0.00  0.00     0.008 A 
HETATM   26  C   UNK N   1      25.175  20.564   2.618  0.00  0.00     0.007 A 
HETATM   27  C   UNK N   1      23.708  20.422   2.953  0.00  0.00     0.007 A 
ENDBRANCH  23  25
ENDBRANCH   1  23
TORSDOF 4
ENDMDL
MODEL 5
REMARK VINA RESULT:      -6.7      6.335     12.730
REMARK  4 active torsions:
REMARK  status: ('A' for Active; 'I' for Inactive)
REMARK    1  A    between atoms: C_2  and  C_3 
REMARK    2  A    between atoms: C_2  and  N_6 
REMARK    3  A    between atoms: C_10  and  C_17 
REMARK    4  A    between atoms: C_19  and  C_23 
REMARK       I    between atoms: C_23  and  N_25 
ROOT
HETATM    1  N   UNK N   1      35.077  10.611  19.006  0.00  0.00    -0.339 N 
HETATM    2  C   UNK N   1      35.479  10.219  17.658  0.00  0.00     0.166 A 
HETATM    3  C   UNK N   1      35.678  11.561  17.014  0.00  0.00    -0.022 A 
HETATM    4  C   UNK N   1      36.020  11.809  15.697  0.00  0.00     0.024 A 
HETATM    5  C   UNK N   1      36.128  13.139  15.258  0.00  0.00     0.002 A 
HETATM    6  C   UNK N   1      35.901  14.200  16.165  0.00  0.00     0.039 A 
HETATM    7  C   UNK N   1      35.554  13.923  17.505  0.00  0.00     0.051 A 
HETATM    8  C   UNK N   1      35.440  12.582  17.896  0.00  0.00     0.061 A 
HETATM    9  C   UNK N   1      35.065  11.959  19.137  0.00  0.00     0.256 A 
HETATM   10  O   UNK N   1      34.741  12.546  20.159  0.00  0.00    -0.267 OA
HETATM   11 Cl   UNK N   1      35.251  15.238  18.627  0.00  0.00    -0.083 Cl
ENDROOT
BRANCH   5  12
HETATM   12  C   UNK N   1      36.432  13.383  13.841  0.00  0.00     0.111 A 
HETATM   13  C   UNK N   1      35.829  14.352  13.067  0.00  0.00     0.077 A 
HETATM   14  C   UNK N   1      36.454  14.233  11.848  0.00  0.00     0.125 A 
HETATM   15  N   UNK N   1      37.372  13.244  11.911  0.00  0.00    -0.255 N 
HETATM   16  O   UNK N   1      37.334  12.758  13.119  0.00  0.00    -0.237 OA
ATOM     17  HN  UNK N   1      37.982  12.936  11.154  1.00  0.00     0.195 HD
BRANCH  14  18
HETATM   18  C   UNK N   1      36.145  15.090  10.673  0.00  0.00     0.271 C 
HETATM   19  O   UNK N   1      36.696  16.182  10.604  0.00  0.00    -0.266 OA
HETATM   20  N   UNK N   1      35.284  14.711   9.679  0.00  0.00    -0.355 N 
HETATM   21  C   UNK N   1      35.035  15.595   8.565  0.00  0.00     0.152 C 
HETATM   22  C   UNK N   1      34.604  13.443   9.695  0.00  0.00     0.152 C 
ENDBRANCH  14  18
ENDBRANCH   5  12
BRANCH   1  23
HETATM   23  C   UNK N   1      34.670   9.664  20.038  0.00  0.00     0.088 C 
HETATM   24  C   UNK N   1      33.558   8.739  19.544  0.00  0.00     0.033 C 
BRANCH  23  25
HETATM   25  C   UNK N   1      35.844   8.829  20.535  0.00  0.00     0.008 A 
HETATM   26  C   UNK N   1      36.944   9.751  21.020  0.00  0.00     0.007 A 
HETATM   27  C   UNK N   1      36.050   9.057  22.023  0.00  0.00     0.007 A 
ENDBRANCH  23  25
ENDBRANCH   1  23
TORSDOF 4
ENDMDL
MODEL 6
REMARK VINA RESULT:      -6.6      7.378     13.289
REMARK  4 active torsions:
REMARK  status: ('A' for Active; 'I' for Inactive)
REMARK    1  A    between atoms: C_2  and  C_3 
REMARK    2  A    between atoms: C_2  and  N_6 
REMARK    3  A    between atoms: C_10  and  C_17 
REMARK    4  A    between atoms: C_19  and  C_23 
REMARK       I    between atoms: C_23  and  N_25 
ROOT
HETATM    1  N   UNK N   1      34.858   9.809  20.100  0.00  0.00    -0.339 N 
HETATM    2  C   UNK N   1      34.966  11.206  19.692  0.00  0.00     0.166 A 
HETATM    3  C   UNK N   1      35.263  11.058  18.227  0.00  0.00    -0.022 A 
HETATM    4  C   UNK N   1      35.518  12.073  17.323  0.00  0.00     0.024 A 
HETATM    5  C   UNK N   1      35.812  11.743  15.990  0.00  0.00     0.002 A 
HETATM    6  C   UNK N   1      35.831  10.386  15.589  0.00  0.00     0.039 A 
HETATM    7  C   UNK N   1      35.567   9.367  16.529  0.00  0.00     0.051 A 
HETATM    8  C   UNK N   1      35.295   9.741  17.852  0.00  0.00     0.061 A 
HETATM    9  C   UNK N   1      35.038   8.979  19.045  0.00  0.00     0.256 A 
HETATM   10  O   UNK N   1      35.022   7.759  19.121  0.00  0.00    -0.267 OA
HETATM   11 Cl   UNK N   1      35.611   7.683  16.039  0.00  0.00    -0.083 Cl
ENDROOT
BRANCH   5  12
HETATM   12  C   UNK N   1      36.140  12.831  15.058  0.00  0.00     0.111 A 
HETATM   13  C   UNK N   1      35.694  12.906  13.756  0.00  0.00     0.077 A 
HETATM   14  C   UNK N   1      36.213  14.095  13.300  0.00  0.00     0.125 A 
HETATM   15  N   UNK N   1      36.926  14.679  14.288  0.00  0.00    -0.255 N 
HETATM   16  O   UNK N   1      36.859  13.896  15.327  0.00  0.00    -0.237 OA
ATOM     17  HN  UNK N   1      37.423  15.568  14.231  1.00  0.00     0.195 HD
BRANCH  14  18
HETATM   18  C   UNK N   1      35.988  14.624  11.928  0.00  0.00     0.271 C 
HETATM   19  O   UNK N   1      35.112  15.466  11.779  0.00  0.00    -0.266 OA
HETATM   20  N   UNK N   1      36.715  14.216  10.843  0.00  0.00    -0.355 N 
HETATM   21  C   UNK N   1      36.444  14.777   9.542  0.00  0.00     0.152 C 
HETATM   22  C   UNK N   1      37.761  13.232  10.946  0.00  0.00     0.152 C 
ENDBRANCH  14  18
ENDBRANCH   5  12
BRANCH   1  23
HETATM   23  C   UNK N   1      34.661   9.380  21.480  0.00  0.00     0.088 C 
HETATM   24  C   UNK N   1      35.933   9.553  22.309  0.00  0.00     0.033 C 
BRANCH  23  25
HETATM   25  C   UNK N   1      33.513  10.129  22.146  0.00  0.00     0.008 A 
HETATM   26  C   UNK N   1      32.207   9.730  21.489  0.00  0.00     0.007 A 
HETATM   27  C   UNK N   1      32.581   9.145  22.833  0.00  0.00     0.007 A 
ENDBRANCH  23  25
ENDBRANCH   1  23
TORSDOF 4
ENDMDL
MODEL 7
REMARK VINA RESULT:      -6.6      3.993     10.637
REMARK  4 active torsions:
REMARK  status: ('A' for Active; 'I' for Inactive)
REMARK    1  A    between atoms: C_2  and  C_3 
REMARK    2  A    between atoms: C_2  and  N_6 
REMARK    3  A    between atoms: C_10  and  C_17 
REMARK    4  A    between atoms: C_19  and  C_23 
REMARK       I    between atoms: C_23  and  N_25 
ROOT
HETATM    1  N   UNK N   1      36.588  10.396  13.390  0.00  0.00    -0.339 N 
HETATM    2  C   UNK N   1      36.206  10.853  12.057  0.00  0.00     0.166 A 
HETATM    3  C   UNK N   1      36.159  12.340  12.264  0.00  0.00    -0.022 A 
HETATM    4  C   UNK N   1      35.797  13.298  11.335  0.00  0.00     0.024 A 
HETATM    5  C   UNK N   1      35.778  14.649  11.718  0.00  0.00     0.002 A 
HETATM    6  C   UNK N   1      36.141  15.012  13.036  0.00  0.00     0.039 A 
HETATM    7  C   UNK N   1      36.509  14.017  13.968  0.00  0.00     0.051 A 
HETATM    8  C   UNK N   1      36.497  12.680  13.547  0.00  0.00     0.061 A 
HETATM    9  C   UNK N   1      36.761  11.442  14.232  0.00  0.00     0.256 A 
HETATM   10  O   UNK N   1      37.058  11.331  15.412  0.00  0.00    -0.267 OA
HETATM   11 Cl   UNK N   1      36.938  14.462  15.609  0.00  0.00    -0.083 Cl
ENDROOT
BRANCH   5  12
HETATM   12  C   UNK N   1      35.331  15.647  10.736  0.00  0.00     0.111 A 
HETATM   13  C   UNK N   1      34.879  15.349   9.468  0.00  0.00     0.077 A 
HETATM   14  C   UNK N   1      34.541  16.575   8.944  0.00  0.00     0.125 A 
HETATM   15  N   UNK N   1      34.786  17.535   9.862  0.00  0.00    -0.255 N 
HETATM   16  O   UNK N   1      35.256  16.945  10.924  0.00  0.00    -0.237 OA
ATOM     17  HN  UNK N   1      34.630  18.537   9.745  1.00  0.00     0.195 HD
BRANCH  14  18
HETATM   18  C   UNK N   1      33.983  16.766   7.579  0.00  0.00     0.271 C 
HETATM   19  O   UNK N   1      34.771  16.800   6.642  0.00  0.00    -0.266 OA
HETATM   20  N   UNK N   1      32.644  16.898   7.332  0.00  0.00    -0.355 N 
HETATM   21  C   UNK N   1      32.174  17.076   5.979  0.00  0.00     0.152 C 
HETATM   22  C   UNK N   1      31.662  16.866   8.385  0.00  0.00     0.152 C 
ENDBRANCH  14  18
ENDBRANCH   5  12
BRANCH   1  23
HETATM   23  C   UNK N   1      36.689   8.991  13.767  0.00  0.00     0.088 C 
HETATM   24  C   UNK N   1      35.490   8.187  13.264  0.00  0.00     0.033 C 
BRANCH  23  25
HETATM   25  C   UNK N   1      37.977   8.358  13.253  0.00  0.00     0.008 A 
HETATM   26  C   UNK N   1      39.148   8.880  14.060  0.00  0.00     0.007 A 
HETATM   27  C   UNK N   1      38.601   7.498  14.338  0.00  0.00     0.007 A 
ENDBRANCH  23  25
ENDBRANCH   1  23
TORSDOF 4
ENDMDL
MODEL 8
REMARK VINA RESULT:      -6.5      3.275      4.461
REMARK  4 active torsions:
REMARK  status: ('A' for Active; 'I' for Inactive)
REMARK    1  A    between atoms: C_2  and  C_3 
REMARK    2  A    between atoms: C_2  and  N_6 
REMARK    3  A    between atoms: C_10  and  C_17 
REMARK    4  A    between atoms: C_19  and  C_23 
REMARK       I    between atoms: C_23  and  N_25 
ROOT
HETATM    1  N   UNK N   1      32.813  15.330   6.342  0.00  0.00    -0.339 N 
HETATM    2  C   UNK N   1      32.525  15.572   7.752  0.00  0.00     0.166 A 
HETATM    3  C   UNK N   1      33.806  15.117   8.391  0.00  0.00    -0.022 A 
HETATM    4  C   UNK N   1      34.089  15.069   9.744  0.00  0.00     0.024 A 
HETATM    5  C   UNK N   1      35.336  14.578  10.164  0.00  0.00     0.002 A 
HETATM    6  C   UNK N   1      36.285  14.154   9.204  0.00  0.00     0.039 A 
HETATM    7  C   UNK N   1      35.974  14.213   7.828  0.00  0.00     0.051 A 
HETATM    8  C   UNK N   1      34.711  14.693   7.455  0.00  0.00     0.061 A 
HETATM    9  C   UNK N   1      34.064  14.837   6.178  0.00  0.00     0.256 A 
HETATM   10  O   UNK N   1      34.543  14.527   5.097  0.00  0.00    -0.267 OA
HETATM   11 Cl   UNK N   1      37.140  13.667   6.637  0.00  0.00    -0.083 Cl
ENDROOT
BRANCH   5  12
HETATM   12  C   UNK N   1      35.597  14.478  11.607  0.00  0.00     0.111 A 
HETATM   13  C   UNK N   1      35.129  13.466  12.418  0.00  0.00     0.077 A 
HETATM   14  C   UNK N   1      35.653  13.768  13.653  0.00  0.00     0.125 A 
HETATM   15  N   UNK N   1      36.386  14.898  13.563  0.00  0.00    -0.255 N 
HETATM   16  O   UNK N   1      36.334  15.296  12.323  0.00  0.00    -0.237 OA
ATOM     17  HN  UNK N   1      36.889  15.355  14.324  1.00  0.00     0.195 HD
BRANCH  14  18
HETATM   18  C   UNK N   1      35.431  12.942  14.870  0.00  0.00     0.271 C 
HETATM   19  O   UNK N   1      34.415  13.151  15.522  0.00  0.00    -0.266 OA
HETATM   20  N   UNK N   1      36.301  11.969  15.280  0.00  0.00    -0.355 N 
HETATM   21  C   UNK N   1      36.018  11.204  16.470  0.00  0.00     0.152 C 
HETATM   22  C   UNK N   1      37.512  11.670  14.562  0.00  0.00     0.152 C 
ENDBRANCH  14  18
ENDBRANCH   5  12
BRANCH   1  23
HETATM   23  C   UNK N   1      31.842  15.524   5.271  0.00  0.00     0.088 C 
HETATM   24  C   UNK N   1      30.497  14.882   5.608  0.00  0.00     0.033 C 
BRANCH  23  25
HETATM   25  C   UNK N   1      31.636  17.001   4.956  0.00  0.00     0.008 A 
HETATM   26  C   UNK N   1      32.982  17.656   4.720  0.00  0.00     0.007 A 
HETATM   27  C   UNK N   1      32.103  17.301   3.542  0.00  0.00     0.007 A 
ENDBRANCH  23  25
ENDBRANCH   1  23
TORSDOF 4
ENDMDL
MODEL 9
REMARK VINA RESULT:      -6.5      6.263     12.640
REMARK  4 active torsions:
REMARK  status: ('A' for Active; 'I' for Inactive)
REMARK    1  A    between atoms: C_2  and  C_3 
REMARK    2  A    between atoms: C_2  and  N_6 
REMARK    3  A    between atoms: C_10  and  C_17 
REMARK    4  A    between atoms: C_19  and  C_23 
REMARK       I    between atoms: C_23  and  N_25 
ROOT
HETATM    1  N   UNK N   1      35.878  10.062  18.687  0.00  0.00    -0.339 N 
HETATM    2  C   UNK N   1      35.390  11.339  18.175  0.00  0.00     0.166 A 
HETATM    3  C   UNK N   1      35.993  11.349  16.799  0.00  0.00    -0.022 A 
HETATM    4  C   UNK N   1      35.905  12.360  15.860  0.00  0.00     0.024 A 
HETATM    5  C   UNK N   1      36.566  12.210  14.630  0.00  0.00     0.002 A 
HETATM    6  C   UNK N   1      37.298  11.028  14.365  0.00  0.00     0.039 A 
HETATM    7  C   UNK N   1      37.373  10.009  15.338  0.00  0.00     0.051 A 
HETATM    8  C   UNK N   1      36.712  10.209  16.558  0.00  0.00     0.061 A 
HETATM    9  C   UNK N   1      36.624   9.419  17.758  0.00  0.00     0.256 A 
HETATM   10  O   UNK N   1      37.171   8.341  17.943  0.00  0.00    -0.267 OA
HETATM   11 Cl   UNK N   1      38.298   8.553  15.020  0.00  0.00    -0.083 Cl
ENDROOT
BRANCH   5  12
HETATM   12  C   UNK N   1      36.513  13.320  13.668  0.00  0.00     0.111 A 
HETATM   13  C   UNK N   1      36.491  13.167  12.298  0.00  0.00     0.077 A 
HETATM   14  C   UNK N   1      36.399  14.456  11.827  0.00  0.00     0.125 A 
HETATM   15  N   UNK N   1      36.370  15.312  12.871  0.00  0.00    -0.255 N 
HETATM   16  O   UNK N   1      36.438  14.598  13.959  0.00  0.00    -0.237 OA
ATOM     17  HN  UNK N   1      36.307  16.329  12.818  1.00  0.00     0.195 HD
BRANCH  14  18
HETATM   18  C   UNK N   1      36.331  14.806  10.383  0.00  0.00     0.271 C 
HETATM   19  O   UNK N   1      37.388  14.924   9.776  0.00  0.00    -0.266 OA
HETATM   20  N   UNK N   1      35.152  14.993   9.716  0.00  0.00    -0.355 N 
HETATM   21  C   UNK N   1      35.162  15.327   8.312  0.00  0.00     0.152 C 
HETATM   22  C   UNK N   1      33.873  14.868  10.366  0.00  0.00     0.152 C 
ENDBRANCH  14  18
ENDBRANCH   5  12
BRANCH   1  23
HETATM   23  C   UNK N   1      35.649   9.594  20.049  0.00  0.00     0.088 C 
HETATM   24  C   UNK N   1      36.496  10.368  21.059  0.00  0.00     0.033 C 
BRANCH  23  25
HETATM   25  C   UNK N   1      34.179   9.688  20.440  0.00  0.00     0.008 A 
HETATM   26  C   UNK N   1      33.362   8.787  19.535  0.00  0.00     0.007 A 
HETATM   27  C   UNK N   1      33.689   8.341  20.942  0.00  0.00     0.007 A 
ENDBRANCH  23  25
ENDBRANCH   1  23
TORSDOF 4
ENDMDL
