MODEL 1
REMARK VINA RESULT:      -5.9      0.000      0.000
REMARK  14 active torsions:
REMARK  status: ('A' for Active; 'I' for Inactive)
REMARK    1  A    between atoms: C_2  and  C_26 
REMARK    2  A    between atoms: C_5  and  C_8 
REMARK    3  A    between atoms: C_12  and  O_15 
REMARK    4  A    between atoms: C_13  and  O_14 
REMARK    5  A    between atoms: O_15  and  C_16 
REMARK    6  A    between atoms: C_16  and  C_17 
REMARK    7  A    between atoms: C_17  and  O_18 
REMARK    8  A    between atoms: O_18  and  C_19 
REMARK    9  A    between atoms: C_19  and  C_20 
REMARK   10  A    between atoms: C_20  and  O_21 
REMARK   11  A    between atoms: O_21  and  C_22 
REMARK   12  A    between atoms: C_22  and  C_23 
REMARK   13  A    between atoms: C_23  and  O_24 
REMARK   14  A    between atoms: C_26  and  O_28 
ROOT
HETATM    1  C   UNK N   1      35.429  14.573  10.070  0.00  0.00     0.033 A 
HETATM    2  C   UNK N   1      36.739  14.097   9.904  0.00  0.00     0.017 A 
HETATM    3  C   UNK N   1      37.383  13.409  10.931  0.00  0.00     0.004 A 
HETATM    4  C   UNK N   1      36.714  13.155  12.128  0.00  0.00     0.040 A 
HETATM    5  C   UNK N   1      35.397  13.588  12.314  0.00  0.00     0.102 A 
HETATM    6  C   UNK N   1      34.758  14.324  11.288  0.00  0.00     0.112 A 
ENDROOT
BRANCH   1   7
HETATM    7  C   UNK N   1      34.763  15.262   8.932  0.00  0.00     0.080 C 
HETATM    8  S   UNK N   1      34.607  14.508   7.321  0.00  0.00    -0.109 SA
HETATM    9  C   UNK N   1      33.210  15.651   7.053  0.00  0.00     0.122 C 
HETATM   10  C   UNK N   1      33.440  16.872   7.942  0.00  0.00     0.121 C 
HETATM   11  C   UNK N   1      32.096  17.387   8.423  0.00  0.00     0.051 C 
HETATM   12  N   UNK N   1      34.197  16.402   9.069  0.00  0.00    -0.365 N 
ATOM     13  HN  UNK N   1      34.277  16.945   9.929  1.00  0.00     0.161 HD
BRANCH  10  14
HETATM   14  C   UNK N   1      34.180  17.968   7.213  0.00  0.00     0.169 C 
HETATM   15  O   UNK N   1      34.079  18.077   6.002  0.00  0.00    -0.648 OA
BRANCH  14  16
HETATM   16  O   UNK N   1      34.972  18.825   7.891  0.00  0.00    -0.775 OA
HETATM   17  H   UNK N   1      34.806  19.745   7.956  0.00  0.00     0.167 HD
ENDBRANCH  14  16
ENDBRANCH  10  14
ENDBRANCH   1   7
BRANCH   6  18
HETATM   18  O   UNK N   1      33.501  14.775  11.467  0.00  0.00    -0.357 OA
HETATM   19  H   UNK N   1      32.772  14.320  11.091  0.00  0.00     0.217 HD
ENDBRANCH   6  18
BRANCH   5  20
HETATM   20  O   UNK N   1      34.776  13.261  13.472  0.00  0.00    -0.346 OA
BRANCH  20  21
HETATM   21  C   UNK N   1      34.672  11.967  13.942  0.00  0.00     0.201 C 
BRANCH  21  22
HETATM   22  C   UNK N   1      34.315  11.937  15.425  0.00  0.00     0.194 C 
BRANCH  22  23
HETATM   23  O   UNK N   1      34.144  13.229  15.938  0.00  0.00    -0.387 OA
BRANCH  23  24
HETATM   24  C   UNK N   1      35.118  13.378  16.928  0.00  0.00     0.193 C 
BRANCH  24  25
HETATM   25  C   UNK N   1      35.257  12.070  17.687  0.00  0.00     0.193 C 
BRANCH  25  26
HETATM   26  O   UNK N   1      35.235  12.323  19.059  0.00  0.00    -0.387 OA
BRANCH  26  27
HETATM   27  C   UNK N   1      35.813  11.201  19.658  0.00  0.00     0.193 C 
BRANCH  27  28
HETATM   28  C   UNK N   1      34.724  10.292  20.200  0.00  0.00     0.193 C 
BRANCH  28  29
HETATM   29  O   UNK N   1      35.294   9.260  20.941  0.00  0.00    -0.394 OA
HETATM   30  C   UNK N   1      34.851   9.490  22.243  0.00  0.00     0.201 C 
ENDBRANCH  28  29
ENDBRANCH  27  28
ENDBRANCH  26  27
ENDBRANCH  25  26
ENDBRANCH  24  25
ENDBRANCH  23  24
ENDBRANCH  22  23
ENDBRANCH  21  22
ENDBRANCH  20  21
ENDBRANCH   5  20
TORSDOF 14
ENDMDL
MODEL 2
REMARK VINA RESULT:      -5.9      2.305      4.147
REMARK  14 active torsions:
REMARK  status: ('A' for Active; 'I' for Inactive)
REMARK    1  A    between atoms: C_2  and  C_26 
REMARK    2  A    between atoms: C_5  and  C_8 
REMARK    3  A    between atoms: C_12  and  O_15 
REMARK    4  A    between atoms: C_13  and  O_14 
REMARK    5  A    between atoms: O_15  and  C_16 
REMARK    6  A    between atoms: C_16  and  C_17 
REMARK    7  A    between atoms: C_17  and  O_18 
REMARK    8  A    between atoms: O_18  and  C_19 
REMARK    9  A    between atoms: C_19  and  C_20 
REMARK   10  A    between atoms: C_20  and  O_21 
REMARK   11  A    between atoms: O_21  and  C_22 
REMARK   12  A    between atoms: C_22  and  C_23 
REMARK   13  A    between atoms: C_23  and  O_24 
REMARK   14  A    between atoms: C_26  and  O_28 
ROOT
HETATM    1  C   UNK N   1      35.482  14.515  10.045  0.00  0.00     0.033 A 
HETATM    2  C   UNK N   1      36.771  13.977   9.907  0.00  0.00     0.017 A 
HETATM    3  C   UNK N   1      37.413  13.378  10.989  0.00  0.00     0.004 A 
HETATM    4  C   UNK N   1      36.762  13.275  12.217  0.00  0.00     0.040 A 
HETATM    5  C   UNK N   1      35.464  13.773  12.380  0.00  0.00     0.102 A 
HETATM    6  C   UNK N   1      34.830  14.420  11.293  0.00  0.00     0.112 A 
ENDROOT
BRANCH   1   7
HETATM    7  C   UNK N   1      34.816  15.105   8.852  0.00  0.00     0.080 C 
HETATM    8  S   UNK N   1      34.801  14.285   7.266  0.00  0.00    -0.109 SA
HETATM    9  C   UNK N   1      33.328  15.295   6.892  0.00  0.00     0.122 C 
HETATM   10  C   UNK N   1      33.413  16.562   7.742  0.00  0.00     0.121 C 
HETATM   11  C   UNK N   1      32.009  16.977   8.142  0.00  0.00     0.051 C 
HETATM   12  N   UNK N   1      34.151  16.197   8.919  0.00  0.00    -0.365 N 
ATOM     13  HN  UNK N   1      34.145  16.775   9.760  1.00  0.00     0.161 HD
BRANCH  10  14
HETATM   14  C   UNK N   1      34.093  17.691   7.005  0.00  0.00     0.169 C 
HETATM   15  O   UNK N   1      34.745  18.519   7.620  0.00  0.00    -0.648 OA
BRANCH  14  16
HETATM   16  O   UNK N   1      33.972  17.803   5.666  0.00  0.00    -0.775 OA
HETATM   17  H   UNK N   1      33.439  17.236   5.144  0.00  0.00     0.167 HD
ENDBRANCH  14  16
ENDBRANCH  10  14
ENDBRANCH   1   7
BRANCH   6  18
HETATM   18  O   UNK N   1      33.592  14.932  11.446  0.00  0.00    -0.357 OA
HETATM   19  H   UNK N   1      33.395  15.497  12.167  0.00  0.00     0.217 HD
ENDBRANCH   6  18
BRANCH   5  20
HETATM   20  O   UNK N   1      34.857  13.592  13.576  0.00  0.00    -0.346 OA
BRANCH  20  21
HETATM   21  C   UNK N   1      35.545  13.414  14.761  0.00  0.00     0.201 C 
BRANCH  21  22
HETATM   22  C   UNK N   1      34.636  12.874  15.860  0.00  0.00     0.194 C 
BRANCH  22  23
HETATM   23  O   UNK N   1      35.111  11.657  16.367  0.00  0.00    -0.387 OA
BRANCH  23  24
HETATM   24  C   UNK N   1      35.130  10.775  15.285  0.00  0.00     0.193 C 
BRANCH  24  25
HETATM   25  C   UNK N   1      33.705  10.544  14.810  0.00  0.00     0.193 C 
BRANCH  25  26
HETATM   26  O   UNK N   1      33.677  10.524  13.416  0.00  0.00    -0.387 OA
BRANCH  26  27
HETATM   27  C   UNK N   1      34.789   9.772  13.028  0.00  0.00     0.193 C 
BRANCH  27  28
HETATM   28  C   UNK N   1      35.078  10.008  11.556  0.00  0.00     0.193 C 
BRANCH  28  29
HETATM   29  O   UNK N   1      34.117  10.857  11.014  0.00  0.00    -0.394 OA
HETATM   30  C   UNK N   1      34.487  10.982   9.676  0.00  0.00     0.201 C 
ENDBRANCH  28  29
ENDBRANCH  27  28
ENDBRANCH  26  27
ENDBRANCH  25  26
ENDBRANCH  24  25
ENDBRANCH  23  24
ENDBRANCH  22  23
ENDBRANCH  21  22
ENDBRANCH  20  21
ENDBRANCH   5  20
TORSDOF 14
ENDMDL
MODEL 3
REMARK VINA RESULT:      -5.8     10.894     14.202
REMARK  14 active torsions:
REMARK  status: ('A' for Active; 'I' for Inactive)
REMARK    1  A    between atoms: C_2  and  C_26 
REMARK    2  A    between atoms: C_5  and  C_8 
REMARK    3  A    between atoms: C_12  and  O_15 
REMARK    4  A    between atoms: C_13  and  O_14 
REMARK    5  A    between atoms: O_15  and  C_16 
REMARK    6  A    between atoms: C_16  and  C_17 
REMARK    7  A    between atoms: C_17  and  O_18 
REMARK    8  A    between atoms: O_18  and  C_19 
REMARK    9  A    between atoms: C_19  and  C_20 
REMARK   10  A    between atoms: C_20  and  O_21 
REMARK   11  A    between atoms: O_21  and  C_22 
REMARK   12  A    between atoms: C_22  and  C_23 
REMARK   13  A    between atoms: C_23  and  O_24 
REMARK   14  A    between atoms: C_26  and  O_28 
ROOT
HETATM    1  C   UNK N   1      24.121  19.006   4.393  0.00  0.00     0.033 A 
HETATM    2  C   UNK N   1      23.582  19.878   3.434  0.00  0.00     0.017 A 
HETATM    3  C   UNK N   1      22.242  19.788   3.062  0.00  0.00     0.004 A 
HETATM    4  C   UNK N   1      21.411  18.847   3.667  0.00  0.00     0.040 A 
HETATM    5  C   UNK N   1      21.909  17.983   4.649  0.00  0.00     0.102 A 
HETATM    6  C   UNK N   1      23.280  18.046   4.996  0.00  0.00     0.112 A 
ENDROOT
BRANCH   1   7
HETATM    7  C   UNK N   1      25.545  19.167   4.794  0.00  0.00     0.080 C 
HETATM    8  S   UNK N   1      26.891  18.543   3.801  0.00  0.00    -0.109 SA
HETATM    9  C   UNK N   1      27.933  19.777   4.652  0.00  0.00     0.122 C 
HETATM   10  C   UNK N   1      27.291  20.061   6.009  0.00  0.00     0.121 C 
HETATM   11  C   UNK N   1      27.519  21.519   6.362  0.00  0.00     0.051 C 
HETATM   12  N   UNK N   1      25.883  19.832   5.835  0.00  0.00    -0.365 N 
ATOM     13  HN  UNK N   1      25.194  20.179   6.502  1.00  0.00     0.161 HD
BRANCH  10  14
HETATM   14  C   UNK N   1      27.853  19.174   7.095  0.00  0.00     0.169 C 
HETATM   15  O   UNK N   1      28.695  18.333   6.826  0.00  0.00    -0.648 OA
BRANCH  14  16
HETATM   16  O   UNK N   1      27.417  19.293   8.366  0.00  0.00    -0.775 OA
HETATM   17  H   UNK N   1      27.240  18.561   8.924  0.00  0.00     0.167 HD
ENDBRANCH  14  16
ENDBRANCH  10  14
ENDBRANCH   1   7
BRANCH   6  18
HETATM   18  O   UNK N   1      23.779  17.198   5.918  0.00  0.00    -0.357 OA
HETATM   19  H   UNK N   1      24.430  17.485   6.528  0.00  0.00     0.217 HD
ENDBRANCH   6  18
BRANCH   5  20
HETATM   20  O   UNK N   1      21.044  17.131   5.247  0.00  0.00    -0.346 OA
BRANCH  20  21
HETATM   21  C   UNK N   1      20.869  15.820   4.850  0.00  0.00     0.201 C 
BRANCH  21  22
HETATM   22  C   UNK N   1      19.637  15.198   5.500  0.00  0.00     0.194 C 
BRANCH  22  23
HETATM   23  O   UNK N   1      19.532  15.556   6.851  0.00  0.00    -0.387 OA
BRANCH  23  24
HETATM   24  C   UNK N   1      20.369  14.678   7.543  0.00  0.00     0.193 C 
BRANCH  24  25
HETATM   25  C   UNK N   1      20.295  14.991   9.028  0.00  0.00     0.193 C 
BRANCH  25  26
HETATM   26  O   UNK N   1      20.209  13.801   9.751  0.00  0.00    -0.387 OA
BRANCH  26  27
HETATM   27  C   UNK N   1      21.528  13.445  10.047  0.00  0.00     0.193 C 
BRANCH  27  28
HETATM   28  C   UNK N   1      21.541  12.175  10.878  0.00  0.00     0.193 C 
BRANCH  28  29
HETATM   29  O   UNK N   1      22.677  11.426  10.582  0.00  0.00    -0.394 OA
HETATM   30  C   UNK N   1      23.676  11.994  11.370  0.00  0.00     0.201 C 
ENDBRANCH  28  29
ENDBRANCH  27  28
ENDBRANCH  26  27
ENDBRANCH  25  26
ENDBRANCH  24  25
ENDBRANCH  23  24
ENDBRANCH  22  23
ENDBRANCH  21  22
ENDBRANCH  20  21
ENDBRANCH   5  20
TORSDOF 14
ENDMDL
MODEL 4
REMARK VINA RESULT:      -5.7      8.140     12.997
REMARK  14 active torsions:
REMARK  status: ('A' for Active; 'I' for Inactive)
REMARK    1  A    between atoms: C_2  and  C_26 
REMARK    2  A    between atoms: C_5  and  C_8 
REMARK    3  A    between atoms: C_12  and  O_15 
REMARK    4  A    between atoms: C_13  and  O_14 
REMARK    5  A    between atoms: O_15  and  C_16 
REMARK    6  A    between atoms: C_16  and  C_17 
REMARK    7  A    between atoms: C_17  and  O_18 
REMARK    8  A    between atoms: O_18  and  C_19 
REMARK    9  A    between atoms: C_19  and  C_20 
REMARK   10  A    between atoms: C_20  and  O_21 
REMARK   11  A    between atoms: O_21  and  C_22 
REMARK   12  A    between atoms: C_22  and  C_23 
REMARK   13  A    between atoms: C_23  and  O_24 
REMARK   14  A    between atoms: C_26  and  O_28 
ROOT
HETATM    1  C   UNK N   1      24.676  18.652   4.474  0.00  0.00     0.033 A 
HETATM    2  C   UNK N   1      24.640  19.717   3.559  0.00  0.00     0.017 A 
HETATM    3  C   UNK N   1      25.812  20.368   3.177  0.00  0.00     0.004 A 
HETATM    4  C   UNK N   1      27.041  19.942   3.676  0.00  0.00     0.040 A 
HETATM    5  C   UNK N   1      27.116  18.864   4.565  0.00  0.00     0.102 A 
HETATM    6  C   UNK N   1      25.923  18.231   4.986  0.00  0.00     0.112 A 
ENDROOT
BRANCH   1   7
HETATM    7  C   UNK N   1      23.408  17.956   4.819  0.00  0.00     0.080 C 
HETATM    8  S   UNK N   1      22.124  17.659   3.613  0.00  0.00    -0.109 SA
HETATM    9  C   UNK N   1      21.569  16.313   4.712  0.00  0.00     0.122 C 
HETATM   10  C   UNK N   1      22.016  16.664   6.130  0.00  0.00     0.121 C 
HETATM   11  C   UNK N   1      22.366  15.382   6.864  0.00  0.00     0.051 C 
HETATM   12  N   UNK N   1      23.202  17.462   5.982  0.00  0.00    -0.365 N 
ATOM     13  HN  UNK N   1      23.842  17.625   6.759  1.00  0.00     0.161 HD
BRANCH  10  14
HETATM   14  C   UNK N   1      20.949  17.416   6.889  0.00  0.00     0.169 C 
HETATM   15  O   UNK N   1      21.116  18.589   7.181  0.00  0.00    -0.648 OA
BRANCH  14  16
HETATM   16  O   UNK N   1      19.812  16.795   7.264  0.00  0.00    -0.775 OA
HETATM   17  H   UNK N   1      19.017  16.823   6.768  0.00  0.00     0.167 HD
ENDBRANCH  14  16
ENDBRANCH  10  14
ENDBRANCH   1   7
BRANCH   6  18
HETATM   18  O   UNK N   1      25.978  17.212   5.867  0.00  0.00    -0.357 OA
HETATM   19  H   UNK N   1      26.776  16.739   6.000  0.00  0.00     0.217 HD
ENDBRANCH   6  18
BRANCH   5  20
HETATM   20  O   UNK N   1      28.341  18.455   4.970  0.00  0.00    -0.346 OA
BRANCH  20  21
HETATM   21  C   UNK N   1      29.091  17.511   4.297  0.00  0.00     0.201 C 
BRANCH  21  22
HETATM   22  C   UNK N   1      30.546  17.521   4.753  0.00  0.00     0.194 C 
BRANCH  22  23
HETATM   23  O   UNK N   1      30.869  16.360   5.467  0.00  0.00    -0.387 OA
BRANCH  23  24
HETATM   24  C   UNK N   1      31.985  16.687   6.241  0.00  0.00     0.193 C 
BRANCH  24  25
HETATM   25  C   UNK N   1      33.136  17.054   5.320  0.00  0.00     0.193 C 
BRANCH  25  26
HETATM   26  O   UNK N   1      34.023  17.892   5.995  0.00  0.00    -0.387 OA
BRANCH  26  27
HETATM   27  C   UNK N   1      34.307  17.246   7.201  0.00  0.00     0.193 C 
BRANCH  27  28
HETATM   28  C   UNK N   1      34.618  18.276   8.272  0.00  0.00     0.193 C 
BRANCH  28  29
HETATM   29  O   UNK N   1      34.698  17.656   9.516  0.00  0.00    -0.394 OA
HETATM   30  C   UNK N   1      34.334  16.335   9.264  0.00  0.00     0.201 C 
ENDBRANCH  28  29
ENDBRANCH  27  28
ENDBRANCH  26  27
ENDBRANCH  25  26
ENDBRANCH  24  25
ENDBRANCH  23  24
ENDBRANCH  22  23
ENDBRANCH  21  22
ENDBRANCH  20  21
ENDBRANCH   5  20
TORSDOF 14
ENDMDL
MODEL 5
REMARK VINA RESULT:      -5.7      9.410     13.927
REMARK  14 active torsions:
REMARK  status: ('A' for Active; 'I' for Inactive)
REMARK    1  A    between atoms: C_2  and  C_26 
REMARK    2  A    between atoms: C_5  and  C_8 
REMARK    3  A    between atoms: C_12  and  O_15 
REMARK    4  A    between atoms: C_13  and  O_14 
REMARK    5  A    between atoms: O_15  and  C_16 
REMARK    6  A    between atoms: C_16  and  C_17 
REMARK    7  A    between atoms: C_17  and  O_18 
REMARK    8  A    between atoms: O_18  and  C_19 
REMARK    9  A    between atoms: C_19  and  C_20 
REMARK   10  A    between atoms: C_20  and  O_21 
REMARK   11  A    between atoms: O_21  and  C_22 
REMARK   12  A    between atoms: C_22  and  C_23 
REMARK   13  A    between atoms: C_23  and  O_24 
REMARK   14  A    between atoms: C_26  and  O_28 
ROOT
HETATM    1  C   UNK N   1      23.574  19.112   3.843  0.00  0.00     0.033 A 
HETATM    2  C   UNK N   1      24.011  20.153   3.008  0.00  0.00     0.017 A 
HETATM    3  C   UNK N   1      25.325  20.613   3.071  0.00  0.00     0.004 A 
HETATM    4  C   UNK N   1      26.232  20.017   3.944  0.00  0.00     0.040 A 
HETATM    5  C   UNK N   1      25.838  18.956   4.768  0.00  0.00     0.102 A 
HETATM    6  C   UNK N   1      24.493  18.518   4.735  0.00  0.00     0.112 A 
ENDROOT
BRANCH   1   7
HETATM    7  C   UNK N   1      22.176  18.621   3.710  0.00  0.00     0.080 C 
HETATM    8  S   UNK N   1      20.787  19.732   3.552  0.00  0.00    -0.109 SA
HETATM    9  C   UNK N   1      19.905  18.329   2.787  0.00  0.00     0.122 C 
HETATM   10  C   UNK N   1      20.537  17.045   3.321  0.00  0.00     0.121 C 
HETATM   11  C   UNK N   1      20.507  15.993   2.227  0.00  0.00     0.051 C 
HETATM   12  N   UNK N   1      21.902  17.373   3.624  0.00  0.00    -0.365 N 
ATOM     13  HN  UNK N   1      22.612  16.654   3.762  1.00  0.00     0.161 HD
BRANCH  10  14
HETATM   14  C   UNK N   1      19.820  16.531   4.548  0.00  0.00     0.169 C 
HETATM   15  O   UNK N   1      20.456  16.183   5.529  0.00  0.00    -0.648 OA
BRANCH  14  16
HETATM   16  O   UNK N   1      18.474  16.437   4.562  0.00  0.00    -0.775 OA
HETATM   17  H   UNK N   1      17.996  15.942   5.197  0.00  0.00     0.167 HD
ENDBRANCH  14  16
ENDBRANCH  10  14
ENDBRANCH   1   7
BRANCH   6  18
HETATM   18  O   UNK N   1      24.092  17.518   5.546  0.00  0.00    -0.357 OA
HETATM   19  H   UNK N   1      24.379  17.483   6.437  0.00  0.00     0.217 HD
ENDBRANCH   6  18
BRANCH   5  20
HETATM   20  O   UNK N   1      26.776  18.375   5.552  0.00  0.00    -0.346 OA
BRANCH  20  21
HETATM   21  C   UNK N   1      28.021  18.925   5.786  0.00  0.00     0.201 C 
BRANCH  21  22
HETATM   22  C   UNK N   1      28.710  18.264   6.975  0.00  0.00     0.194 C 
BRANCH  22  23
HETATM   23  O   UNK N   1      28.370  18.893   8.181  0.00  0.00    -0.387 OA
BRANCH  23  24
HETATM   24  C   UNK N   1      29.335  18.489   9.106  0.00  0.00     0.193 C 
BRANCH  24  25
HETATM   25  C   UNK N   1      30.302  17.533   8.428  0.00  0.00     0.193 C 
BRANCH  25  26
HETATM   26  O   UNK N   1      31.613  17.925   8.702  0.00  0.00    -0.387 OA
BRANCH  26  27
HETATM   27  C   UNK N   1      32.350  17.596   7.562  0.00  0.00     0.193 C 
BRANCH  27  28
HETATM   28  C   UNK N   1      33.814  17.932   7.784  0.00  0.00     0.193 C 
BRANCH  28  29
HETATM   29  O   UNK N   1      34.562  17.550   6.674  0.00  0.00    -0.394 OA
HETATM   30  C   UNK N   1      34.571  16.157   6.732  0.00  0.00     0.201 C 
ENDBRANCH  28  29
ENDBRANCH  27  28
ENDBRANCH  26  27
ENDBRANCH  25  26
ENDBRANCH  24  25
ENDBRANCH  23  24
ENDBRANCH  22  23
ENDBRANCH  21  22
ENDBRANCH  20  21
ENDBRANCH   5  20
TORSDOF 14
ENDMDL
MODEL 6
REMARK VINA RESULT:      -5.7      2.542      3.497
REMARK  14 active torsions:
REMARK  status: ('A' for Active; 'I' for Inactive)
REMARK    1  A    between atoms: C_2  and  C_26 
REMARK    2  A    between atoms: C_5  and  C_8 
REMARK    3  A    between atoms: C_12  and  O_15 
REMARK    4  A    between atoms: C_13  and  O_14 
REMARK    5  A    between atoms: O_15  and  C_16 
REMARK    6  A    between atoms: C_16  and  C_17 
REMARK    7  A    between atoms: C_17  and  O_18 
REMARK    8  A    between atoms: O_18  and  C_19 
REMARK    9  A    between atoms: C_19  and  C_20 
REMARK   10  A    between atoms: C_20  and  O_21 
REMARK   11  A    between atoms: O_21  and  C_22 
REMARK   12  A    between atoms: C_22  and  C_23 
REMARK   13  A    between atoms: C_23  and  O_24 
REMARK   14  A    between atoms: C_26  and  O_28 
ROOT
HETATM    1  C   UNK N   1      35.520  14.507  10.032  0.00  0.00     0.033 A 
HETATM    2  C   UNK N   1      36.798  13.941   9.895  0.00  0.00     0.017 A 
HETATM    3  C   UNK N   1      37.432  13.341  10.982  0.00  0.00     0.004 A 
HETATM    4  C   UNK N   1      36.784  13.266  12.213  0.00  0.00     0.040 A 
HETATM    5  C   UNK N   1      35.497  13.792  12.376  0.00  0.00     0.102 A 
HETATM    6  C   UNK N   1      34.871  14.439  11.284  0.00  0.00     0.112 A 
ENDROOT
BRANCH   1   7
HETATM    7  C   UNK N   1      34.862  15.097   8.835  0.00  0.00     0.080 C 
HETATM    8  S   UNK N   1      34.916  14.310   7.233  0.00  0.00    -0.109 SA
HETATM    9  C   UNK N   1      33.415  15.272   6.843  0.00  0.00     0.122 C 
HETATM   10  C   UNK N   1      33.432  16.523   7.720  0.00  0.00     0.121 C 
HETATM   11  C   UNK N   1      32.004  16.878   8.093  0.00  0.00     0.051 C 
HETATM   12  N   UNK N   1      34.155  16.162   8.908  0.00  0.00    -0.365 N 
ATOM     13  HN  UNK N   1      34.107  16.721   9.759  1.00  0.00     0.161 HD
BRANCH  10  14
HETATM   14  C   UNK N   1      34.087  17.692   7.023  0.00  0.00     0.169 C 
HETATM   15  O   UNK N   1      34.018  17.800   5.809  0.00  0.00    -0.648 OA
BRANCH  14  16
HETATM   16  O   UNK N   1      34.767  18.616   7.733  0.00  0.00    -0.775 OA
HETATM   17  H   UNK N   1      35.392  18.403   8.397  0.00  0.00     0.167 HD
ENDBRANCH  14  16
ENDBRANCH  10  14
ENDBRANCH   1   7
BRANCH   6  18
HETATM   18  O   UNK N   1      33.645  14.978  11.435  0.00  0.00    -0.357 OA
HETATM   19  H   UNK N   1      33.037  14.989  10.723  0.00  0.00     0.217 HD
ENDBRANCH   6  18
BRANCH   5  20
HETATM   20  O   UNK N   1      34.891  13.637  13.576  0.00  0.00    -0.346 OA
BRANCH  20  21
HETATM   21  C   UNK N   1      35.574  13.362  14.744  0.00  0.00     0.201 C 
BRANCH  21  22
HETATM   22  C   UNK N   1      34.731  12.527  15.703  0.00  0.00     0.194 C 
BRANCH  22  23
HETATM   23  O   UNK N   1      33.624  11.963  15.055  0.00  0.00    -0.387 OA
BRANCH  23  24
HETATM   24  C   UNK N   1      33.931  10.611  14.883  0.00  0.00     0.193 C 
BRANCH  24  25
HETATM   25  C   UNK N   1      34.007  10.306  13.396  0.00  0.00     0.193 C 
BRANCH  25  26
HETATM   26  O   UNK N   1      34.912   9.267  13.181  0.00  0.00    -0.387 OA
BRANCH  26  27
HETATM   27  C   UNK N   1      35.843   9.762  12.263  0.00  0.00     0.193 C 
BRANCH  27  28
HETATM   28  C   UNK N   1      37.247   9.580  12.810  0.00  0.00     0.193 C 
BRANCH  28  29
HETATM   29  O   UNK N   1      37.253   8.580  13.779  0.00  0.00    -0.394 OA
HETATM   30  C   UNK N   1      38.160   9.036  14.735  0.00  0.00     0.201 C 
ENDBRANCH  28  29
ENDBRANCH  27  28
ENDBRANCH  26  27
ENDBRANCH  25  26
ENDBRANCH  24  25
ENDBRANCH  23  24
ENDBRANCH  22  23
ENDBRANCH  21  22
ENDBRANCH  20  21
ENDBRANCH   5  20
TORSDOF 14
ENDMDL
MODEL 7
REMARK VINA RESULT:      -5.6      9.994     15.625
REMARK  14 active torsions:
REMARK  status: ('A' for Active; 'I' for Inactive)
REMARK    1  A    between atoms: C_2  and  C_26 
REMARK    2  A    between atoms: C_5  and  C_8 
REMARK    3  A    between atoms: C_12  and  O_15 
REMARK    4  A    between atoms: C_13  and  O_14 
REMARK    5  A    between atoms: O_15  and  C_16 
REMARK    6  A    between atoms: C_16  and  C_17 
REMARK    7  A    between atoms: C_17  and  O_18 
REMARK    8  A    between atoms: O_18  and  C_19 
REMARK    9  A    between atoms: C_19  and  C_20 
REMARK   10  A    between atoms: C_20  and  O_21 
REMARK   11  A    between atoms: O_21  and  C_22 
REMARK   12  A    between atoms: C_22  and  C_23 
REMARK   13  A    between atoms: C_23  and  O_24 
REMARK   14  A    between atoms: C_26  and  O_28 
ROOT
HETATM    1  C   UNK N   1      26.092  18.853   4.658  0.00  0.00     0.033 A 
HETATM    2  C   UNK N   1      26.888  19.678   3.847  0.00  0.00     0.017 A 
HETATM    3  C   UNK N   1      26.306  20.547   2.926  0.00  0.00     0.004 A 
HETATM    4  C   UNK N   1      24.919  20.632   2.825  0.00  0.00     0.040 A 
HETATM    5  C   UNK N   1      24.096  19.846   3.641  0.00  0.00     0.102 A 
HETATM    6  C   UNK N   1      24.687  18.932   4.545  0.00  0.00     0.112 A 
ENDROOT
BRANCH   1   7
HETATM    7  C   UNK N   1      26.753  17.974   5.659  0.00  0.00     0.080 C 
HETATM    8  S   UNK N   1      26.568  16.198   5.637  0.00  0.00    -0.109 SA
HETATM    9  C   UNK N   1      28.132  16.143   6.577  0.00  0.00     0.122 C 
HETATM   10  C   UNK N   1      28.260  17.465   7.331  0.00  0.00     0.121 C 
HETATM   11  C   UNK N   1      29.727  17.848   7.401  0.00  0.00     0.051 C 
HETATM   12  N   UNK N   1      27.554  18.438   6.544  0.00  0.00    -0.365 N 
ATOM     13  HN  UNK N   1      27.685  19.440   6.681  1.00  0.00     0.161 HD
BRANCH  10  14
HETATM   14  C   UNK N   1      27.685  17.378   8.725  0.00  0.00     0.169 C 
HETATM   15  O   UNK N   1      27.325  16.301   9.173  0.00  0.00    -0.648 OA
BRANCH  14  16
HETATM   16  O   UNK N   1      27.548  18.489   9.477  0.00  0.00    -0.775 OA
HETATM   17  H   UNK N   1      28.208  19.150   9.550  0.00  0.00     0.167 HD
ENDBRANCH  14  16
ENDBRANCH  10  14
ENDBRANCH   1   7
BRANCH   6  18
HETATM   18  O   UNK N   1      23.906  18.147   5.314  0.00  0.00    -0.357 OA
HETATM   19  H   UNK N   1      24.205  17.848   6.150  0.00  0.00     0.217 HD
ENDBRANCH   6  18
BRANCH   5  20
HETATM   20  O   UNK N   1      22.756  20.012   3.543  0.00  0.00    -0.346 OA
BRANCH  20  21
HETATM   21  C   UNK N   1      22.142  20.647   2.482  0.00  0.00     0.201 C 
BRANCH  21  22
HETATM   22  C   UNK N   1      20.623  20.541   2.568  0.00  0.00     0.194 C 
BRANCH  22  23
HETATM   23  O   UNK N   1      20.229  19.558   3.485  0.00  0.00    -0.387 OA
BRANCH  23  24
HETATM   24  C   UNK N   1      19.471  18.639   2.755  0.00  0.00     0.193 C 
BRANCH  24  25
HETATM   25  C   UNK N   1      19.847  17.232   3.189  0.00  0.00     0.193 C 
BRANCH  25  26
HETATM   26  O   UNK N   1      20.870  16.750   2.373  0.00  0.00    -0.387 OA
BRANCH  26  27
HETATM   27  C   UNK N   1      21.811  16.189   3.240  0.00  0.00     0.193 C 
BRANCH  27  28
HETATM   28  C   UNK N   1      21.239  16.126   4.644  0.00  0.00     0.193 C 
BRANCH  28  29
HETATM   29  O   UNK N   1      22.206  15.658   5.530  0.00  0.00    -0.394 OA
HETATM   30  C   UNK N   1      22.965  14.770   4.769  0.00  0.00     0.201 C 
ENDBRANCH  28  29
ENDBRANCH  27  28
ENDBRANCH  26  27
ENDBRANCH  25  26
ENDBRANCH  24  25
ENDBRANCH  23  24
ENDBRANCH  22  23
ENDBRANCH  21  22
ENDBRANCH  20  21
ENDBRANCH   5  20
TORSDOF 14
ENDMDL
MODEL 8
REMARK VINA RESULT:      -5.6      7.219     13.849
REMARK  14 active torsions:
REMARK  status: ('A' for Active; 'I' for Inactive)
REMARK    1  A    between atoms: C_2  and  C_26 
REMARK    2  A    between atoms: C_5  and  C_8 
REMARK    3  A    between atoms: C_12  and  O_15 
REMARK    4  A    between atoms: C_13  and  O_14 
REMARK    5  A    between atoms: O_15  and  C_16 
REMARK    6  A    between atoms: C_16  and  C_17 
REMARK    7  A    between atoms: C_17  and  O_18 
REMARK    8  A    between atoms: O_18  and  C_19 
REMARK    9  A    between atoms: C_19  and  C_20 
REMARK   10  A    between atoms: C_20  and  O_21 
REMARK   11  A    between atoms: O_21  and  C_22 
REMARK   12  A    between atoms: C_22  and  C_23 
REMARK   13  A    between atoms: C_23  and  O_24 
REMARK   14  A    between atoms: C_26  and  O_28 
ROOT
HETATM    1  C   UNK N   1      30.232  17.702   7.855  0.00  0.00     0.033 A 
HETATM    2  C   UNK N   1      29.473  18.240   8.907  0.00  0.00     0.017 A 
HETATM    3  C   UNK N   1      28.153  18.637   8.703  0.00  0.00     0.004 A 
HETATM    4  C   UNK N   1      27.559  18.471   7.453  0.00  0.00     0.040 A 
HETATM    5  C   UNK N   1      28.278  17.909   6.391  0.00  0.00     0.102 A 
HETATM    6  C   UNK N   1      29.631  17.546   6.587  0.00  0.00     0.112 A 
ENDROOT
BRANCH   1   7
HETATM    7  C   UNK N   1      31.622  17.249   8.128  0.00  0.00     0.080 C 
HETATM    8  S   UNK N   1      31.984  15.902   9.244  0.00  0.00    -0.109 SA
HETATM    9  C   UNK N   1      33.562  15.736   8.342  0.00  0.00     0.122 C 
HETATM   10  C   UNK N   1      33.893  17.102   7.743  0.00  0.00     0.121 C 
HETATM   11  C   UNK N   1      34.592  16.896   6.412  0.00  0.00     0.051 C 
HETATM   12  N   UNK N   1      32.630  17.750   7.518  0.00  0.00    -0.365 N 
ATOM     13  HN  UNK N   1      32.542  18.562   6.906  1.00  0.00     0.161 HD
BRANCH  10  14
HETATM   14  C   UNK N   1      34.766  17.924   8.660  0.00  0.00     0.169 C 
HETATM   15  O   UNK N   1      35.046  19.077   8.371  0.00  0.00    -0.648 OA
BRANCH  14  16
HETATM   16  O   UNK N   1      35.256  17.389   9.797  0.00  0.00    -0.775 OA
HETATM   17  H   UNK N   1      35.614  17.897  10.498  0.00  0.00     0.167 HD
ENDBRANCH  14  16
ENDBRANCH  10  14
ENDBRANCH   1   7
BRANCH   6  18
HETATM   18  O   UNK N   1      30.344  17.033   5.564  0.00  0.00    -0.357 OA
HETATM   19  H   UNK N   1      30.965  16.347   5.711  0.00  0.00     0.217 HD
ENDBRANCH   6  18
BRANCH   5  20
HETATM   20  O   UNK N   1      27.633  17.715   5.217  0.00  0.00    -0.346 OA
BRANCH  20  21
HETATM   21  C   UNK N   1      27.777  18.544   4.122  0.00  0.00     0.201 C 
BRANCH  21  22
HETATM   22  C   UNK N   1      26.661  19.582   4.055  0.00  0.00     0.194 C 
BRANCH  22  23
HETATM   23  O   UNK N   1      25.680  19.222   3.121  0.00  0.00    -0.387 OA
BRANCH  23  24
HETATM   24  C   UNK N   1      24.962  20.390   2.855  0.00  0.00     0.193 C 
BRANCH  24  25
HETATM   25  C   UNK N   1      23.508  20.175   3.241  0.00  0.00     0.193 C 
BRANCH  25  26
HETATM   26  O   UNK N   1      22.686  20.918   2.393  0.00  0.00    -0.387 OA
BRANCH  26  27
HETATM   27  C   UNK N   1      21.399  20.407   2.573  0.00  0.00     0.193 C 
BRANCH  27  28
HETATM   28  C   UNK N   1      21.391  19.439   3.743  0.00  0.00     0.193 C 
BRANCH  28  29
HETATM   29  O   UNK N   1      20.521  18.384   3.480  0.00  0.00    -0.394 OA
HETATM   30  C   UNK N   1      20.229  18.512   2.123  0.00  0.00     0.201 C 
ENDBRANCH  28  29
ENDBRANCH  27  28
ENDBRANCH  26  27
ENDBRANCH  25  26
ENDBRANCH  24  25
ENDBRANCH  23  24
ENDBRANCH  22  23
ENDBRANCH  21  22
ENDBRANCH  20  21
ENDBRANCH   5  20
TORSDOF 14
ENDMDL
MODEL 9
REMARK VINA RESULT:      -5.5     19.869     23.120
REMARK  14 active torsions:
REMARK  status: ('A' for Active; 'I' for Inactive)
REMARK    1  A    between atoms: C_2  and  C_26 
REMARK    2  A    between atoms: C_5  and  C_8 
REMARK    3  A    between atoms: C_12  and  O_15 
REMARK    4  A    between atoms: C_13  and  O_14 
REMARK    5  A    between atoms: O_15  and  C_16 
REMARK    6  A    between atoms: C_16  and  C_17 
REMARK    7  A    between atoms: C_17  and  O_18 
REMARK    8  A    between atoms: O_18  and  C_19 
REMARK    9  A    between atoms: C_19  and  C_20 
REMARK   10  A    between atoms: C_20  and  O_21 
REMARK   11  A    between atoms: O_21  and  C_22 
REMARK   12  A    between atoms: C_22  and  C_23 
REMARK   13  A    between atoms: C_23  and  O_24 
REMARK   14  A    between atoms: C_26  and  O_28 
ROOT
HETATM    1  C   UNK N   1      29.048  24.000  -4.047  0.00  0.00     0.033 A 
HETATM    2  C   UNK N   1      29.778  23.755  -2.873  0.00  0.00     0.017 A 
HETATM    3  C   UNK N   1      30.487  22.566  -2.711  0.00  0.00     0.004 A 
HETATM    4  C   UNK N   1      30.507  21.619  -3.733  0.00  0.00     0.040 A 
HETATM    5  C   UNK N   1      29.816  21.846  -4.928  0.00  0.00     0.102 A 
HETATM    6  C   UNK N   1      29.060  23.033  -5.076  0.00  0.00     0.112 A 
ENDROOT
BRANCH   1   7
HETATM    7  C   UNK N   1      28.342  25.301  -4.198  0.00  0.00     0.080 C 
HETATM    8  S   UNK N   1      29.213  26.826  -4.519  0.00  0.00    -0.109 SA
HETATM    9  C   UNK N   1      27.635  27.446  -5.194  0.00  0.00     0.122 C 
HETATM   10  C   UNK N   1      26.509  26.666  -4.517  0.00  0.00     0.121 C 
HETATM   11  C   UNK N   1      25.379  26.477  -5.512  0.00  0.00     0.051 C 
HETATM   12  N   UNK N   1      27.064  25.383  -4.183  0.00  0.00    -0.365 N 
ATOM     13  HN  UNK N   1      26.474  24.585  -3.949  1.00  0.00     0.161 HD
BRANCH  10  14
HETATM   14  C   UNK N   1      25.996  27.370  -3.284  0.00  0.00     0.169 C 
HETATM   15  O   UNK N   1      26.078  26.832  -2.191  0.00  0.00    -0.648 OA
BRANCH  14  16
HETATM   16  O   UNK N   1      25.430  28.590  -3.380  0.00  0.00    -0.775 OA
HETATM   17  H   UNK N   1      24.868  28.955  -2.725  0.00  0.00     0.167 HD
ENDBRANCH  14  16
ENDBRANCH  10  14
ENDBRANCH   1   7
BRANCH   6  18
HETATM   18  O   UNK N   1      28.364  23.249  -6.210  0.00  0.00    -0.357 OA
HETATM   19  H   UNK N   1      28.322  24.105  -6.589  0.00  0.00     0.217 HD
ENDBRANCH   6  18
BRANCH   5  20
HETATM   20  O   UNK N   1      29.919  20.920  -5.910  0.00  0.00    -0.346 OA
BRANCH  20  21
HETATM   21  C   UNK N   1      31.036  20.779  -6.710  0.00  0.00     0.201 C 
BRANCH  21  22
HETATM   22  C   UNK N   1      30.677  20.850  -8.191  0.00  0.00     0.194 C 
BRANCH  22  23
HETATM   23  O   UNK N   1      29.508  21.593  -8.400  0.00  0.00    -0.387 OA
BRANCH  23  24
HETATM   24  C   UNK N   1      28.770  20.884  -9.351  0.00  0.00     0.193 C 
BRANCH  24  25
HETATM   25  C   UNK N   1      27.298  21.222  -9.188  0.00  0.00     0.193 C 
BRANCH  25  26
HETATM   26  O   UNK N   1      27.000  21.362  -7.832  0.00  0.00    -0.387 OA
BRANCH  26  27
HETATM   27  C   UNK N   1      25.605  21.335  -7.749  0.00  0.00     0.193 C 
BRANCH  27  28
HETATM   28  C   UNK N   1      25.025  22.517  -8.505  0.00  0.00     0.193 C 
BRANCH  28  29
HETATM   29  O   UNK N   1      25.182  23.681  -7.757  0.00  0.00    -0.394 OA
HETATM   30  C   UNK N   1      25.699  24.604  -8.665  0.00  0.00     0.201 C 
ENDBRANCH  28  29
ENDBRANCH  27  28
ENDBRANCH  26  27
ENDBRANCH  25  26
ENDBRANCH  24  25
ENDBRANCH  23  24
ENDBRANCH  22  23
ENDBRANCH  21  22
ENDBRANCH  20  21
ENDBRANCH   5  20
TORSDOF 14
ENDMDL
