MODEL 1
REMARK VINA RESULT:      -6.1      0.000      0.000
REMARK  6 active torsions:
REMARK  status: ('A' for Active; 'I' for Inactive)
REMARK    1  A    between atoms: C_2  and  C_11 
REMARK    2  A    between atoms: C_5  and  O_10 
REMARK    3  A    between atoms: C_7  and  C_8 
REMARK    4  A    between atoms: C_8  and  O_9 
REMARK    5  A    between atoms: C_16  and  C_17 
REMARK    6  A    between atoms: C_17  and  N_18 
ROOT
HETATM    1  C   UNK N   1      31.031  15.535   6.803  0.00  0.00     0.000 C 
HETATM    2  C   UNK N   1      30.914  14.437   5.743  0.00  0.00     0.007 C 
HETATM    3  C   UNK N   1      31.109  14.993   4.339  0.00  0.00     0.014 C 
HETATM    4  C   UNK N   1      30.077  16.068   3.979  0.00  0.00    -0.017 C 
HETATM    5  C   UNK N   1      29.982  17.178   5.043  0.00  0.00     0.004 C 
HETATM    6  C   UNK N   1      29.955  16.611   6.487  0.00  0.00     0.013 C 
HETATM    7  C   UNK N   1      28.600  17.785   4.776  0.00  0.00     0.010 C 
HETATM    8  C   UNK N   1      27.696  16.600   4.435  0.00  0.00     0.034 C 
HETATM    9  C   UNK N   1      28.659  15.602   3.901  0.00  0.00    -0.081 C 
HETATM   10  C   UNK N   1      28.255  14.606   3.106  0.00  0.00     0.015 C 
HETATM   11  C   UNK N   1      30.477  16.668   2.637  0.00  0.00     0.020 C 
ENDROOT
BRANCH   1  12
HETATM   12  C   UNK N   1      32.478  16.009   7.175  0.00  0.00    -0.034 C 
HETATM   13  C   UNK N   1      33.514  14.946   6.802  0.00  0.00     0.016 C 
HETATM   14  C   UNK N   1      32.730  17.287   6.353  0.00  0.00     0.012 C 
HETATM   15  C   UNK N   1      34.057  17.967   6.665  0.00  0.00     0.032 C 
HETATM   16  C   UNK N   1      34.079  18.361   8.130  0.00  0.00     0.118 C 
HETATM   17  C   UNK N   1      33.946  17.109   8.980  0.00  0.00     0.039 C 
HETATM   18  C   UNK N   1      32.619  16.392   8.687  0.00  0.00     0.020 C 
BRANCH  16  19
HETATM   19  O   UNK N   1      35.283  19.001   8.422  0.00  0.00    -0.396 OA
HETATM   20  H   UNK N   1      35.989  18.650   8.987  0.00  0.00     0.210 HD
ENDBRANCH  16  19
BRANCH  18  21
HETATM   21  C   UNK N   1      32.516  15.192   9.629  0.00  0.00     0.169 C 
BRANCH  21  22
HETATM   22  O   UNK N   1      31.387  15.304  10.443  0.00  0.00    -0.400 OA
HETATM   23  H   UNK N   1      31.247  15.998  11.106  0.00  0.00     0.209 HD
ENDBRANCH  21  22
ENDBRANCH  18  21
ENDBRANCH   1  12
BRANCH   6  24
HETATM   24  C   UNK N   1      29.734  17.689   7.555  0.00  0.00     0.116 C 
BRANCH  24  25
HETATM   25  N   UNK N   1      29.173  17.121   8.772  0.00  0.00    -0.430 N 
HETATM   26  H   UNK N   1      28.886  17.117   9.751  0.00  0.00     0.149 HD
HETATM   27  H   UNK N   1      28.920  16.179   8.471  0.00  0.00     0.149 HD
ENDBRANCH  24  25
ENDBRANCH   6  24
TORSDOF 6
ENDMDL
MODEL 2
REMARK VINA RESULT:      -5.9      8.339     10.885
REMARK  6 active torsions:
REMARK  status: ('A' for Active; 'I' for Inactive)
REMARK    1  A    between atoms: C_2  and  C_11 
REMARK    2  A    between atoms: C_5  and  O_10 
REMARK    3  A    between atoms: C_7  and  C_8 
REMARK    4  A    between atoms: C_8  and  O_9 
REMARK    5  A    between atoms: C_16  and  C_17 
REMARK    6  A    between atoms: C_17  and  N_18 
ROOT
HETATM    1  C   UNK N   1      22.678  15.436   6.901  0.00  0.00     0.000 C 
HETATM    2  C   UNK N   1      24.087  14.884   7.132  0.00  0.00     0.007 C 
HETATM    3  C   UNK N   1      24.118  13.366   7.014  0.00  0.00     0.014 C 
HETATM    4  C   UNK N   1      23.199  12.674   8.026  0.00  0.00    -0.017 C 
HETATM    5  C   UNK N   1      21.765  13.236   8.005  0.00  0.00     0.004 C 
HETATM    6  C   UNK N   1      21.739  14.787   7.954  0.00  0.00     0.013 C 
HETATM    7  C   UNK N   1      21.221  12.825   9.378  0.00  0.00     0.010 C 
HETATM    8  C   UNK N   1      22.389  13.008  10.348  0.00  0.00     0.034 C 
HETATM    9  C   UNK N   1      23.572  12.849   9.462  0.00  0.00    -0.081 C 
HETATM   10  C   UNK N   1      24.768  12.517   9.958  0.00  0.00     0.015 C 
HETATM   11  C   UNK N   1      23.179  11.186   7.697  0.00  0.00     0.020 C 
ENDROOT
BRANCH   1  12
HETATM   12  C   UNK N   1      22.189  15.527   5.415  0.00  0.00    -0.034 C 
HETATM   13  C   UNK N   1      23.365  15.764   4.465  0.00  0.00     0.016 C 
HETATM   14  C   UNK N   1      21.535  14.168   5.100  0.00  0.00     0.012 C 
HETATM   15  C   UNK N   1      20.891  14.100   3.721  0.00  0.00     0.032 C 
HETATM   16  C   UNK N   1      19.804  15.156   3.630  0.00  0.00     0.118 C 
HETATM   17  C   UNK N   1      20.429  16.526   3.824  0.00  0.00     0.039 C 
HETATM   18  C   UNK N   1      21.096  16.629   5.204  0.00  0.00     0.020 C 
BRANCH  16  19
HETATM   19  O   UNK N   1      19.196  15.090   2.378  0.00  0.00    -0.396 OA
HETATM   20  H   UNK N   1      19.172  15.803   1.720  0.00  0.00     0.210 HD
ENDBRANCH  16  19
BRANCH  18  21
HETATM   21  C   UNK N   1      21.632  18.053   5.362  0.00  0.00     0.169 C 
BRANCH  21  22
HETATM   22  O   UNK N   1      21.343  18.546   6.636  0.00  0.00    -0.400 OA
HETATM   23  H   UNK N   1      20.958  19.416   6.821  0.00  0.00     0.209 HD
ENDBRANCH  21  22
ENDBRANCH  18  21
ENDBRANCH   1  12
BRANCH   6  24
HETATM   24  C   UNK N   1      20.325  15.370   8.060  0.00  0.00     0.116 C 
BRANCH  24  25
HETATM   25  N   UNK N   1      20.329  16.640   8.773  0.00  0.00    -0.430 N 
HETATM   26  H   UNK N   1      20.747  17.433   9.259  0.00  0.00     0.149 HD
HETATM   27  H   UNK N   1      19.335  16.869   8.805  0.00  0.00     0.149 HD
ENDBRANCH  24  25
ENDBRANCH   6  24
TORSDOF 6
ENDMDL
MODEL 3
REMARK VINA RESULT:      -5.9      3.058      6.237
REMARK  6 active torsions:
REMARK  status: ('A' for Active; 'I' for Inactive)
REMARK    1  A    between atoms: C_2  and  C_11 
REMARK    2  A    between atoms: C_5  and  O_10 
REMARK    3  A    between atoms: C_7  and  C_8 
REMARK    4  A    between atoms: C_8  and  O_9 
REMARK    5  A    between atoms: C_16  and  C_17 
REMARK    6  A    between atoms: C_17  and  N_18 
ROOT
HETATM    1  C   UNK N   1      28.930  17.678   5.589  0.00  0.00     0.000 C 
HETATM    2  C   UNK N   1      30.215  17.710   4.756  0.00  0.00     0.007 C 
HETATM    3  C   UNK N   1      31.062  16.466   4.990  0.00  0.00     0.014 C 
HETATM    4  C   UNK N   1      31.486  16.305   6.454  0.00  0.00    -0.017 C 
HETATM    5  C   UNK N   1      30.297  16.398   7.429  0.00  0.00     0.004 C 
HETATM    6  C   UNK N   1      29.340  17.569   7.083  0.00  0.00     0.013 C 
HETATM    7  C   UNK N   1      30.976  16.753   8.757  0.00  0.00     0.010 C 
HETATM    8  C   UNK N   1      32.093  17.732   8.392  0.00  0.00     0.034 C 
HETATM    9  C   UNK N   1      32.395  17.366   6.983  0.00  0.00    -0.081 C 
HETATM   10  C   UNK N   1      33.571  17.673   6.426  0.00  0.00     0.015 C 
HETATM   11  C   UNK N   1      32.169  14.950   6.594  0.00  0.00     0.020 C 
ENDROOT
BRANCH   1  12
HETATM   12  C   UNK N   1      27.768  16.768   5.062  0.00  0.00    -0.034 C 
HETATM   13  C   UNK N   1      27.800  16.670   3.535  0.00  0.00     0.016 C 
HETATM   14  C   UNK N   1      28.008  15.376   5.675  0.00  0.00     0.012 C 
HETATM   15  C   UNK N   1      26.907  14.370   5.366  0.00  0.00     0.032 C 
HETATM   16  C   UNK N   1      25.593  14.887   5.922  0.00  0.00     0.118 C 
HETATM   17  C   UNK N   1      25.262  16.212   5.257  0.00  0.00     0.039 C 
HETATM   18  C   UNK N   1      26.357  17.251   5.541  0.00  0.00     0.020 C 
BRANCH  16  19
HETATM   19  O   UNK N   1      24.582  13.964   5.661  0.00  0.00    -0.396 OA
HETATM   20  H   UNK N   1      24.189  13.355   6.305  0.00  0.00     0.210 HD
ENDBRANCH  16  19
BRANCH  18  21
HETATM   21  C   UNK N   1      25.922  18.575   4.912  0.00  0.00     0.169 C 
BRANCH  21  22
HETATM   22  O   UNK N   1      25.858  19.579   5.879  0.00  0.00    -0.400 OA
HETATM   23  H   UNK N   1      25.990  19.444   6.830  0.00  0.00     0.209 HD
ENDBRANCH  21  22
ENDBRANCH  18  21
ENDBRANCH   1  12
BRANCH   6  24
HETATM   24  C   UNK N   1      28.221  17.758   8.113  0.00  0.00     0.116 C 
BRANCH  24  25
HETATM   25  N   UNK N   1      27.809  19.151   8.198  0.00  0.00    -0.430 N 
HETATM   26  H   UNK N   1      27.151  19.922   8.318  0.00  0.00     0.149 HD
HETATM   27  H   UNK N   1      28.691  19.644   8.054  0.00  0.00     0.149 HD
ENDBRANCH  24  25
ENDBRANCH   6  24
TORSDOF 6
ENDMDL
MODEL 4
REMARK VINA RESULT:      -5.8      6.252      9.840
REMARK  6 active torsions:
REMARK  status: ('A' for Active; 'I' for Inactive)
REMARK    1  A    between atoms: C_2  and  C_11 
REMARK    2  A    between atoms: C_5  and  O_10 
REMARK    3  A    between atoms: C_7  and  C_8 
REMARK    4  A    between atoms: C_8  and  O_9 
REMARK    5  A    between atoms: C_16  and  C_17 
REMARK    6  A    between atoms: C_17  and  N_18 
ROOT
HETATM    1  C   UNK N   1      36.625  12.754  12.501  0.00  0.00     0.000 C 
HETATM    2  C   UNK N   1      36.648  11.225  12.582  0.00  0.00     0.007 C 
HETATM    3  C   UNK N   1      35.305  10.670  13.037  0.00  0.00     0.014 C 
HETATM    4  C   UNK N   1      34.891  11.181  14.421  0.00  0.00    -0.017 C 
HETATM    5  C   UNK N   1      34.960  12.716  14.531  0.00  0.00     0.004 C 
HETATM    6  C   UNK N   1      36.259  13.295  13.910  0.00  0.00     0.013 C 
HETATM    7  C   UNK N   1      35.049  12.944  16.044  0.00  0.00     0.010 C 
HETATM    8  C   UNK N   1      35.954  11.828  16.569  0.00  0.00     0.034 C 
HETATM    9  C   UNK N   1      35.767  10.758  15.555  0.00  0.00    -0.081 C 
HETATM   10  C   UNK N   1      36.033   9.479  15.842  0.00  0.00     0.015 C 
HETATM   11  C   UNK N   1      33.469  10.705  14.689  0.00  0.00     0.020 C 
ENDROOT
BRANCH   1  12
HETATM   12  C   UNK N   1      35.922  13.385  11.250  0.00  0.00    -0.034 C 
HETATM   13  C   UNK N   1      35.538  12.306  10.236  0.00  0.00     0.016 C 
HETATM   14  C   UNK N   1      34.650  14.073  11.781  0.00  0.00     0.012 C 
HETATM   15  C   UNK N   1      33.881  14.849  10.718  0.00  0.00     0.032 C 
HETATM   16  C   UNK N   1      34.778  15.934  10.152  0.00  0.00     0.118 C 
HETATM   17  C   UNK N   1      35.996  15.286   9.516  0.00  0.00     0.039 C 
HETATM   18  C   UNK N   1      36.793  14.488  10.559  0.00  0.00     0.020 C 
BRANCH  16  19
HETATM   19  O   UNK N   1      34.078  16.661   9.191  0.00  0.00    -0.396 OA
HETATM   20  H   UNK N   1      34.230  17.592   8.962  0.00  0.00     0.210 HD
ENDBRANCH  16  19
BRANCH  18  21
HETATM   21  C   UNK N   1      38.041  13.933   9.871  0.00  0.00     0.169 C 
BRANCH  21  22
HETATM   22  O   UNK N   1      39.040  14.906   9.810  0.00  0.00    -0.400 OA
HETATM   23  H   UNK N   1      39.725  14.958   9.125  0.00  0.00     0.209 HD
ENDBRANCH  21  22
ENDBRANCH  18  21
ENDBRANCH   1  12
BRANCH   6  24
HETATM   24  C   UNK N   1      36.408  14.806  14.120  0.00  0.00     0.116 C 
BRANCH  24  25
HETATM   25  N   UNK N   1      37.450  15.105  15.091  0.00  0.00    -0.430 N 
HETATM   26  H   UNK N   1      38.200  15.654  15.513  0.00  0.00     0.149 HD
HETATM   27  H   UNK N   1      37.405  14.295  15.710  0.00  0.00     0.149 HD
ENDBRANCH  24  25
ENDBRANCH   6  24
TORSDOF 6
ENDMDL
MODEL 5
REMARK VINA RESULT:      -5.8     12.566     15.107
REMARK  6 active torsions:
REMARK  status: ('A' for Active; 'I' for Inactive)
REMARK    1  A    between atoms: C_2  and  C_11 
REMARK    2  A    between atoms: C_5  and  O_10 
REMARK    3  A    between atoms: C_7  and  C_8 
REMARK    4  A    between atoms: C_8  and  O_9 
REMARK    5  A    between atoms: C_16  and  C_17 
REMARK    6  A    between atoms: C_17  and  N_18 
ROOT
HETATM    1  C   UNK N   1      28.553  25.329  -5.783  0.00  0.00     0.000 C 
HETATM    2  C   UNK N   1      29.067  26.686  -6.274  0.00  0.00     0.007 C 
HETATM    3  C   UNK N   1      29.469  27.584  -5.112  0.00  0.00     0.014 C 
HETATM    4  C   UNK N   1      28.307  27.870  -4.154  0.00  0.00    -0.017 C 
HETATM    5  C   UNK N   1      27.596  26.586  -3.686  0.00  0.00     0.004 C 
HETATM    6  C   UNK N   1      27.339  25.594  -4.852  0.00  0.00     0.013 C 
HETATM    7  C   UNK N   1      26.227  27.104  -3.231  0.00  0.00     0.010 C 
HETATM    8  C   UNK N   1      25.847  28.186  -4.243  0.00  0.00     0.034 C 
HETATM    9  C   UNK N   1      27.171  28.651  -4.731  0.00  0.00    -0.081 C 
HETATM   10  C   UNK N   1      27.318  29.854  -5.296  0.00  0.00     0.015 C 
HETATM   11  C   UNK N   1      28.867  28.621  -2.953  0.00  0.00     0.020 C 
ENDROOT
BRANCH   1  12
HETATM   12  C   UNK N   1      29.632  24.286  -5.330  0.00  0.00    -0.034 C 
HETATM   13  C   UNK N   1      30.911  24.428  -6.159  0.00  0.00     0.016 C 
HETATM   14  C   UNK N   1      29.935  24.604  -3.854  0.00  0.00     0.012 C 
HETATM   15  C   UNK N   1      30.890  23.615  -3.196  0.00  0.00     0.032 C 
HETATM   16  C   UNK N   1      30.276  22.229  -3.243  0.00  0.00     0.118 C 
HETATM   17  C   UNK N   1      30.064  21.831  -4.693  0.00  0.00     0.039 C 
HETATM   18  C   UNK N   1      29.110  22.811  -5.392  0.00  0.00     0.020 C 
BRANCH  16  19
HETATM   19  O   UNK N   1      31.134  21.319  -2.626  0.00  0.00    -0.396 OA
HETATM   20  H   UNK N   1      31.370  20.442  -2.966  0.00  0.00     0.210 HD
ENDBRANCH  16  19
BRANCH  18  21
HETATM   21  C   UNK N   1      28.881  22.307  -6.817  0.00  0.00     0.169 C 
BRANCH  21  22
HETATM   22  O   UNK N   1      27.515  22.215  -7.090  0.00  0.00    -0.400 OA
HETATM   23  H   UNK N   1      26.811  22.275  -6.427  0.00  0.00     0.209 HD
ENDBRANCH  21  22
ENDBRANCH  18  21
ENDBRANCH   1  12
BRANCH   6  24
HETATM   24  C   UNK N   1      26.521  24.368  -4.431  0.00  0.00     0.116 C 
BRANCH  24  25
HETATM   25  N   UNK N   1      25.551  24.003  -5.454  0.00  0.00    -0.430 N 
HETATM   26  H   UNK N   1      24.793  23.459  -5.865  0.00  0.00     0.149 HD
HETATM   27  H   UNK N   1      25.741  24.691  -6.183  0.00  0.00     0.149 HD
ENDBRANCH  24  25
ENDBRANCH   6  24
TORSDOF 6
ENDMDL
MODEL 6
REMARK VINA RESULT:      -5.8     14.690     17.019
REMARK  6 active torsions:
REMARK  status: ('A' for Active; 'I' for Inactive)
REMARK    1  A    between atoms: C_2  and  C_11 
REMARK    2  A    between atoms: C_5  and  O_10 
REMARK    3  A    between atoms: C_7  and  C_8 
REMARK    4  A    between atoms: C_8  and  O_9 
REMARK    5  A    between atoms: C_16  and  C_17 
REMARK    6  A    between atoms: C_17  and  N_18 
ROOT
HETATM    1  C   UNK N   1      26.879  26.965  -4.126  0.00  0.00     0.000 C 
HETATM    2  C   UNK N   1      26.135  28.109  -3.430  0.00  0.00     0.007 C 
HETATM    3  C   UNK N   1      26.463  29.454  -4.062  0.00  0.00     0.014 C 
HETATM    4  C   UNK N   1      27.956  29.792  -3.998  0.00  0.00    -0.017 C 
HETATM    5  C   UNK N   1      28.844  28.656  -4.540  0.00  0.00     0.004 C 
HETATM    6  C   UNK N   1      28.400  27.261  -4.024  0.00  0.00     0.013 C 
HETATM    7  C   UNK N   1      30.205  28.955  -3.900  0.00  0.00     0.010 C 
HETATM    8  C   UNK N   1      29.889  29.434  -2.481  0.00  0.00     0.034 C 
HETATM    9  C   UNK N   1      28.516  29.985  -2.626  0.00  0.00    -0.081 C 
HETATM   10  C   UNK N   1      28.031  30.873  -1.751  0.00  0.00     0.015 C 
HETATM   11  C   UNK N   1      28.183  31.061  -4.809  0.00  0.00     0.020 C 
ENDROOT
BRANCH   1  12
HETATM   12  C   UNK N   1      26.300  26.478  -5.499  0.00  0.00    -0.034 C 
HETATM   13  C   UNK N   1      24.827  26.869  -5.641  0.00  0.00     0.016 C 
HETATM   14  C   UNK N   1      27.131  27.187  -6.585  0.00  0.00     0.012 C 
HETATM   15  C   UNK N   1      26.789  26.751  -8.004  0.00  0.00     0.032 C 
HETATM   16  C   UNK N   1      27.046  25.262  -8.140  0.00  0.00     0.118 C 
HETATM   17  C   UNK N   1      26.159  24.516  -7.159  0.00  0.00     0.039 C 
HETATM   18  C   UNK N   1      26.472  24.936  -5.715  0.00  0.00     0.020 C 
BRANCH  16  19
HETATM   19  O   UNK N   1      26.753  24.856  -9.441  0.00  0.00    -0.396 OA
HETATM   20  H   UNK N   1      26.405  25.423 -10.147  0.00  0.00     0.210 HD
ENDBRANCH  16  19
BRANCH  18  21
HETATM   21  C   UNK N   1      25.602  24.093  -4.781  0.00  0.00     0.169 C 
BRANCH  21  22
HETATM   22  O   UNK N   1      26.218  23.949  -3.537  0.00  0.00    -0.400 OA
HETATM   23  H   UNK N   1      26.164  24.591  -2.812  0.00  0.00     0.209 HD
ENDBRANCH  21  22
ENDBRANCH  18  21
ENDBRANCH   1  12
BRANCH   6  24
HETATM   24  C   UNK N   1      29.345  26.132  -4.449  0.00  0.00     0.116 C 
BRANCH  24  25
HETATM   25  N   UNK N   1      29.212  24.974  -3.576  0.00  0.00    -0.430 N 
HETATM   26  H   UNK N   1      29.216  23.982  -3.339  0.00  0.00     0.149 HD
HETATM   27  H   UNK N   1      28.980  25.407  -2.682  0.00  0.00     0.149 HD
ENDBRANCH  24  25
ENDBRANCH   6  24
TORSDOF 6
ENDMDL
MODEL 7
REMARK VINA RESULT:      -5.8      3.602      5.360
REMARK  6 active torsions:
REMARK  status: ('A' for Active; 'I' for Inactive)
REMARK    1  A    between atoms: C_2  and  C_11 
REMARK    2  A    between atoms: C_5  and  O_10 
REMARK    3  A    between atoms: C_7  and  C_8 
REMARK    4  A    between atoms: C_8  and  O_9 
REMARK    5  A    between atoms: C_16  and  C_17 
REMARK    6  A    between atoms: C_17  and  N_18 
ROOT
HETATM    1  C   UNK N   1      34.053  14.432   9.318  0.00  0.00     0.000 C 
HETATM    2  C   UNK N   1      32.829  14.207   8.426  0.00  0.00     0.007 C 
HETATM    3  C   UNK N   1      33.085  14.669   6.999  0.00  0.00     0.014 C 
HETATM    4  C   UNK N   1      33.429  16.160   6.911  0.00  0.00    -0.017 C 
HETATM    5  C   UNK N   1      34.563  16.564   7.872  0.00  0.00     0.004 C 
HETATM    6  C   UNK N   1      34.386  15.949   9.286  0.00  0.00     0.013 C 
HETATM    7  C   UNK N   1      34.362  18.077   8.015  0.00  0.00     0.010 C 
HETATM    8  C   UNK N   1      32.847  18.282   8.059  0.00  0.00     0.034 C 
HETATM    9  C   UNK N   1      32.340  17.099   7.317  0.00  0.00    -0.081 C 
HETATM   10  C   UNK N   1      31.124  17.100   6.760  0.00  0.00     0.015 C 
HETATM   11  C   UNK N   1      33.834  16.461   5.473  0.00  0.00     0.020 C 
ENDROOT
BRANCH   1  12
HETATM   12  C   UNK N   1      35.228  13.404   9.179  0.00  0.00    -0.034 C 
HETATM   13  C   UNK N   1      34.736  12.092   8.564  0.00  0.00     0.016 C 
HETATM   14  C   UNK N   1      36.258  14.061   8.242  0.00  0.00     0.012 C 
HETATM   15  C   UNK N   1      37.539  13.253   8.073  0.00  0.00     0.032 C 
HETATM   16  C   UNK N   1      38.202  13.087   9.427  0.00  0.00     0.118 C 
HETATM   17  C   UNK N   1      37.257  12.339  10.352  0.00  0.00     0.039 C 
HETATM   18  C   UNK N   1      35.950  13.123  10.541  0.00  0.00     0.020 C 
BRANCH  16  19
HETATM   19  O   UNK N   1      39.385  12.363   9.280  0.00  0.00    -0.396 OA
HETATM   20  H   UNK N   1      39.773  11.770   9.942  0.00  0.00     0.210 HD
ENDBRANCH  16  19
BRANCH  18  21
HETATM   21  C   UNK N   1      35.083  12.356  11.540  0.00  0.00     0.169 C 
BRANCH  21  22
HETATM   22  O   UNK N   1      34.510  13.231  12.464  0.00  0.00    -0.400 OA
HETATM   23  H   UNK N   1      33.626  13.623  12.385  0.00  0.00     0.209 HD
ENDBRANCH  21  22
ENDBRANCH  18  21
ENDBRANCH   1  12
BRANCH   6  24
HETATM   24  C   UNK N   1      35.433  16.439  10.292  0.00  0.00     0.116 C 
BRANCH  24  25
HETATM   25  N   UNK N   1      35.016  16.174  11.662  0.00  0.00    -0.430 N 
HETATM   26  H   UNK N   1      35.095  15.779  12.599  0.00  0.00     0.149 HD
HETATM   27  H   UNK N   1      34.128  16.674  11.715  0.00  0.00     0.149 HD
ENDBRANCH  24  25
ENDBRANCH   6  24
TORSDOF 6
ENDMDL
MODEL 8
REMARK VINA RESULT:      -5.4     12.191     13.802
REMARK  6 active torsions:
REMARK  status: ('A' for Active; 'I' for Inactive)
REMARK    1  A    between atoms: C_2  and  C_11 
REMARK    2  A    between atoms: C_5  and  O_10 
REMARK    3  A    between atoms: C_7  and  C_8 
REMARK    4  A    between atoms: C_8  and  O_9 
REMARK    5  A    between atoms: C_16  and  C_17 
REMARK    6  A    between atoms: C_17  and  N_18 
ROOT
HETATM    1  C   UNK N   1      41.780  22.215   1.776  0.00  0.00     0.000 C 
HETATM    2  C   UNK N   1      40.280  21.943   1.632  0.00  0.00     0.007 C 
HETATM    3  C   UNK N   1      39.988  21.042   0.440  0.00  0.00     0.014 C 
HETATM    4  C   UNK N   1      40.458  21.645  -0.888  0.00  0.00    -0.017 C 
HETATM    5  C   UNK N   1      41.928  22.103  -0.843  0.00  0.00     0.004 C 
HETATM    6  C   UNK N   1      42.267  22.877   0.458  0.00  0.00     0.013 C 
HETATM    7  C   UNK N   1      42.004  23.110  -1.996  0.00  0.00     0.010 C 
HETATM    8  C   UNK N   1      40.681  23.877  -1.951  0.00  0.00     0.034 C 
HETATM    9  C   UNK N   1      39.764  22.900  -1.309  0.00  0.00    -0.081 C 
HETATM   10  C   UNK N   1      38.438  22.993  -1.460  0.00  0.00     0.015 C 
HETATM   11  C   UNK N   1      40.274  20.589  -1.971  0.00  0.00     0.020 C 
ENDROOT
BRANCH   1  12
HETATM   12  C   UNK N   1      42.649  21.073   2.406  0.00  0.00    -0.034 C 
HETATM   13  C   UNK N   1      41.825  20.238   3.389  0.00  0.00     0.016 C 
HETATM   14  C   UNK N   1      43.104  20.188   1.230  0.00  0.00     0.012 C 
HETATM   15  C   UNK N   1      44.063  19.075   1.633  0.00  0.00     0.032 C 
HETATM   16  C   UNK N   1      45.308  19.691   2.243  0.00  0.00     0.118 C 
HETATM   17  C   UNK N   1      44.914  20.484   3.477  0.00  0.00     0.039 C 
HETATM   18  C   UNK N   1      43.940  21.613   3.109  0.00  0.00     0.020 C 
BRANCH  16  19
HETATM   19  O   UNK N   1      46.200  18.681   2.598  0.00  0.00    -0.396 OA
HETATM   20  H   UNK N   1      46.730  18.149   1.983  0.00  0.00     0.210 HD
ENDBRANCH  16  19
BRANCH  18  21
HETATM   21  C   UNK N   1      43.650  22.415   4.378  0.00  0.00     0.169 C 
BRANCH  21  22
HETATM   22  O   UNK N   1      43.635  23.783   4.101  0.00  0.00    -0.400 OA
HETATM   23  H   UNK N   1      43.174  24.452   4.629  0.00  0.00     0.209 HD
ENDBRANCH  21  22
ENDBRANCH  18  21
ENDBRANCH   1  12
BRANCH   6  24
HETATM   24  C   UNK N   1      43.689  23.450   0.466  0.00  0.00     0.116 C 
BRANCH  24  25
HETATM   25  N   UNK N   1      43.743  24.722   1.173  0.00  0.00    -0.430 N 
HETATM   26  H   UNK N   1      43.362  25.529   1.666  0.00  0.00     0.149 HD
HETATM   27  H   UNK N   1      44.743  24.922   1.176  0.00  0.00     0.149 HD
ENDBRANCH  24  25
ENDBRANCH   6  24
TORSDOF 6
ENDMDL
MODEL 9
REMARK VINA RESULT:      -5.4      6.024      9.818
REMARK  6 active torsions:
REMARK  status: ('A' for Active; 'I' for Inactive)
REMARK    1  A    between atoms: C_2  and  C_11 
REMARK    2  A    between atoms: C_5  and  O_10 
REMARK    3  A    between atoms: C_7  and  C_8 
REMARK    4  A    between atoms: C_8  and  O_9 
REMARK    5  A    between atoms: C_16  and  C_17 
REMARK    6  A    between atoms: C_17  and  N_18 
ROOT
HETATM    1  C   UNK N   1      35.166  12.955  12.322  0.00  0.00     0.000 C 
HETATM    2  C   UNK N   1      35.422  13.395  13.766  0.00  0.00     0.007 C 
HETATM    3  C   UNK N   1      36.752  12.863  14.283  0.00  0.00     0.014 C 
HETATM    4  C   UNK N   1      36.826  11.332  14.265  0.00  0.00    -0.017 C 
HETATM    5  C   UNK N   1      36.447  10.737  12.896  0.00  0.00     0.004 C 
HETATM    6  C   UNK N   1      35.182  11.403  12.292  0.00  0.00     0.013 C 
HETATM    7  C   UNK N   1      36.067   9.294  13.248  0.00  0.00     0.010 C 
HETATM    8  C   UNK N   1      35.318   9.386  14.579  0.00  0.00     0.034 C 
HETATM    9  C   UNK N   1      35.872  10.629  15.175  0.00  0.00    -0.081 C 
HETATM   10  C   UNK N   1      35.812  10.851  16.492  0.00  0.00     0.015 C 
HETATM   11  C   UNK N   1      38.249  10.930  14.632  0.00  0.00     0.020 C 
ENDROOT
BRANCH   1  12
HETATM   12  C   UNK N   1      35.932  13.735  11.198  0.00  0.00    -0.034 C 
HETATM   13  C   UNK N   1      36.069  15.216  11.557  0.00  0.00     0.016 C 
HETATM   14  C   UNK N   1      37.328  13.092  11.113  0.00  0.00     0.012 C 
HETATM   15  C   UNK N   1      38.193  13.646   9.987  0.00  0.00     0.032 C 
HETATM   16  C   UNK N   1      37.499  13.396   8.661  0.00  0.00     0.118 C 
HETATM   17  C   UNK N   1      36.159  14.111   8.662  0.00  0.00     0.039 C 
HETATM   18  C   UNK N   1      35.261  13.582   9.791  0.00  0.00     0.020 C 
BRANCH  16  19
HETATM   19  O   UNK N   1      38.291  13.883   7.623  0.00  0.00    -0.396 OA
HETATM   20  H   UNK N   1      38.246  14.776   7.246  0.00  0.00     0.210 HD
ENDBRANCH  16  19
BRANCH  18  21
HETATM   21  C   UNK N   1      33.908  14.285   9.684  0.00  0.00     0.169 C 
BRANCH  21  22
HETATM   22  O   UNK N   1      32.889  13.356   9.469  0.00  0.00    -0.400 OA
HETATM   23  H   UNK N   1      32.181  13.449   8.813  0.00  0.00     0.209 HD
ENDBRANCH  21  22
ENDBRANCH  18  21
ENDBRANCH   1  12
BRANCH   6  24
HETATM   24  C   UNK N   1      34.715  10.740  10.991  0.00  0.00     0.116 C 
BRANCH  24  25
HETATM   25  N   UNK N   1      33.262  10.691  10.914  0.00  0.00    -0.430 N 
HETATM   26  H   UNK N   1      32.325  10.399  11.191  0.00  0.00     0.149 HD
HETATM   27  H   UNK N   1      33.069  11.308  10.124  0.00  0.00     0.149 HD
ENDBRANCH  24  25
ENDBRANCH   6  24
TORSDOF 6
ENDMDL
