REMARK  20 active torsions:
REMARK  status: ('A' for Active; 'I' for Inactive)
REMARK    1  A    between atoms: C_2  and  C_3 
REMARK    2  A    between atoms: C_3  and  C_4 
REMARK    3  A    between atoms: C_4  and  N_5 
REMARK    4  A    between atoms: C_7  and  O_30 
REMARK    5  A    between atoms: C_8  and  O_24 
REMARK    6  A    between atoms: C_9  and  O_18 
REMARK    7  A    between atoms: C_10  and  C_11 
REMARK    8  A    between atoms: C_11  and  O_12 
REMARK    9  A    between atoms: O_12  and  C_13 
REMARK   10  A    between atoms: C_13  and  C_15 
REMARK   11  A    between atoms: C_15  and  C_16 
REMARK   12  A    between atoms: O_18  and  C_19 
REMARK   13  A    between atoms: C_19  and  C_21 
REMARK   14  A    between atoms: C_21  and  C_22 
REMARK   15  A    between atoms: O_24  and  C_25 
REMARK   16  A    between atoms: C_25  and  C_27 
REMARK   17  A    between atoms: C_27  and  C_28 
REMARK   18  A    between atoms: O_30  and  C_31 
REMARK   19  A    between atoms: C_31  and  C_33 
REMARK   20  A    between atoms: C_33  and  C_34 
ROOT
HETATM    1  N   UNK N   1       1.079  -1.179  -0.364  0.00  0.00     0.100 N 
HETATM    2  C   UNK N   1      -0.016  -0.646  -1.190  0.00  0.00     0.308 C 
HETATM    3  C   UNK N   1      -0.738   0.552  -0.546  0.00  0.00     0.192 C 
HETATM    4  C   UNK N   1       0.178   1.482   0.248  0.00  0.00     0.195 C 
HETATM    5  C   UNK N   1       1.620   1.287  -0.194  0.00  0.00     0.199 C 
HETATM    6  C   UNK N   1       2.076  -0.165   0.036  0.00  0.00     0.279 C 
ENDROOT
BRANCH   6   7
HETATM    7  C   UNK N   1       3.367  -0.387  -0.739  0.00  0.00     0.217 C 
BRANCH   7   8
HETATM    8  O   UNK N   1       4.021  -1.514  -0.296  0.00  0.00    -0.319 OA
BRANCH   8   9
HETATM    9  C   UNK N   1       5.369  -1.551  -0.145  0.00  0.00     0.258 C 
HETATM   10  O   UNK N   1       5.898  -2.573   0.260  0.00  0.00    -0.265 OA
BRANCH   9  11
HETATM   11  C   UNK N   1       6.226  -0.369  -0.503  0.00  0.00     0.111 C 
BRANCH  11  12
HETATM   12  C   UNK N   1       6.961   0.151   0.717  0.00  0.00     0.005 C 
HETATM   13  C   UNK N   1       7.746   1.390   0.340  0.00  0.00     0.005 C 
ENDBRANCH  11  12
ENDBRANCH   9  11
ENDBRANCH   8   9
ENDBRANCH   7   8
ENDBRANCH   6   7
BRANCH   5  14
HETATM   14  O   UNK N   1       2.462   2.157   0.463  0.00  0.00    -0.311 OA
BRANCH  14  15
HETATM   15  C   UNK N   1       3.074   3.181  -0.173  0.00  0.00     0.259 C 
HETATM   16  O   UNK N   1       2.771   3.455  -1.335  0.00  0.00    -0.265 OA
BRANCH  15  17
HETATM   17  C   UNK N   1       4.115   3.980   0.547  0.00  0.00     0.111 C 
BRANCH  17  18
HETATM   18  C   UNK N   1       4.713   5.078  -0.319  0.00  0.00     0.005 C 
HETATM   19  C   UNK N   1       5.805   5.795   0.444  0.00  0.00     0.005 C 
ENDBRANCH  17  18
ENDBRANCH  15  17
ENDBRANCH  14  15
ENDBRANCH   5  14
BRANCH   1  20
HETATM   20  C   UNK N   1       0.552  -1.850   0.820  0.00  0.00     0.273 C 
BRANCH  20  21
HETATM   21  C   UNK N   1       0.291  -3.323   0.524  0.00  0.00     0.030 C 
BRANCH  21  22
HETATM   22  C   UNK N   1      -1.004  -3.511  -0.247  0.00  0.00    -0.003 C 
HETATM   23  C   UNK N   1      -2.058  -4.112   0.659  0.00  0.00     0.005 C 
ENDBRANCH  21  22
ENDBRANCH  20  21
ENDBRANCH   1  20
BRANCH   4  24
HETATM   24  O   UNK N   1      -0.207   2.783  -0.007  0.00  0.00    -0.311 OA
BRANCH  24  25
HETATM   25  C   UNK N   1      -0.702   3.613   0.943  0.00  0.00     0.259 C 
HETATM   26  O   UNK N   1      -0.914   3.209   2.077  0.00  0.00    -0.265 OA
BRANCH  25  27
HETATM   27  C   UNK N   1      -0.972   5.045   0.612  0.00  0.00     0.111 C 
BRANCH  27  28
HETATM   28  C   UNK N   1      -2.053   5.166  -0.446  0.00  0.00     0.005 C 
HETATM   29  C   UNK N   1      -2.323   6.632  -0.720  0.00  0.00     0.005 C 
ENDBRANCH  27  28
ENDBRANCH  25  27
ENDBRANCH  24  25
ENDBRANCH   4  24
BRANCH   3  30
HETATM   30  O   UNK N   1      -1.775   0.126   0.250  0.00  0.00    -0.311 OA
BRANCH  30  31
HETATM   31  C   UNK N   1      -3.043   0.565   0.076  0.00  0.00     0.259 C 
HETATM   32  O   UNK N   1      -3.288   1.485  -0.694  0.00  0.00    -0.265 OA
BRANCH  31  33
HETATM   33  C   UNK N   1      -4.154  -0.085   0.834  0.00  0.00     0.111 C 
BRANCH  33  34
HETATM   34  C   UNK N   1      -5.138  -0.750  -0.117  0.00  0.00     0.005 C 
HETATM   35  C   UNK N   1      -4.520  -1.982  -0.754  0.00  0.00     0.005 C 
ENDBRANCH  33  34
ENDBRANCH  31  33
ENDBRANCH  30  31
ENDBRANCH   3  30
TORSDOF 20
