MODEL 1
REMARK VINA RESULT:      -6.1      0.000      0.000
REMARK  20 active torsions:
REMARK  status: ('A' for Active; 'I' for Inactive)
REMARK    1  A    between atoms: C_18  and  C_12 
REMARK    2  A    between atoms: C_19  and  C_12 
REMARK    3  A    between atoms: C_20  and  C_13 
REMARK    4  A    between atoms: C_21  and  C_13 
REMARK    5  A    between atoms: C_22  and  C_14 
REMARK    6  A    between atoms: C_23  and  C_14 
REMARK    7  A    between atoms: C_24  and  C_15 
REMARK    8  A    between atoms: C_25  and  C_15 
REMARK    9  A    between atoms: C_26  and  C_16 
REMARK   10  A    between atoms: C_27  and  C_16 
REMARK   11  A    between atoms: C_28  and  C_17 
REMARK   12  A    between atoms: C_29  and  C_17 
REMARK   13  A    between atoms: C_35  and  C_19 
REMARK   14  A    between atoms: C_36  and  C_21 
REMARK   15  A    between atoms: C_37  and  C_23 
REMARK   16  A    between atoms: C_38  and  C_25 
REMARK   17  A    between atoms: C_39  and  C_27 
REMARK   18  A    between atoms: C_40  and  C_29 
REMARK   19  A    between atoms: C_33  and  C_32 
REMARK   20  A    between atoms: C_42  and  C_33 
ROOT
HETATM    1  C   UNK N   1      32.509  20.909  -7.550  0.00  0.00     0.031 C 
ENDROOT
BRANCH   1   2
HETATM    2  C   UNK N   1      32.301  22.227  -6.883  0.00  0.00    -0.024 C 
HETATM    3  C   UNK N   1      31.745  23.255  -7.542  0.00  0.00    -0.087 C 
HETATM    4  C   UNK N   1      31.224  23.111  -8.938  0.00  0.00     0.043 C 
BRANCH   3   5
HETATM    5  C   UNK N   1      31.751  24.611  -6.934  0.00  0.00     0.037 C 
BRANCH   5   6
HETATM    6  C   UNK N   1      30.397  25.281  -6.968  0.00  0.00     0.031 C 
BRANCH   6   7
HETATM    7  C   UNK N   1      29.329  24.542  -6.231  0.00  0.00    -0.024 C 
HETATM    8  C   UNK N   1      28.924  24.881  -4.991  0.00  0.00    -0.087 C 
HETATM    9  C   UNK N   1      29.430  26.104  -4.292  0.00  0.00     0.043 C 
BRANCH   8  10
HETATM   10  C   UNK N   1      28.038  23.945  -4.244  0.00  0.00     0.037 C 
BRANCH  10  11
HETATM   11  C   UNK N   1      28.865  23.552  -3.024  0.00  0.00     0.031 C 
BRANCH  11  12
HETATM   12  C   UNK N   1      29.676  22.308  -3.162  0.00  0.00    -0.024 C 
HETATM   13  C   UNK N   1      31.009  22.273  -3.381  0.00  0.00    -0.087 C 
HETATM   14  C   UNK N   1      31.849  23.501  -3.484  0.00  0.00     0.043 C 
BRANCH  13  15
HETATM   15  C   UNK N   1      31.692  20.958  -3.547  0.00  0.00     0.037 C 
BRANCH  15  16
HETATM   16  C   UNK N   1      32.999  20.926  -2.775  0.00  0.00     0.031 C 
BRANCH  16  17
HETATM   17  C   UNK N   1      34.115  21.028  -3.762  0.00  0.00    -0.024 C 
HETATM   18  C   UNK N   1      34.626  19.939  -4.358  0.00  0.00    -0.087 C 
HETATM   19  C   UNK N   1      34.086  18.571  -4.073  0.00  0.00     0.043 C 
BRANCH  18  20
HETATM   20  C   UNK N   1      35.751  20.069  -5.328  0.00  0.00     0.037 C 
BRANCH  20  21
HETATM   21  C   UNK N   1      36.290  21.490  -5.310  0.00  0.00     0.031 C 
BRANCH  21  22
HETATM   22  C   UNK N   1      36.096  22.139  -6.644  0.00  0.00    -0.024 C 
HETATM   23  C   UNK N   1      35.621  23.383  -6.794  0.00  0.00    -0.091 C 
HETATM   24  C   UNK N   1      35.471  23.940  -8.165  0.00  0.00     0.042 C 
HETATM   25  C   UNK N   1      35.239  24.233  -5.623  0.00  0.00     0.042 C 
ENDBRANCH  21  22
ENDBRANCH  20  21
ENDBRANCH  18  20
ENDBRANCH  16  17
ENDBRANCH  15  16
ENDBRANCH  13  15
ENDBRANCH  11  12
ENDBRANCH  10  11
ENDBRANCH   8  10
ENDBRANCH   6   7
ENDBRANCH   5   6
ENDBRANCH   3   5
ENDBRANCH   1   2
BRANCH   1  26
HETATM   26  C   UNK N   1      31.670  19.891  -6.785  0.00  0.00     0.037 C 
BRANCH  26  27
HETATM   27  C   UNK N   1      30.296  19.764  -7.391  0.00  0.00    -0.087 C 
HETATM   28  C   UNK N   1      30.064  18.739  -8.460  0.00  0.00     0.043 C 
HETATM   29  C   UNK N   1      29.302  20.564  -6.980  0.00  0.00    -0.024 C 
BRANCH  29  30
HETATM   30  C   UNK N   1      27.895  20.429  -7.530  0.00  0.00     0.031 C 
BRANCH  30  31
HETATM   31  C   UNK N   1      27.643  21.418  -8.688  0.00  0.00     0.037 C 
BRANCH  31  32
HETATM   32  C   UNK N   1      26.867  22.547  -8.107  0.00  0.00    -0.087 C 
HETATM   33  C   UNK N   1      25.675  22.228  -7.256  0.00  0.00     0.043 C 
HETATM   34  C   UNK N   1      27.099  23.791  -8.560  0.00  0.00    -0.020 C 
BRANCH  34  35
HETATM   35  C   UNK N   1      26.036  24.812  -8.384  0.00  0.00     0.070 C 
BRANCH  35  36
HETATM   36  C   UNK N   1      26.288  26.089  -7.671  0.00  0.00     0.006 A 
HETATM   37  C   UNK N   1      27.222  26.944  -8.149  0.00  0.00    -0.001 A 
HETATM   38  C   UNK N   1      27.870  26.702  -9.481  0.00  0.00     0.053 C 
HETATM   39  C   UNK N   1      27.680  28.081  -7.319  0.00  0.00     0.189 A 
HETATM   40  C   UNK N   1      27.179  28.240  -5.938  0.00  0.00     0.029 A 
HETATM   41  O   UNK N   1      28.542  28.839  -7.751  0.00  0.00    -0.287 OA
HETATM   42  C   UNK N   1      27.705  29.224  -5.092  0.00  0.00     0.016 A 
HETATM   43  C   UNK N   1      26.182  27.367  -5.455  0.00  0.00     0.029 A 
HETATM   44  C   UNK N   1      27.249  29.342  -3.779  0.00  0.00     0.001 A 
HETATM   45  C   UNK N   1      26.252  28.484  -3.304  0.00  0.00     0.001 A 
HETATM   46  C   UNK N   1      25.720  27.500  -4.140  0.00  0.00     0.016 A 
HETATM   47  C   UNK N   1      25.679  26.294  -6.332  0.00  0.00     0.190 A 
HETATM   48  O   UNK N   1      24.805  25.531  -5.929  0.00  0.00    -0.287 OA
ENDBRANCH  35  36
ENDBRANCH  34  35
ENDBRANCH  31  32
ENDBRANCH  30  31
ENDBRANCH  29  30
ENDBRANCH  26  27
ENDBRANCH   1  26
TORSDOF 20
ENDMDL
MODEL 2
REMARK VINA RESULT:      -6.0      2.311      6.510
REMARK  20 active torsions:
REMARK  status: ('A' for Active; 'I' for Inactive)
REMARK    1  A    between atoms: C_18  and  C_12 
REMARK    2  A    between atoms: C_19  and  C_12 
REMARK    3  A    between atoms: C_20  and  C_13 
REMARK    4  A    between atoms: C_21  and  C_13 
REMARK    5  A    between atoms: C_22  and  C_14 
REMARK    6  A    between atoms: C_23  and  C_14 
REMARK    7  A    between atoms: C_24  and  C_15 
REMARK    8  A    between atoms: C_25  and  C_15 
REMARK    9  A    between atoms: C_26  and  C_16 
REMARK   10  A    between atoms: C_27  and  C_16 
REMARK   11  A    between atoms: C_28  and  C_17 
REMARK   12  A    between atoms: C_29  and  C_17 
REMARK   13  A    between atoms: C_35  and  C_19 
REMARK   14  A    between atoms: C_36  and  C_21 
REMARK   15  A    between atoms: C_37  and  C_23 
REMARK   16  A    between atoms: C_38  and  C_25 
REMARK   17  A    between atoms: C_39  and  C_27 
REMARK   18  A    between atoms: C_40  and  C_29 
REMARK   19  A    between atoms: C_33  and  C_32 
REMARK   20  A    between atoms: C_42  and  C_33 
ROOT
HETATM    1  C   UNK N   1      31.690  25.632  -5.663  0.00  0.00     0.031 C 
ENDROOT
BRANCH   1   2
HETATM    2  C   UNK N   1      31.995  26.553  -4.529  0.00  0.00    -0.024 C 
HETATM    3  C   UNK N   1      31.016  27.040  -3.751  0.00  0.00    -0.087 C 
HETATM    4  C   UNK N   1      29.589  26.617  -3.918  0.00  0.00     0.043 C 
BRANCH   3   5
HETATM    5  C   UNK N   1      31.316  28.120  -2.776  0.00  0.00     0.037 C 
BRANCH   5   6
HETATM    6  C   UNK N   1      31.128  29.506  -3.350  0.00  0.00     0.031 C 
BRANCH   6   7
HETATM    7  C   UNK N   1      29.725  30.013  -3.277  0.00  0.00    -0.024 C 
HETATM    8  C   UNK N   1      28.962  30.221  -4.368  0.00  0.00    -0.087 C 
HETATM    9  C   UNK N   1      29.418  29.848  -5.745  0.00  0.00     0.043 C 
BRANCH   8  10
HETATM   10  C   UNK N   1      27.676  30.956  -4.216  0.00  0.00     0.037 C 
BRANCH  10  11
HETATM   11  C   UNK N   1      26.749  29.943  -3.553  0.00  0.00     0.031 C 
BRANCH  11  12
HETATM   12  C   UNK N   1      25.938  29.101  -4.480  0.00  0.00    -0.024 C 
HETATM   13  C   UNK N   1      25.690  27.784  -4.312  0.00  0.00    -0.087 C 
HETATM   14  C   UNK N   1      26.184  27.006  -3.138  0.00  0.00     0.043 C 
BRANCH  13  15
HETATM   15  C   UNK N   1      24.901  27.047  -5.340  0.00  0.00     0.037 C 
BRANCH  15  16
HETATM   16  C   UNK N   1      25.711  26.856  -6.610  0.00  0.00     0.031 C 
BRANCH  16  17
HETATM   17  C   UNK N   1      26.444  25.560  -6.494  0.00  0.00    -0.024 C 
HETATM   18  C   UNK N   1      27.718  25.435  -6.899  0.00  0.00    -0.087 C 
HETATM   19  C   UNK N   1      28.470  26.598  -7.469  0.00  0.00     0.043 C 
BRANCH  18  20
HETATM   20  C   UNK N   1      28.420  24.124  -6.785  0.00  0.00     0.037 C 
BRANCH  20  21
HETATM   21  C   UNK N   1      28.012  23.428  -5.497  0.00  0.00     0.031 C 
BRANCH  21  22
HETATM   22  C   UNK N   1      29.221  23.095  -4.679  0.00  0.00    -0.024 C 
HETATM   23  C   UNK N   1      29.243  23.161  -3.341  0.00  0.00    -0.091 C 
HETATM   24  C   UNK N   1      30.493  22.803  -2.619  0.00  0.00     0.042 C 
HETATM   25  C   UNK N   1      28.044  23.579  -2.547  0.00  0.00     0.042 C 
ENDBRANCH  21  22
ENDBRANCH  20  21
ENDBRANCH  18  20
ENDBRANCH  16  17
ENDBRANCH  15  16
ENDBRANCH  13  15
ENDBRANCH  11  12
ENDBRANCH  10  11
ENDBRANCH   8  10
ENDBRANCH   6   7
ENDBRANCH   5   6
ENDBRANCH   3   5
ENDBRANCH   1   2
BRANCH   1  26
HETATM   26  C   UNK N   1      32.630  24.439  -5.526  0.00  0.00     0.037 C 
BRANCH  26  27
HETATM   27  C   UNK N   1      32.208  23.316  -6.439  0.00  0.00    -0.087 C 
HETATM   28  C   UNK N   1      31.727  23.643  -7.821  0.00  0.00     0.043 C 
HETATM   29  C   UNK N   1      32.256  22.047  -6.011  0.00  0.00    -0.024 C 
BRANCH  29  30
HETATM   30  C   UNK N   1      31.888  20.889  -6.918  0.00  0.00     0.031 C 
BRANCH  30  31
HETATM   31  C   UNK N   1      30.796  20.000  -6.287  0.00  0.00     0.037 C 
BRANCH  31  32
HETATM   32  C   UNK N   1      29.824  19.701  -7.375  0.00  0.00    -0.087 C 
HETATM   33  C   UNK N   1      30.152  18.601  -8.339  0.00  0.00     0.043 C 
HETATM   34  C   UNK N   1      28.828  20.572  -7.608  0.00  0.00    -0.020 C 
BRANCH  34  35
HETATM   35  C   UNK N   1      28.188  20.564  -8.947  0.00  0.00     0.070 C 
BRANCH  35  36
HETATM   36  C   UNK N   1      27.958  21.816  -9.711  0.00  0.00     0.006 A 
HETATM   37  C   UNK N   1      28.994  22.400 -10.357  0.00  0.00    -0.001 A 
HETATM   38  C   UNK N   1      30.320  21.704 -10.461  0.00  0.00     0.053 C 
HETATM   39  C   UNK N   1      28.855  23.772 -10.893  0.00  0.00     0.189 A 
HETATM   40  C   UNK N   1      27.615  24.539 -10.653  0.00  0.00     0.029 A 
HETATM   41  O   UNK N   1      29.805  24.303 -11.459  0.00  0.00    -0.287 OA
HETATM   42  C   UNK N   1      27.519  25.885 -11.028  0.00  0.00     0.016 A 
HETATM   43  C   UNK N   1      26.526  23.917 -10.008  0.00  0.00     0.029 A 
HETATM   44  C   UNK N   1      26.354  26.609 -10.765  0.00  0.00     0.001 A 
HETATM   45  C   UNK N   1      25.271  25.988 -10.136  0.00  0.00     0.001 A 
HETATM   46  C   UNK N   1      25.356  24.646  -9.760  0.00  0.00     0.016 A 
HETATM   47  C   UNK N   1      26.658  22.518  -9.561  0.00  0.00     0.190 A 
HETATM   48  O   UNK N   1      25.716  21.959  -9.005  0.00  0.00    -0.287 OA
ENDBRANCH  35  36
ENDBRANCH  34  35
ENDBRANCH  31  32
ENDBRANCH  30  31
ENDBRANCH  29  30
ENDBRANCH  26  27
ENDBRANCH   1  26
TORSDOF 20
ENDMDL
MODEL 3
REMARK VINA RESULT:      -5.9      2.096      6.615
REMARK  20 active torsions:
REMARK  status: ('A' for Active; 'I' for Inactive)
REMARK    1  A    between atoms: C_18  and  C_12 
REMARK    2  A    between atoms: C_19  and  C_12 
REMARK    3  A    between atoms: C_20  and  C_13 
REMARK    4  A    between atoms: C_21  and  C_13 
REMARK    5  A    between atoms: C_22  and  C_14 
REMARK    6  A    between atoms: C_23  and  C_14 
REMARK    7  A    between atoms: C_24  and  C_15 
REMARK    8  A    between atoms: C_25  and  C_15 
REMARK    9  A    between atoms: C_26  and  C_16 
REMARK   10  A    between atoms: C_27  and  C_16 
REMARK   11  A    between atoms: C_28  and  C_17 
REMARK   12  A    between atoms: C_29  and  C_17 
REMARK   13  A    between atoms: C_35  and  C_19 
REMARK   14  A    between atoms: C_36  and  C_21 
REMARK   15  A    between atoms: C_37  and  C_23 
REMARK   16  A    between atoms: C_38  and  C_25 
REMARK   17  A    between atoms: C_39  and  C_27 
REMARK   18  A    between atoms: C_40  and  C_29 
REMARK   19  A    between atoms: C_33  and  C_32 
REMARK   20  A    between atoms: C_42  and  C_33 
ROOT
HETATM    1  C   UNK N   1      32.148  25.662  -5.822  0.00  0.00     0.031 C 
ENDROOT
BRANCH   1   2
HETATM    2  C   UNK N   1      32.708  26.842  -5.101  0.00  0.00    -0.024 C 
HETATM    3  C   UNK N   1      32.026  27.434  -4.109  0.00  0.00    -0.087 C 
HETATM    4  C   UNK N   1      30.720  26.893  -3.614  0.00  0.00     0.043 C 
BRANCH   3   5
HETATM    5  C   UNK N   1      32.499  28.731  -3.559  0.00  0.00     0.037 C 
BRANCH   5   6
HETATM    6  C   UNK N   1      32.320  29.883  -4.520  0.00  0.00     0.031 C 
BRANCH   6   7
HETATM    7  C   UNK N   1      30.897  30.277  -4.744  0.00  0.00    -0.024 C 
HETATM    8  C   UNK N   1      30.268  30.116  -5.925  0.00  0.00    -0.087 C 
HETATM    9  C   UNK N   1      30.911  29.418  -7.084  0.00  0.00     0.043 C 
BRANCH   8  10
HETATM   10  C   UNK N   1      28.940  30.759  -6.126  0.00  0.00     0.037 C 
BRANCH  10  11
HETATM   11  C   UNK N   1      28.143  30.350  -4.893  0.00  0.00     0.031 C 
BRANCH  11  12
HETATM   12  C   UNK N   1      26.918  29.537  -5.150  0.00  0.00    -0.024 C 
HETATM   13  C   UNK N   1      26.398  28.629  -4.295  0.00  0.00    -0.087 C 
HETATM   14  C   UNK N   1      26.983  28.349  -2.951  0.00  0.00     0.043 C 
BRANCH  13  15
HETATM   15  C   UNK N   1      25.194  27.849  -4.695  0.00  0.00     0.037 C 
BRANCH  15  16
HETATM   16  C   UNK N   1      25.436  27.111  -6.001  0.00  0.00     0.031 C 
BRANCH  16  17
HETATM   17  C   UNK N   1      25.870  25.722  -5.667  0.00  0.00    -0.024 C 
HETATM   18  C   UNK N   1      27.147  25.332  -5.810  0.00  0.00    -0.087 C 
HETATM   19  C   UNK N   1      28.200  26.281  -6.295  0.00  0.00     0.043 C 
BRANCH  18  20
HETATM   20  C   UNK N   1      27.549  23.933  -5.484  0.00  0.00     0.037 C 
BRANCH  20  21
HETATM   21  C   UNK N   1      29.057  23.786  -5.604  0.00  0.00     0.031 C 
BRANCH  21  22
HETATM   22  C   UNK N   1      29.497  22.464  -5.056  0.00  0.00    -0.024 C 
HETATM   23  C   UNK N   1      30.033  22.316  -3.837  0.00  0.00    -0.091 C 
HETATM   24  C   UNK N   1      30.433  20.958  -3.382  0.00  0.00     0.042 C 
HETATM   25  C   UNK N   1      30.239  23.477  -2.914  0.00  0.00     0.042 C 
ENDBRANCH  21  22
ENDBRANCH  20  21
ENDBRANCH  18  20
ENDBRANCH  16  17
ENDBRANCH  15  16
ENDBRANCH  13  15
ENDBRANCH  11  12
ENDBRANCH  10  11
ENDBRANCH   8  10
ENDBRANCH   6   7
ENDBRANCH   5   6
ENDBRANCH   3   5
ENDBRANCH   1   2
BRANCH   1  26
HETATM   26  C   UNK N   1      32.923  24.442  -5.339  0.00  0.00     0.037 C 
BRANCH  26  27
HETATM   27  C   UNK N   1      32.751  23.285  -6.291  0.00  0.00    -0.087 C 
HETATM   28  C   UNK N   1      32.293  23.558  -7.692  0.00  0.00     0.043 C 
HETATM   29  C   UNK N   1      32.998  22.033  -5.881  0.00  0.00    -0.024 C 
BRANCH  29  30
HETATM   30  C   UNK N   1      32.886  20.852  -6.825  0.00  0.00     0.031 C 
BRANCH  30  31
HETATM   31  C   UNK N   1      31.686  19.951  -6.464  0.00  0.00     0.037 C 
BRANCH  31  32
HETATM   32  C   UNK N   1      30.822  19.905  -7.675  0.00  0.00    -0.087 C 
HETATM   33  C   UNK N   1      31.458  20.139  -9.012  0.00  0.00     0.043 C 
HETATM   34  C   UNK N   1      29.488  19.908  -7.517  0.00  0.00    -0.020 C 
BRANCH  34  35
HETATM   35  C   UNK N   1      28.647  20.364  -8.652  0.00  0.00     0.070 C 
BRANCH  35  36
HETATM   36  C   UNK N   1      27.766  21.553  -8.545  0.00  0.00     0.006 A 
HETATM   37  C   UNK N   1      26.453  21.384  -8.264  0.00  0.00    -0.001 A 
HETATM   38  C   UNK N   1      25.921  20.034  -7.882  0.00  0.00     0.053 C 
HETATM   39  C   UNK N   1      25.510  22.515  -8.418  0.00  0.00     0.189 A 
HETATM   40  C   UNK N   1      25.984  23.807  -8.955  0.00  0.00     0.029 A 
HETATM   41  O   UNK N   1      24.318  22.348  -8.181  0.00  0.00    -0.287 OA
HETATM   42  C   UNK N   1      25.083  24.839  -9.241  0.00  0.00     0.016 A 
HETATM   43  C   UNK N   1      27.358  23.990  -9.217  0.00  0.00     0.029 A 
HETATM   44  C   UNK N   1      25.538  26.044  -9.781  0.00  0.00     0.001 A 
HETATM   45  C   UNK N   1      26.902  26.229 -10.028  0.00  0.00     0.001 A 
HETATM   46  C   UNK N   1      27.809  25.206  -9.746  0.00  0.00     0.016 A 
HETATM   47  C   UNK N   1      28.292  22.875  -8.973  0.00  0.00     0.190 A 
HETATM   48  O   UNK N   1      29.492  23.021  -9.187  0.00  0.00    -0.287 OA
ENDBRANCH  35  36
ENDBRANCH  34  35
ENDBRANCH  31  32
ENDBRANCH  30  31
ENDBRANCH  29  30
ENDBRANCH  26  27
ENDBRANCH   1  26
TORSDOF 20
ENDMDL
MODEL 4
REMARK VINA RESULT:      -5.8     11.479     14.707
REMARK  20 active torsions:
REMARK  status: ('A' for Active; 'I' for Inactive)
REMARK    1  A    between atoms: C_18  and  C_12 
REMARK    2  A    between atoms: C_19  and  C_12 
REMARK    3  A    between atoms: C_20  and  C_13 
REMARK    4  A    between atoms: C_21  and  C_13 
REMARK    5  A    between atoms: C_22  and  C_14 
REMARK    6  A    between atoms: C_23  and  C_14 
REMARK    7  A    between atoms: C_24  and  C_15 
REMARK    8  A    between atoms: C_25  and  C_15 
REMARK    9  A    between atoms: C_26  and  C_16 
REMARK   10  A    between atoms: C_27  and  C_16 
REMARK   11  A    between atoms: C_28  and  C_17 
REMARK   12  A    between atoms: C_29  and  C_17 
REMARK   13  A    between atoms: C_35  and  C_19 
REMARK   14  A    between atoms: C_36  and  C_21 
REMARK   15  A    between atoms: C_37  and  C_23 
REMARK   16  A    between atoms: C_38  and  C_25 
REMARK   17  A    between atoms: C_39  and  C_27 
REMARK   18  A    between atoms: C_40  and  C_29 
REMARK   19  A    between atoms: C_33  and  C_32 
REMARK   20  A    between atoms: C_42  and  C_33 
ROOT
HETATM    1  C   UNK N   1      24.426  16.740   3.770  0.00  0.00     0.031 C 
ENDROOT
BRANCH   1   2
HETATM    2  C   UNK N   1      25.699  16.082   4.184  0.00  0.00    -0.024 C 
HETATM    3  C   UNK N   1      26.553  15.593   3.272  0.00  0.00    -0.087 C 
HETATM    4  C   UNK N   1      26.322  15.761   1.803  0.00  0.00     0.043 C 
BRANCH   3   5
HETATM    5  C   UNK N   1      27.697  14.751   3.709  0.00  0.00     0.037 C 
BRANCH   5   6
HETATM    6  C   UNK N   1      28.961  15.546   3.945  0.00  0.00     0.031 C 
BRANCH   6   7
HETATM    7  C   UNK N   1      30.145  15.055   3.179  0.00  0.00    -0.024 C 
HETATM    8  C   UNK N   1      31.054  14.207   3.698  0.00  0.00    -0.087 C 
HETATM    9  C   UNK N   1      30.891  13.591   5.053  0.00  0.00     0.043 C 
BRANCH   8  10
HETATM   10  C   UNK N   1      32.322  13.969   2.953  0.00  0.00     0.037 C 
BRANCH  10  11
HETATM   11  C   UNK N   1      33.008  15.331   2.951  0.00  0.00     0.031 C 
BRANCH  11  12
HETATM   12  C   UNK N   1      33.387  15.870   4.290  0.00  0.00    -0.024 C 
HETATM   13  C   UNK N   1      32.967  17.050   4.796  0.00  0.00    -0.087 C 
HETATM   14  C   UNK N   1      32.030  17.958   4.072  0.00  0.00     0.043 C 
BRANCH  13  15
HETATM   15  C   UNK N   1      33.460  17.494   6.130  0.00  0.00     0.037 C 
BRANCH  15  16
HETATM   16  C   UNK N   1      32.719  16.779   7.247  0.00  0.00     0.031 C 
BRANCH  16  17
HETATM   17  C   UNK N   1      31.276  16.712   6.868  0.00  0.00    -0.024 C 
HETATM   18  C   UNK N   1      30.334  17.352   7.579  0.00  0.00    -0.087 C 
HETATM   19  C   UNK N   1      30.690  18.180   8.775  0.00  0.00     0.043 C 
BRANCH  18  20
HETATM   20  C   UNK N   1      28.898  17.254   7.186  0.00  0.00     0.037 C 
BRANCH  20  21
HETATM   21  C   UNK N   1      28.340  18.641   6.911  0.00  0.00     0.031 C 
BRANCH  21  22
HETATM   22  C   UNK N   1      27.798  18.718   5.518  0.00  0.00    -0.024 C 
HETATM   23  C   UNK N   1      27.169  19.798   5.034  0.00  0.00    -0.091 C 
HETATM   24  C   UNK N   1      26.672  19.778   3.632  0.00  0.00     0.042 C 
HETATM   25  C   UNK N   1      26.953  21.028   5.859  0.00  0.00     0.042 C 
ENDBRANCH  21  22
ENDBRANCH  20  21
ENDBRANCH  18  20
ENDBRANCH  16  17
ENDBRANCH  15  16
ENDBRANCH  13  15
ENDBRANCH  11  12
ENDBRANCH  10  11
ENDBRANCH   8  10
ENDBRANCH   6   7
ENDBRANCH   5   6
ENDBRANCH   3   5
ENDBRANCH   1   2
BRANCH   1  26
HETATM   26  C   UNK N   1      23.909  17.503   4.984  0.00  0.00     0.037 C 
BRANCH  26  27
HETATM   27  C   UNK N   1      22.771  18.414   4.601  0.00  0.00    -0.087 C 
HETATM   28  C   UNK N   1      21.536  18.433   5.451  0.00  0.00     0.043 C 
HETATM   29  C   UNK N   1      22.866  19.189   3.511  0.00  0.00    -0.024 C 
BRANCH  29  30
HETATM   30  C   UNK N   1      21.763  20.155   3.125  0.00  0.00     0.031 C 
BRANCH  30  31
HETATM   31  C   UNK N   1      21.243  19.879   1.699  0.00  0.00     0.037 C 
BRANCH  31  32
HETATM   32  C   UNK N   1      20.283  18.747   1.819  0.00  0.00    -0.087 C 
HETATM   33  C   UNK N   1      19.103  18.908   2.728  0.00  0.00     0.043 C 
HETATM   34  C   UNK N   1      20.632  17.549   1.318  0.00  0.00    -0.020 C 
BRANCH  34  35
HETATM   35  C   UNK N   1      19.957  16.341   1.853  0.00  0.00     0.070 C 
BRANCH  35  36
HETATM   36  C   UNK N   1      20.710  15.263   2.540  0.00  0.00     0.006 A 
HETATM   37  C   UNK N   1      20.550  15.086   3.872  0.00  0.00    -0.001 A 
HETATM   38  C   UNK N   1      19.492  15.841   4.622  0.00  0.00     0.053 C 
HETATM   39  C   UNK N   1      21.479  14.210   4.621  0.00  0.00     0.189 A 
HETATM   40  C   UNK N   1      22.631  13.591   3.932  0.00  0.00     0.029 A 
HETATM   41  O   UNK N   1      21.341  14.072   5.832  0.00  0.00    -0.287 OA
HETATM   42  C   UNK N   1      23.598  12.877   4.650  0.00  0.00     0.016 A 
HETATM   43  C   UNK N   1      22.776  13.751   2.539  0.00  0.00     0.029 A 
HETATM   44  C   UNK N   1      24.699  12.326   3.994  0.00  0.00     0.001 A 
HETATM   45  C   UNK N   1      24.837  12.475   2.611  0.00  0.00     0.001 A 
HETATM   46  C   UNK N   1      23.877  13.184   1.885  0.00  0.00     0.016 A 
HETATM   47  C   UNK N   1      21.788  14.558   1.800  0.00  0.00     0.190 A 
HETATM   48  O   UNK N   1      21.895  14.699   0.585  0.00  0.00    -0.287 OA
ENDBRANCH  35  36
ENDBRANCH  34  35
ENDBRANCH  31  32
ENDBRANCH  30  31
ENDBRANCH  29  30
ENDBRANCH  26  27
ENDBRANCH   1  26
TORSDOF 20
ENDMDL
MODEL 5
REMARK VINA RESULT:      -5.6      1.828      5.606
REMARK  20 active torsions:
REMARK  status: ('A' for Active; 'I' for Inactive)
REMARK    1  A    between atoms: C_18  and  C_12 
REMARK    2  A    between atoms: C_19  and  C_12 
REMARK    3  A    between atoms: C_20  and  C_13 
REMARK    4  A    between atoms: C_21  and  C_13 
REMARK    5  A    between atoms: C_22  and  C_14 
REMARK    6  A    between atoms: C_23  and  C_14 
REMARK    7  A    between atoms: C_24  and  C_15 
REMARK    8  A    between atoms: C_25  and  C_15 
REMARK    9  A    between atoms: C_26  and  C_16 
REMARK   10  A    between atoms: C_27  and  C_16 
REMARK   11  A    between atoms: C_28  and  C_17 
REMARK   12  A    between atoms: C_29  and  C_17 
REMARK   13  A    between atoms: C_35  and  C_19 
REMARK   14  A    between atoms: C_36  and  C_21 
REMARK   15  A    between atoms: C_37  and  C_23 
REMARK   16  A    between atoms: C_38  and  C_25 
REMARK   17  A    between atoms: C_39  and  C_27 
REMARK   18  A    between atoms: C_40  and  C_29 
REMARK   19  A    between atoms: C_33  and  C_32 
REMARK   20  A    between atoms: C_42  and  C_33 
ROOT
HETATM    1  C   UNK N   1      27.013  23.784  -5.493  0.00  0.00     0.031 C 
ENDROOT
BRANCH   1   2
HETATM    2  C   UNK N   1      25.922  24.765  -5.762  0.00  0.00    -0.024 C 
HETATM    3  C   UNK N   1      26.179  25.936  -6.364  0.00  0.00    -0.087 C 
HETATM    4  C   UNK N   1      27.542  26.280  -6.877  0.00  0.00     0.043 C 
BRANCH   3   5
HETATM    5  C   UNK N   1      25.125  26.983  -6.421  0.00  0.00     0.037 C 
BRANCH   5   6
HETATM    6  C   UNK N   1      24.888  27.659  -5.090  0.00  0.00     0.031 C 
BRANCH   6   7
HETATM    7  C   UNK N   1      26.050  28.453  -4.591  0.00  0.00    -0.024 C 
HETATM    8  C   UNK N   1      26.682  28.180  -3.433  0.00  0.00    -0.087 C 
HETATM    9  C   UNK N   1      26.346  26.980  -2.603  0.00  0.00     0.043 C 
BRANCH   8  10
HETATM   10  C   UNK N   1      27.662  29.167  -2.899  0.00  0.00     0.037 C 
BRANCH  10  11
HETATM   11  C   UNK N   1      28.801  29.139  -3.911  0.00  0.00     0.031 C 
BRANCH  11  12
HETATM   12  C   UNK N   1      29.508  27.833  -4.059  0.00  0.00    -0.024 C 
HETATM   13  C   UNK N   1      30.626  27.478  -3.388  0.00  0.00    -0.087 C 
HETATM   14  C   UNK N   1      31.282  28.356  -2.377  0.00  0.00     0.043 C 
BRANCH  13  15
HETATM   15  C   UNK N   1      31.260  26.158  -3.665  0.00  0.00     0.037 C 
BRANCH  15  16
HETATM   16  C   UNK N   1      32.289  26.273  -4.776  0.00  0.00     0.031 C 
BRANCH  16  17
HETATM   17  C   UNK N   1      32.828  24.906  -5.044  0.00  0.00    -0.024 C 
HETATM   18  C   UNK N   1      33.660  24.669  -6.071  0.00  0.00    -0.087 C 
HETATM   19  C   UNK N   1      34.101  25.771  -6.985  0.00  0.00     0.043 C 
BRANCH  18  20
HETATM   20  C   UNK N   1      34.171  23.291  -6.324  0.00  0.00     0.037 C 
BRANCH  20  21
HETATM   21  C   UNK N   1      34.956  22.800  -5.119  0.00  0.00     0.031 C 
BRANCH  21  22
HETATM   22  C   UNK N   1      34.309  21.583  -4.535  0.00  0.00    -0.024 C 
HETATM   23  C   UNK N   1      34.783  20.342  -4.715  0.00  0.00    -0.091 C 
HETATM   24  C   UNK N   1      34.071  19.197  -4.087  0.00  0.00     0.042 C 
HETATM   25  C   UNK N   1      36.012  20.071  -5.527  0.00  0.00     0.042 C 
ENDBRANCH  21  22
ENDBRANCH  20  21
ENDBRANCH  18  20
ENDBRANCH  16  17
ENDBRANCH  15  16
ENDBRANCH  13  15
ENDBRANCH  11  12
ENDBRANCH  10  11
ENDBRANCH   8  10
ENDBRANCH   6   7
ENDBRANCH   5   6
ENDBRANCH   3   5
ENDBRANCH   1   2
BRANCH   1  26
HETATM   26  C   UNK N   1      27.657  24.192  -4.172  0.00  0.00     0.037 C 
BRANCH  26  27
HETATM   27  C   UNK N   1      28.927  23.416  -3.932  0.00  0.00    -0.087 C 
HETATM   28  C   UNK N   1      29.401  23.216  -2.524  0.00  0.00     0.043 C 
HETATM   29  C   UNK N   1      29.621  22.923  -4.966  0.00  0.00    -0.024 C 
BRANCH  29  30
HETATM   30  C   UNK N   1      30.874  22.094  -4.759  0.00  0.00     0.031 C 
BRANCH  30  31
HETATM   31  C   UNK N   1      30.662  20.629  -5.196  0.00  0.00     0.037 C 
BRANCH  31  32
HETATM   32  C   UNK N   1      30.402  20.667  -6.661  0.00  0.00    -0.087 C 
HETATM   33  C   UNK N   1      31.411  21.334  -7.546  0.00  0.00     0.043 C 
HETATM   34  C   UNK N   1      29.179  20.335  -7.109  0.00  0.00    -0.020 C 
BRANCH  34  35
HETATM   35  C   UNK N   1      28.759  20.836  -8.440  0.00  0.00     0.070 C 
BRANCH  35  36
HETATM   36  C   UNK N   1      27.838  21.992  -8.587  0.00  0.00     0.006 A 
HETATM   37  C   UNK N   1      26.513  21.816  -8.378  0.00  0.00    -0.001 A 
HETATM   38  C   UNK N   1      25.991  20.522  -7.826  0.00  0.00     0.053 C 
HETATM   39  C   UNK N   1      25.553  22.871  -8.777  0.00  0.00     0.189 A 
HETATM   40  C   UNK N   1      26.031  24.081  -9.477  0.00  0.00     0.029 A 
HETATM   41  O   UNK N   1      24.352  22.695  -8.603  0.00  0.00    -0.287 OA
HETATM   42  C   UNK N   1      25.126  25.020  -9.986  0.00  0.00     0.016 A 
HETATM   43  C   UNK N   1      27.415  24.275  -9.664  0.00  0.00     0.029 A 
HETATM   44  C   UNK N   1      25.588  26.142 -10.676  0.00  0.00     0.001 A 
HETATM   45  C   UNK N   1      26.961  26.341 -10.851  0.00  0.00     0.001 A 
HETATM   46  C   UNK N   1      27.871  25.411 -10.346  0.00  0.00     0.016 A 
HETATM   47  C   UNK N   1      28.358  23.251  -9.180  0.00  0.00     0.190 A 
HETATM   48  O   UNK N   1      29.567  23.409  -9.327  0.00  0.00    -0.287 OA
ENDBRANCH  35  36
ENDBRANCH  34  35
ENDBRANCH  31  32
ENDBRANCH  30  31
ENDBRANCH  29  30
ENDBRANCH  26  27
ENDBRANCH   1  26
TORSDOF 20
ENDMDL
MODEL 6
REMARK VINA RESULT:      -5.6     12.520     15.272
REMARK  20 active torsions:
REMARK  status: ('A' for Active; 'I' for Inactive)
REMARK    1  A    between atoms: C_18  and  C_12 
REMARK    2  A    between atoms: C_19  and  C_12 
REMARK    3  A    between atoms: C_20  and  C_13 
REMARK    4  A    between atoms: C_21  and  C_13 
REMARK    5  A    between atoms: C_22  and  C_14 
REMARK    6  A    between atoms: C_23  and  C_14 
REMARK    7  A    between atoms: C_24  and  C_15 
REMARK    8  A    between atoms: C_25  and  C_15 
REMARK    9  A    between atoms: C_26  and  C_16 
REMARK   10  A    between atoms: C_27  and  C_16 
REMARK   11  A    between atoms: C_28  and  C_17 
REMARK   12  A    between atoms: C_29  and  C_17 
REMARK   13  A    between atoms: C_35  and  C_19 
REMARK   14  A    between atoms: C_36  and  C_21 
REMARK   15  A    between atoms: C_37  and  C_23 
REMARK   16  A    between atoms: C_38  and  C_25 
REMARK   17  A    between atoms: C_39  and  C_27 
REMARK   18  A    between atoms: C_40  and  C_29 
REMARK   19  A    between atoms: C_33  and  C_32 
REMARK   20  A    between atoms: C_42  and  C_33 
ROOT
HETATM    1  C   UNK N   1      24.455  13.987   1.854  0.00  0.00     0.031 C 
ENDROOT
BRANCH   1   2
HETATM    2  C   UNK N   1      24.064  15.103   2.763  0.00  0.00    -0.024 C 
HETATM    3  C   UNK N   1      24.951  16.042   3.126  0.00  0.00    -0.087 C 
HETATM    4  C   UNK N   1      26.341  16.073   2.572  0.00  0.00     0.043 C 
BRANCH   3   5
HETATM    5  C   UNK N   1      24.604  17.011   4.199  0.00  0.00     0.037 C 
BRANCH   5   6
HETATM    6  C   UNK N   1      24.589  18.445   3.720  0.00  0.00     0.031 C 
BRANCH   6   7
HETATM    7  C   UNK N   1      24.952  19.444   4.769  0.00  0.00    -0.024 C 
HETATM    8  C   UNK N   1      25.873  20.408   4.576  0.00  0.00    -0.087 C 
HETATM    9  C   UNK N   1      26.529  20.632   3.249  0.00  0.00     0.043 C 
BRANCH   8  10
HETATM   10  C   UNK N   1      26.345  21.196   5.749  0.00  0.00     0.037 C 
BRANCH  10  11
HETATM   11  C   UNK N   1      27.759  20.682   5.992  0.00  0.00     0.031 C 
BRANCH  11  12
HETATM   12  C   UNK N   1      27.863  19.368   6.691  0.00  0.00    -0.024 C 
HETATM   13  C   UNK N   1      28.338  18.232   6.136  0.00  0.00    -0.087 C 
HETATM   14  C   UNK N   1      28.854  18.163   4.738  0.00  0.00     0.043 C 
BRANCH  13  15
HETATM   15  C   UNK N   1      28.343  16.972   6.932  0.00  0.00     0.037 C 
BRANCH  15  16
HETATM   16  C   UNK N   1      27.005  16.261   6.829  0.00  0.00     0.031 C 
BRANCH  16  17
HETATM   17  C   UNK N   1      27.197  15.046   5.983  0.00  0.00    -0.024 C 
HETATM   18  C   UNK N   1      26.321  14.029   6.005  0.00  0.00    -0.087 C 
HETATM   19  C   UNK N   1      25.098  14.075   6.869  0.00  0.00     0.043 C 
BRANCH  18  20
HETATM   20  C   UNK N   1      26.546  12.821   5.160  0.00  0.00     0.037 C 
BRANCH  20  21
HETATM   21  C   UNK N   1      27.572  13.128   4.081  0.00  0.00     0.031 C 
BRANCH  21  22
HETATM   22  C   UNK N   1      28.883  12.483   4.409  0.00  0.00    -0.024 C 
HETATM   23  C   UNK N   1      30.055  13.130   4.348  0.00  0.00    -0.091 C 
HETATM   24  C   UNK N   1      31.303  12.402   4.701  0.00  0.00     0.042 C 
HETATM   25  C   UNK N   1      30.147  14.568   3.940  0.00  0.00     0.042 C 
ENDBRANCH  21  22
ENDBRANCH  20  21
ENDBRANCH  18  20
ENDBRANCH  16  17
ENDBRANCH  15  16
ENDBRANCH  13  15
ENDBRANCH  11  12
ENDBRANCH  10  11
ENDBRANCH   8  10
ENDBRANCH   6   7
ENDBRANCH   5   6
ENDBRANCH   3   5
ENDBRANCH   1   2
BRANCH   1  26
HETATM   26  C   UNK N   1      23.355  12.936   1.950  0.00  0.00     0.037 C 
BRANCH  26  27
HETATM   27  C   UNK N   1      23.593  12.015   3.119  0.00  0.00    -0.087 C 
HETATM   28  C   UNK N   1      24.493  10.828   2.940  0.00  0.00     0.043 C 
HETATM   29  C   UNK N   1      23.001  12.254   4.297  0.00  0.00    -0.024 C 
BRANCH  29  30
HETATM   30  C   UNK N   1      23.258  11.379   5.509  0.00  0.00     0.031 C 
BRANCH  30  31
HETATM   31  C   UNK N   1      22.018  10.533   5.869  0.00  0.00     0.037 C 
BRANCH  31  32
HETATM   32  C   UNK N   1      20.889  11.493   6.010  0.00  0.00    -0.087 C 
HETATM   33  C   UNK N   1      19.648  11.255   5.204  0.00  0.00     0.043 C 
HETATM   34  C   UNK N   1      21.105  12.656   6.648  0.00  0.00    -0.020 C 
BRANCH  34  35
HETATM   35  C   UNK N   1      20.193  13.792   6.365  0.00  0.00     0.070 C 
BRANCH  35  36
HETATM   36  C   UNK N   1      20.697  15.092   5.857  0.00  0.00     0.006 A 
HETATM   37  C   UNK N   1      20.946  16.096   6.730  0.00  0.00    -0.001 A 
HETATM   38  C   UNK N   1      20.894  15.851   8.210  0.00  0.00     0.053 C 
HETATM   39  C   UNK N   1      21.186  17.469   6.233  0.00  0.00     0.189 A 
HETATM   40  C   UNK N   1      21.073  17.764   4.789  0.00  0.00     0.029 A 
HETATM   41  O   UNK N   1      21.390  18.377   7.032  0.00  0.00    -0.287 OA
HETATM   42  C   UNK N   1      21.156  19.080   4.317  0.00  0.00     0.016 A 
HETATM   43  C   UNK N   1      20.846  16.711   3.880  0.00  0.00     0.029 A 
HETATM   44  C   UNK N   1      21.014  19.351   2.955  0.00  0.00     0.001 A 
HETATM   45  C   UNK N   1      20.800  18.305   2.052  0.00  0.00     0.001 A 
HETATM   46  C   UNK N   1      20.717  16.990   2.513  0.00  0.00     0.016 A 
HETATM   47  C   UNK N   1      20.697  15.337   4.392  0.00  0.00     0.190 A 
HETATM   48  O   UNK N   1      20.507  14.408   3.612  0.00  0.00    -0.287 OA
ENDBRANCH  35  36
ENDBRANCH  34  35
ENDBRANCH  31  32
ENDBRANCH  30  31
ENDBRANCH  29  30
ENDBRANCH  26  27
ENDBRANCH   1  26
TORSDOF 20
ENDMDL
MODEL 7
REMARK VINA RESULT:      -5.6      1.436      2.328
REMARK  20 active torsions:
REMARK  status: ('A' for Active; 'I' for Inactive)
REMARK    1  A    between atoms: C_18  and  C_12 
REMARK    2  A    between atoms: C_19  and  C_12 
REMARK    3  A    between atoms: C_20  and  C_13 
REMARK    4  A    between atoms: C_21  and  C_13 
REMARK    5  A    between atoms: C_22  and  C_14 
REMARK    6  A    between atoms: C_23  and  C_14 
REMARK    7  A    between atoms: C_24  and  C_15 
REMARK    8  A    between atoms: C_25  and  C_15 
REMARK    9  A    between atoms: C_26  and  C_16 
REMARK   10  A    between atoms: C_27  and  C_16 
REMARK   11  A    between atoms: C_28  and  C_17 
REMARK   12  A    between atoms: C_29  and  C_17 
REMARK   13  A    between atoms: C_35  and  C_19 
REMARK   14  A    between atoms: C_36  and  C_21 
REMARK   15  A    between atoms: C_37  and  C_23 
REMARK   16  A    between atoms: C_38  and  C_25 
REMARK   17  A    between atoms: C_39  and  C_27 
REMARK   18  A    between atoms: C_40  and  C_29 
REMARK   19  A    between atoms: C_33  and  C_32 
REMARK   20  A    between atoms: C_42  and  C_33 
ROOT
HETATM    1  C   UNK N   1      32.519  20.975  -8.364  0.00  0.00     0.031 C 
ENDROOT
BRANCH   1   2
HETATM    2  C   UNK N   1      32.573  22.293  -7.667  0.00  0.00    -0.024 C 
HETATM    3  C   UNK N   1      31.953  23.370  -8.176  0.00  0.00    -0.087 C 
HETATM    4  C   UNK N   1      31.108  23.287  -9.408  0.00  0.00     0.043 C 
BRANCH   3   5
HETATM    5  C   UNK N   1      32.202  24.712  -7.587  0.00  0.00     0.037 C 
BRANCH   5   6
HETATM    6  C   UNK N   1      30.932  25.436  -7.205  0.00  0.00     0.031 C 
BRANCH   6   7
HETATM    7  C   UNK N   1      29.884  24.558  -6.605  0.00  0.00    -0.024 C 
HETATM    8  C   UNK N   1      29.251  24.852  -5.452  0.00  0.00    -0.087 C 
HETATM    9  C   UNK N   1      29.464  26.148  -4.733  0.00  0.00     0.043 C 
BRANCH   8  10
HETATM   10  C   UNK N   1      28.408  23.807  -4.808  0.00  0.00     0.037 C 
BRANCH  10  11
HETATM   11  C   UNK N   1      29.227  23.367  -3.600  0.00  0.00     0.031 C 
BRANCH  11  12
HETATM   12  C   UNK N   1      29.942  22.064  -3.739  0.00  0.00    -0.024 C 
HETATM   13  C   UNK N   1      31.265  21.928  -3.972  0.00  0.00    -0.087 C 
HETATM   14  C   UNK N   1      32.194  23.089  -4.090  0.00  0.00     0.043 C 
BRANCH  13  15
HETATM   15  C   UNK N   1      31.846  20.565  -4.137  0.00  0.00     0.037 C 
BRANCH  15  16
HETATM   16  C   UNK N   1      33.338  20.575  -3.855  0.00  0.00     0.031 C 
BRANCH  16  17
HETATM   17  C   UNK N   1      33.845  19.181  -4.030  0.00  0.00    -0.024 C 
HETATM   18  C   UNK N   1      34.712  18.866  -5.007  0.00  0.00    -0.087 C 
HETATM   19  C   UNK N   1      35.223  19.906  -5.956  0.00  0.00     0.043 C 
BRANCH  18  20
HETATM   20  C   UNK N   1      35.189  17.462  -5.167  0.00  0.00     0.037 C 
BRANCH  20  21
HETATM   21  C   UNK N   1      35.759  17.265  -6.562  0.00  0.00     0.031 C 
BRANCH  21  22
HETATM   22  C   UNK N   1      34.899  16.327  -7.349  0.00  0.00    -0.024 C 
HETATM   23  C   UNK N   1      34.304  16.668  -8.501  0.00  0.00    -0.091 C 
HETATM   24  C   UNK N   1      33.473  15.660  -9.213  0.00  0.00     0.042 C 
HETATM   25  C   UNK N   1      34.455  18.033  -9.099  0.00  0.00     0.042 C 
ENDBRANCH  21  22
ENDBRANCH  20  21
ENDBRANCH  18  20
ENDBRANCH  16  17
ENDBRANCH  15  16
ENDBRANCH  13  15
ENDBRANCH  11  12
ENDBRANCH  10  11
ENDBRANCH   8  10
ENDBRANCH   6   7
ENDBRANCH   5   6
ENDBRANCH   3   5
ENDBRANCH   1   2
BRANCH   1  26
HETATM   26  C   UNK N   1      31.871  19.992  -7.396  0.00  0.00     0.037 C 
BRANCH  26  27
HETATM   27  C   UNK N   1      30.402  19.835  -7.694  0.00  0.00    -0.087 C 
HETATM   28  C   UNK N   1      29.947  18.671  -8.522  0.00  0.00     0.043 C 
HETATM   29  C   UNK N   1      29.521  20.731  -7.228  0.00  0.00    -0.024 C 
BRANCH  29  30
HETATM   30  C   UNK N   1      28.031  20.577  -7.464  0.00  0.00     0.031 C 
BRANCH  30  31
HETATM   31  C   UNK N   1      27.542  21.490  -8.608  0.00  0.00     0.037 C 
BRANCH  31  32
HETATM   32  C   UNK N   1      26.779  22.593  -7.961  0.00  0.00    -0.087 C 
HETATM   33  C   UNK N   1      25.600  22.237  -7.108  0.00  0.00     0.043 C 
HETATM   34  C   UNK N   1      27.010  23.857  -8.357  0.00  0.00    -0.020 C 
BRANCH  34  35
HETATM   35  C   UNK N   1      25.955  24.872  -8.116  0.00  0.00     0.070 C 
BRANCH  35  36
HETATM   36  C   UNK N   1      26.268  26.205  -7.543  0.00  0.00     0.006 A 
HETATM   37  C   UNK N   1      27.234  26.962  -8.111  0.00  0.00    -0.001 A 
HETATM   38  C   UNK N   1      27.860  26.553  -9.413  0.00  0.00     0.053 C 
HETATM   39  C   UNK N   1      27.747  28.160  -7.409  0.00  0.00     0.189 A 
HETATM   40  C   UNK N   1      27.265  28.485  -6.051  0.00  0.00     0.029 A 
HETATM   41  O   UNK N   1      28.638  28.829  -7.921  0.00  0.00    -0.287 OA
HETATM   42  C   UNK N   1      27.840  29.529  -5.315  0.00  0.00     0.016 A 
HETATM   43  C   UNK N   1      26.235  27.713  -5.474  0.00  0.00     0.029 A 
HETATM   44  C   UNK N   1      27.400  29.805  -4.020  0.00  0.00     0.001 A 
HETATM   45  C   UNK N   1      26.371  29.047  -3.453  0.00  0.00     0.001 A 
HETATM   46  C   UNK N   1      25.790  28.005  -4.179  0.00  0.00     0.016 A 
HETATM   47  C   UNK N   1      25.679  26.576  -6.231  0.00  0.00     0.190 A 
HETATM   48  O   UNK N   1      24.776  25.900  -5.746  0.00  0.00    -0.287 OA
ENDBRANCH  35  36
ENDBRANCH  34  35
ENDBRANCH  31  32
ENDBRANCH  30  31
ENDBRANCH  29  30
ENDBRANCH  26  27
ENDBRANCH   1  26
TORSDOF 20
ENDMDL
MODEL 8
REMARK VINA RESULT:      -5.5      1.639      5.534
REMARK  20 active torsions:
REMARK  status: ('A' for Active; 'I' for Inactive)
REMARK    1  A    between atoms: C_18  and  C_12 
REMARK    2  A    between atoms: C_19  and  C_12 
REMARK    3  A    between atoms: C_20  and  C_13 
REMARK    4  A    between atoms: C_21  and  C_13 
REMARK    5  A    between atoms: C_22  and  C_14 
REMARK    6  A    between atoms: C_23  and  C_14 
REMARK    7  A    between atoms: C_24  and  C_15 
REMARK    8  A    between atoms: C_25  and  C_15 
REMARK    9  A    between atoms: C_26  and  C_16 
REMARK   10  A    between atoms: C_27  and  C_16 
REMARK   11  A    between atoms: C_28  and  C_17 
REMARK   12  A    between atoms: C_29  and  C_17 
REMARK   13  A    between atoms: C_35  and  C_19 
REMARK   14  A    between atoms: C_36  and  C_21 
REMARK   15  A    between atoms: C_37  and  C_23 
REMARK   16  A    between atoms: C_38  and  C_25 
REMARK   17  A    between atoms: C_39  and  C_27 
REMARK   18  A    between atoms: C_40  and  C_29 
REMARK   19  A    between atoms: C_33  and  C_32 
REMARK   20  A    between atoms: C_42  and  C_33 
ROOT
HETATM    1  C   UNK N   1      31.077  23.188  -3.219  0.00  0.00     0.031 C 
ENDROOT
BRANCH   1   2
HETATM    2  C   UNK N   1      31.215  21.888  -3.940  0.00  0.00    -0.024 C 
HETATM    3  C   UNK N   1      32.176  21.013  -3.609  0.00  0.00    -0.087 C 
HETATM    4  C   UNK N   1      33.095  21.247  -2.451  0.00  0.00     0.043 C 
BRANCH   3   5
HETATM    5  C   UNK N   1      32.432  19.834  -4.477  0.00  0.00     0.037 C 
BRANCH   5   6
HETATM    6  C   UNK N   1      33.894  19.657  -4.820  0.00  0.00     0.031 C 
BRANCH   6   7
HETATM    7  C   UNK N   1      34.443  20.713  -5.722  0.00  0.00    -0.024 C 
HETATM    8  C   UNK N   1      35.450  21.533  -5.364  0.00  0.00    -0.087 C 
HETATM    9  C   UNK N   1      36.184  21.378  -4.068  0.00  0.00     0.043 C 
BRANCH   8  10
HETATM   10  C   UNK N   1      35.762  22.707  -6.226  0.00  0.00     0.037 C 
BRANCH  10  11
HETATM   11  C   UNK N   1      35.141  23.885  -5.483  0.00  0.00     0.031 C 
BRANCH  11  12
HETATM   12  C   UNK N   1      33.680  24.095  -5.702  0.00  0.00    -0.024 C 
HETATM   13  C   UNK N   1      33.146  25.035  -6.511  0.00  0.00    -0.087 C 
HETATM   14  C   UNK N   1      33.973  25.974  -7.323  0.00  0.00     0.043 C 
BRANCH  13  15
HETATM   15  C   UNK N   1      31.664  25.169  -6.604  0.00  0.00     0.037 C 
BRANCH  15  16
HETATM   16  C   UNK N   1      31.127  24.425  -7.814  0.00  0.00     0.031 C 
BRANCH  16  17
HETATM   17  C   UNK N   1      30.622  23.100  -7.348  0.00  0.00    -0.024 C 
HETATM   18  C   UNK N   1      31.200  21.952  -7.737  0.00  0.00    -0.087 C 
HETATM   19  C   UNK N   1      32.393  21.950  -8.643  0.00  0.00     0.043 C 
BRANCH  18  20
HETATM   20  C   UNK N   1      30.664  20.641  -7.268  0.00  0.00     0.037 C 
BRANCH  20  21
HETATM   21  C   UNK N   1      29.821  20.006  -8.362  0.00  0.00     0.031 C 
BRANCH  21  22
HETATM   22  C   UNK N   1      28.365  20.125  -8.033  0.00  0.00    -0.024 C 
HETATM   23  C   UNK N   1      27.538  20.974  -8.658  0.00  0.00    -0.091 C 
HETATM   24  C   UNK N   1      26.105  21.012  -8.262  0.00  0.00     0.042 C 
HETATM   25  C   UNK N   1      28.012  21.885  -9.748  0.00  0.00     0.042 C 
ENDBRANCH  21  22
ENDBRANCH  20  21
ENDBRANCH  18  20
ENDBRANCH  16  17
ENDBRANCH  15  16
ENDBRANCH  13  15
ENDBRANCH  11  12
ENDBRANCH  10  11
ENDBRANCH   8  10
ENDBRANCH   6   7
ENDBRANCH   5   6
ENDBRANCH   3   5
ENDBRANCH   1   2
BRANCH   1  26
HETATM   26  C   UNK N   1      29.593  23.373  -2.926  0.00  0.00     0.037 C 
BRANCH  26  27
HETATM   27  C   UNK N   1      28.882  23.975  -4.111  0.00  0.00    -0.087 C 
HETATM   28  C   UNK N   1      28.954  25.457  -4.327  0.00  0.00     0.043 C 
HETATM   29  C   UNK N   1      28.192  23.192  -4.951  0.00  0.00    -0.024 C 
BRANCH  29  30
HETATM   30  C   UNK N   1      27.508  23.756  -6.182  0.00  0.00     0.031 C 
BRANCH  30  31
HETATM   31  C   UNK N   1      25.992  23.933  -5.956  0.00  0.00     0.037 C 
BRANCH  31  32
HETATM   32  C   UNK N   1      25.678  25.340  -6.330  0.00  0.00    -0.087 C 
HETATM   33  C   UNK N   1      25.785  25.732  -7.772  0.00  0.00     0.043 C 
HETATM   34  C   UNK N   1      25.559  26.256  -5.355  0.00  0.00    -0.020 C 
BRANCH  34  35
HETATM   35  C   UNK N   1      25.753  27.685  -5.707  0.00  0.00     0.070 C 
BRANCH  35  36
HETATM   36  C   UNK N   1      26.867  28.486  -5.141  0.00  0.00     0.006 A 
HETATM   37  C   UNK N   1      27.973  28.708  -5.889  0.00  0.00    -0.001 A 
HETATM   38  C   UNK N   1      28.009  28.311  -7.336  0.00  0.00     0.053 C 
HETATM   39  C   UNK N   1      29.193  29.263  -5.262  0.00  0.00     0.189 A 
HETATM   40  C   UNK N   1      29.234  29.502  -3.804  0.00  0.00     0.029 A 
HETATM   41  O   UNK N   1      30.198  29.441  -5.942  0.00  0.00    -0.287 OA
HETATM   42  C   UNK N   1      30.422  29.891  -3.174  0.00  0.00     0.016 A 
HETATM   43  C   UNK N   1      28.071  29.301  -3.034  0.00  0.00     0.029 A 
HETATM   44  C   UNK N   1      30.458  30.080  -1.791  0.00  0.00     0.001 A 
HETATM   45  C   UNK N   1      29.301  29.893  -1.029  0.00  0.00     0.001 A 
HETATM   46  C   UNK N   1      28.111  29.505  -1.648  0.00  0.00     0.016 A 
HETATM   47  C   UNK N   1      26.841  28.829  -3.696  0.00  0.00     0.190 A 
HETATM   48  O   UNK N   1      25.817  28.658  -3.040  0.00  0.00    -0.287 OA
ENDBRANCH  35  36
ENDBRANCH  34  35
ENDBRANCH  31  32
ENDBRANCH  30  31
ENDBRANCH  29  30
ENDBRANCH  26  27
ENDBRANCH   1  26
TORSDOF 20
ENDMDL
MODEL 9
REMARK VINA RESULT:      -5.5      2.180      6.924
REMARK  20 active torsions:
REMARK  status: ('A' for Active; 'I' for Inactive)
REMARK    1  A    between atoms: C_18  and  C_12 
REMARK    2  A    between atoms: C_19  and  C_12 
REMARK    3  A    between atoms: C_20  and  C_13 
REMARK    4  A    between atoms: C_21  and  C_13 
REMARK    5  A    between atoms: C_22  and  C_14 
REMARK    6  A    between atoms: C_23  and  C_14 
REMARK    7  A    between atoms: C_24  and  C_15 
REMARK    8  A    between atoms: C_25  and  C_15 
REMARK    9  A    between atoms: C_26  and  C_16 
REMARK   10  A    between atoms: C_27  and  C_16 
REMARK   11  A    between atoms: C_28  and  C_17 
REMARK   12  A    between atoms: C_29  and  C_17 
REMARK   13  A    between atoms: C_35  and  C_19 
REMARK   14  A    between atoms: C_36  and  C_21 
REMARK   15  A    between atoms: C_37  and  C_23 
REMARK   16  A    between atoms: C_38  and  C_25 
REMARK   17  A    between atoms: C_39  and  C_27 
REMARK   18  A    between atoms: C_40  and  C_29 
REMARK   19  A    between atoms: C_33  and  C_32 
REMARK   20  A    between atoms: C_42  and  C_33 
ROOT
HETATM    1  C   UNK N   1      30.556  25.617  -3.571  0.00  0.00     0.031 C 
ENDROOT
BRANCH   1   2
HETATM    2  C   UNK N   1      31.566  24.875  -4.379  0.00  0.00    -0.024 C 
HETATM    3  C   UNK N   1      31.875  23.599  -4.099  0.00  0.00    -0.087 C 
HETATM    4  C   UNK N   1      31.164  22.830  -3.030  0.00  0.00     0.043 C 
BRANCH   3   5
HETATM    5  C   UNK N   1      33.034  22.955  -4.770  0.00  0.00     0.037 C 
BRANCH   5   6
HETATM    6  C   UNK N   1      32.869  22.854  -6.269  0.00  0.00     0.031 C 
BRANCH   6   7
HETATM    7  C   UNK N   1      31.901  23.834  -6.846  0.00  0.00    -0.024 C 
HETATM    8  C   UNK N   1      31.668  23.944  -8.169  0.00  0.00    -0.087 C 
HETATM    9  C   UNK N   1      32.277  23.009  -9.167  0.00  0.00     0.043 C 
BRANCH   8  10
HETATM   10  C   UNK N   1      30.880  25.106  -8.666  0.00  0.00     0.037 C 
BRANCH  10  11
HETATM   11  C   UNK N   1      29.711  25.201  -7.692  0.00  0.00     0.031 C 
BRANCH  11  12
HETATM   12  C   UNK N   1      29.411  26.565  -7.167  0.00  0.00    -0.024 C 
HETATM   13  C   UNK N   1      28.449  27.384  -7.644  0.00  0.00    -0.087 C 
HETATM   14  C   UNK N   1      27.534  27.001  -8.758  0.00  0.00     0.043 C 
BRANCH  13  15
HETATM   15  C   UNK N   1      28.285  28.744  -7.058  0.00  0.00     0.037 C 
BRANCH  15  16
HETATM   16  C   UNK N   1      29.247  29.730  -7.698  0.00  0.00     0.031 C 
BRANCH  16  17
HETATM   17  C   UNK N   1      30.566  29.594  -7.010  0.00  0.00    -0.024 C 
HETATM   18  C   UNK N   1      31.685  29.297  -7.690  0.00  0.00    -0.087 C 
HETATM   19  C   UNK N   1      31.664  29.105  -9.176  0.00  0.00     0.043 C 
BRANCH  18  20
HETATM   20  C   UNK N   1      32.985  29.152  -6.974  0.00  0.00     0.037 C 
BRANCH  20  21
HETATM   21  C   UNK N   1      33.052  27.796  -6.290  0.00  0.00     0.031 C 
BRANCH  21  22
HETATM   22  C   UNK N   1      33.852  26.835  -7.112  0.00  0.00    -0.024 C 
HETATM   23  C   UNK N   1      34.785  26.025  -6.594  0.00  0.00    -0.091 C 
HETATM   24  C   UNK N   1      35.522  25.100  -7.496  0.00  0.00     0.042 C 
HETATM   25  C   UNK N   1      35.107  26.018  -5.132  0.00  0.00     0.042 C 
ENDBRANCH  21  22
ENDBRANCH  20  21
ENDBRANCH  18  20
ENDBRANCH  16  17
ENDBRANCH  15  16
ENDBRANCH  13  15
ENDBRANCH  11  12
ENDBRANCH  10  11
ENDBRANCH   8  10
ENDBRANCH   6   7
ENDBRANCH   5   6
ENDBRANCH   3   5
ENDBRANCH   1   2
BRANCH   1  26
HETATM   26  C   UNK N   1      30.949  27.089  -3.617  0.00  0.00     0.037 C 
BRANCH  26  27
HETATM   27  C   UNK N   1      29.729  27.973  -3.565  0.00  0.00    -0.087 C 
HETATM   28  C   UNK N   1      29.908  29.450  -3.385  0.00  0.00     0.043 C 
HETATM   29  C   UNK N   1      28.505  27.438  -3.672  0.00  0.00    -0.024 C 
BRANCH  29  30
HETATM   30  C   UNK N   1      27.259  28.302  -3.677  0.00  0.00     0.031 C 
BRANCH  30  31
HETATM   31  C   UNK N   1      25.978  27.448  -3.560  0.00  0.00     0.037 C 
BRANCH  31  32
HETATM   32  C   UNK N   1      25.926  26.609  -4.789  0.00  0.00    -0.087 C 
HETATM   33  C   UNK N   1      25.077  27.074  -5.933  0.00  0.00     0.043 C 
HETATM   34  C   UNK N   1      26.427  25.362  -4.742  0.00  0.00    -0.020 C 
BRANCH  34  35
HETATM   35  C   UNK N   1      25.948  24.375  -5.740  0.00  0.00     0.070 C 
BRANCH  35  36
HETATM   36  C   UNK N   1      26.888  23.594  -6.582  0.00  0.00     0.006 A 
HETATM   37  C   UNK N   1      26.568  23.338  -7.872  0.00  0.00    -0.001 A 
HETATM   38  C   UNK N   1      25.371  23.984  -8.506  0.00  0.00     0.053 C 
HETATM   39  C   UNK N   1      27.348  22.346  -8.646  0.00  0.00     0.189 A 
HETATM   40  C   UNK N   1      28.424  21.574  -7.990  0.00  0.00     0.029 A 
HETATM   41  O   UNK N   1      27.038  22.103  -9.808  0.00  0.00    -0.287 OA
HETATM   42  C   UNK N   1      29.075  20.534  -8.665  0.00  0.00     0.016 A 
HETATM   43  C   UNK N   1      28.775  21.867  -6.656  0.00  0.00     0.029 A 
HETATM   44  C   UNK N   1      30.066  19.790  -8.024  0.00  0.00     0.001 A 
HETATM   45  C   UNK N   1      30.423  20.088  -6.705  0.00  0.00     0.001 A 
HETATM   46  C   UNK N   1      29.781  21.124  -6.024  0.00  0.00     0.016 A 
HETATM   47  C   UNK N   1      28.042  22.921  -5.933  0.00  0.00     0.190 A 
HETATM   48  O   UNK N   1      28.342  23.193  -4.774  0.00  0.00    -0.287 OA
ENDBRANCH  35  36
ENDBRANCH  34  35
ENDBRANCH  31  32
ENDBRANCH  30  31
ENDBRANCH  29  30
ENDBRANCH  26  27
ENDBRANCH   1  26
TORSDOF 20
ENDMDL
