REMARK  11 active torsions:
REMARK  status: ('A' for Active; 'I' for Inactive)
REMARK    1  A    between atoms: C_13  and  C_5 
REMARK    2  A    between atoms: O_21  and  C_5 
REMARK    3  A    between atoms: C_14  and  C_6 
REMARK    4  A    between atoms: O_22  and  C_6 
REMARK    5  A    between atoms: C_11  and  C_7 
REMARK    6  A    between atoms: S_25  and  C_7 
REMARK    7  A    between atoms: C_12  and  C_8 
REMARK    8  A    between atoms: S_26  and  C_8 
REMARK    9  A    between atoms: O_23  and  C_15 
REMARK   10  A    between atoms: O_24  and  C_16 
REMARK   11  A    between atoms: S_26  and  S_25 
ROOT
HETATM    1  S   UNK N   1      -0.502  -1.650  -0.967  0.00  0.00    -0.093 SA
ENDROOT
BRANCH   1   2
HETATM    2  C   UNK N   1      -1.148  -2.524   0.494  0.00  0.00     0.127 C 
BRANCH   2   3
HETATM    3  C   UNK N   1      -2.550  -2.977   0.276  0.00  0.00    -0.021 A 
HETATM    4  C   UNK N   1      -2.805  -4.346   0.195  0.00  0.00     0.096 A 
HETATM    5  N   UNK N   1      -4.071  -4.797   0.010  0.00  0.00    -0.367 N 
HETATM    6  C   UNK N   1      -5.122  -3.944  -0.097  0.00  0.00     0.039 A 
ATOM      7  HN  UNK N   1      -4.238  -5.802  -0.051  1.00  0.00     0.165 HD
HETATM    8  C   UNK N   1      -6.491  -4.499  -0.293  0.00  0.00     0.071 C 
HETATM    9  C   UNK N   1      -4.921  -2.557  -0.017  0.00  0.00     0.096 A 
HETATM   10  C   UNK N   1      -3.611  -2.057   0.173  0.00  0.00     0.009 A 
BRANCH   9  11
HETATM   11  O   UNK N   1      -5.974  -1.727  -0.116  0.00  0.00    -0.358 OA
HETATM   12  H   UNK N   1      -5.841  -0.803  -0.185  0.00  0.00     0.217 HD
ENDBRANCH   9  11
BRANCH  10  13
HETATM   13  C   UNK N   1      -3.299  -0.577   0.281  0.00  0.00     0.206 C 
BRANCH  13  14
HETATM   14  O   UNK N   1      -4.395   0.257   0.062  0.00  0.00    -0.396 OA
HETATM   15  H   UNK N   1      -4.273   1.207  -0.090  0.00  0.00     0.209 HD
ENDBRANCH  13  14
ENDBRANCH  10  13
ENDBRANCH   2   3
ENDBRANCH   1   2
BRANCH   1  16
HETATM   16  S   UNK N   1       1.216  -2.887  -0.967  0.00  0.00    -0.093 SA
BRANCH  16  17
HETATM   17  C   UNK N   1       1.862  -2.013   0.493  0.00  0.00     0.127 C 
BRANCH  17  18
HETATM   18  C   UNK N   1       3.264  -1.560   0.275  0.00  0.00    -0.021 A 
HETATM   19  C   UNK N   1       3.519  -0.192   0.195  0.00  0.00     0.096 A 
HETATM   20  N   UNK N   1       4.786   0.260   0.010  0.00  0.00    -0.367 N 
HETATM   21  C   UNK N   1       5.837  -0.593  -0.097  0.00  0.00     0.039 A 
ATOM     22  HN  UNK N   1       4.952   1.264  -0.051  1.00  0.00     0.165 HD
HETATM   23  C   UNK N   1       7.206  -0.039  -0.293  0.00  0.00     0.071 C 
HETATM   24  C   UNK N   1       5.635  -1.980  -0.017  0.00  0.00     0.096 A 
HETATM   25  C   UNK N   1       4.325  -2.480   0.173  0.00  0.00     0.009 A 
BRANCH  24  26
HETATM   26  O   UNK N   1       6.689  -2.810  -0.116  0.00  0.00    -0.358 OA
HETATM   27  H   UNK N   1       6.555  -3.735  -0.184  0.00  0.00     0.217 HD
ENDBRANCH  24  26
BRANCH  25  28
HETATM   28  C   UNK N   1       4.013  -3.961   0.281  0.00  0.00     0.206 C 
BRANCH  28  29
HETATM   29  O   UNK N   1       5.109  -4.794   0.062  0.00  0.00    -0.396 OA
HETATM   30  H   UNK N   1       4.988  -5.745  -0.090  0.00  0.00     0.209 HD
ENDBRANCH  28  29
ENDBRANCH  25  28
ENDBRANCH  17  18
ENDBRANCH  16  17
ENDBRANCH   1  16
TORSDOF 11
