MODEL 1
REMARK VINA RESULT:      -7.4      0.000      0.000
REMARK  5 active torsions:
REMARK  status: ('A' for Active; 'I' for Inactive)
REMARK    1  A    between atoms: C_3  and  O_26 
REMARK    2  A    between atoms: C_10  and  C_19 
REMARK    3  A    between atoms: C_11  and  C_12 
REMARK    4  A    between atoms: C_15  and  O_18 
REMARK    5  A    between atoms: C_22  and  O_25 
ROOT
HETATM    1  C   UNK N   1      26.557  20.715   7.174  0.00  0.00     0.054 C 
HETATM    2  C   UNK N   1      27.255  19.755   6.266  0.00  0.00     0.005 A 
HETATM    3  C   UNK N   1      26.843  19.627   4.928  0.00  0.00     0.074 A 
HETATM    4  C   UNK N   1      27.492  18.729   4.081  0.00  0.00     0.038 A 
HETATM    5  C   UNK N   1      28.551  17.953   4.556  0.00  0.00     0.013 A 
HETATM    6  C   UNK N   1      28.980  18.074   5.887  0.00  0.00    -0.015 A 
HETATM    7  C   UNK N   1      28.323  18.980   6.746  0.00  0.00     0.084 A 
HETATM    8  O   UNK N   1      28.728  19.118   8.036  0.00  0.00    -0.349 OA
HETATM    9  C   UNK N   1      29.702  18.328   8.618  0.00  0.00     0.186 C 
HETATM   10  C   UNK N   1      30.810  17.953   7.619  0.00  0.00     0.056 C 
HETATM   11  C   UNK N   1      30.134  17.245   6.423  0.00  0.00     0.065 C 
ENDROOT
BRANCH  10  12
HETATM   12  C   UNK N   1      31.887  17.107   8.274  0.00  0.00    -0.051 A 
HETATM   13  C   UNK N   1      31.599  15.840   8.814  0.00  0.00     0.010 A 
HETATM   14  C   UNK N   1      32.604  15.081   9.420  0.00  0.00     0.037 A 
HETATM   15  C   UNK N   1      33.904  15.582   9.501  0.00  0.00     0.065 A 
HETATM   16  C   UNK N   1      34.200  16.843   8.979  0.00  0.00     0.037 A 
HETATM   17  C   UNK N   1      33.197  17.602   8.371  0.00  0.00     0.010 A 
BRANCH  15  18
HETATM   18  O   UNK N   1      34.870  14.851  10.081  0.00  0.00    -0.361 OA
HETATM   19  H   UNK N   1      35.717  15.221  10.228  0.00  0.00     0.217 HD
ENDBRANCH  15  18
ENDBRANCH  10  12
BRANCH  11  20
HETATM   20  C   UNK N   1      31.065  16.743   5.349  0.00  0.00    -0.049 A 
HETATM   21  C   UNK N   1      31.062  15.380   5.033  0.00  0.00     0.011 A 
HETATM   22  C   UNK N   1      31.903  14.887   4.032  0.00  0.00     0.037 A 
HETATM   23  C   UNK N   1      32.743  15.759   3.333  0.00  0.00     0.065 A 
HETATM   24  C   UNK N   1      32.750  17.123   3.643  0.00  0.00     0.037 A 
HETATM   25  C   UNK N   1      31.917  17.616   4.654  0.00  0.00     0.011 A 
BRANCH  23  26
HETATM   26  O   UNK N   1      33.541  15.286   2.363  0.00  0.00    -0.361 OA
HETATM   27  H   UNK N   1      33.404  15.538   1.472  0.00  0.00     0.217 HD
ENDBRANCH  23  26
ENDBRANCH  11  20
BRANCH   3  28
HETATM   28  O   UNK N   1      25.825  20.367   4.454  0.00  0.00    -0.360 OA
HETATM   29  H   UNK N   1      25.715  20.479   3.531  0.00  0.00     0.217 HD
ENDBRANCH   3  28
TORSDOF 5
ENDMDL
MODEL 2
REMARK VINA RESULT:      -7.3     11.455     15.579
REMARK  5 active torsions:
REMARK  status: ('A' for Active; 'I' for Inactive)
REMARK    1  A    between atoms: C_3  and  O_26 
REMARK    2  A    between atoms: C_10  and  C_19 
REMARK    3  A    between atoms: C_11  and  C_12 
REMARK    4  A    between atoms: C_15  and  O_18 
REMARK    5  A    between atoms: C_22  and  O_25 
ROOT
HETATM    1  C   UNK N   1      32.133  20.192  -4.688  0.00  0.00     0.054 C 
HETATM    2  C   UNK N   1      31.273  21.285  -4.142  0.00  0.00     0.005 A 
HETATM    3  C   UNK N   1      31.496  21.772  -2.843  0.00  0.00     0.074 A 
HETATM    4  C   UNK N   1      30.690  22.790  -2.331  0.00  0.00     0.038 A 
HETATM    5  C   UNK N   1      29.659  23.327  -3.103  0.00  0.00     0.013 A 
HETATM    6  C   UNK N   1      29.427  22.857  -4.405  0.00  0.00    -0.015 A 
HETATM    7  C   UNK N   1      30.240  21.827  -4.924  0.00  0.00     0.084 A 
HETATM    8  O   UNK N   1      30.037  21.362  -6.185  0.00  0.00    -0.349 OA
HETATM    9  C   UNK N   1      28.985  21.768  -6.986  0.00  0.00     0.186 C 
HETATM   10  C   UNK N   1      28.633  23.249  -6.768  0.00  0.00     0.056 C 
HETATM   11  C   UNK N   1      28.317  23.433  -5.266  0.00  0.00     0.065 C 
ENDROOT
BRANCH  10  12
HETATM   12  C   UNK N   1      27.495  23.690  -7.670  0.00  0.00    -0.051 A 
HETATM   13  C   UNK N   1      26.254  23.028  -7.664  0.00  0.00     0.010 A 
HETATM   14  C   UNK N   1      25.222  23.444  -8.509  0.00  0.00     0.037 A 
HETATM   15  C   UNK N   1      25.420  24.522  -9.373  0.00  0.00     0.065 A 
HETATM   16  C   UNK N   1      26.652  25.181  -9.397  0.00  0.00     0.037 A 
HETATM   17  C   UNK N   1      27.684  24.766  -8.551  0.00  0.00     0.010 A 
BRANCH  15  18
HETATM   18  O   UNK N   1      24.427  24.924 -10.183  0.00  0.00    -0.361 OA
HETATM   19  H   UNK N   1      24.486  25.746 -10.629  0.00  0.00     0.217 HD
ENDBRANCH  15  18
ENDBRANCH  10  12
BRANCH  11  20
HETATM   20  C   UNK N   1      27.890  24.817  -4.852  0.00  0.00    -0.049 A 
HETATM   21  C   UNK N   1      26.660  24.982  -4.206  0.00  0.00     0.011 A 
HETATM   22  C   UNK N   1      26.243  26.251  -3.797  0.00  0.00     0.037 A 
HETATM   23  C   UNK N   1      27.062  27.361  -4.022  0.00  0.00     0.065 A 
HETATM   24  C   UNK N   1      28.292  27.204  -4.667  0.00  0.00     0.037 A 
HETATM   25  C   UNK N   1      28.706  25.935  -5.088  0.00  0.00     0.011 A 
BRANCH  23  26
HETATM   26  O   UNK N   1      26.665  28.579  -3.617  0.00  0.00    -0.361 OA
HETATM   27  H   UNK N   1      27.282  29.179  -3.247  0.00  0.00     0.217 HD
ENDBRANCH  23  26
ENDBRANCH  11  20
BRANCH   3  28
HETATM   28  O   UNK N   1      32.485  21.266  -2.085  0.00  0.00    -0.360 OA
HETATM   29  H   UNK N   1      33.378  21.359  -2.353  0.00  0.00     0.217 HD
ENDBRANCH   3  28
TORSDOF 5
ENDMDL
MODEL 3
REMARK VINA RESULT:      -7.2     11.971     15.353
REMARK  5 active torsions:
REMARK  status: ('A' for Active; 'I' for Inactive)
REMARK    1  A    between atoms: C_3  and  O_26 
REMARK    2  A    between atoms: C_10  and  C_19 
REMARK    3  A    between atoms: C_11  and  C_12 
REMARK    4  A    between atoms: C_15  and  O_18 
REMARK    5  A    between atoms: C_22  and  O_25 
ROOT
HETATM    1  C   UNK N   1      25.150  24.658 -10.033  0.00  0.00     0.054 C 
HETATM    2  C   UNK N   1      25.635  24.047  -8.758  0.00  0.00     0.005 A 
HETATM    3  C   UNK N   1      25.733  22.650  -8.642  0.00  0.00     0.074 A 
HETATM    4  C   UNK N   1      26.182  22.079  -7.451  0.00  0.00     0.038 A 
HETATM    5  C   UNK N   1      26.535  22.888  -6.371  0.00  0.00     0.013 A 
HETATM    6  C   UNK N   1      26.451  24.286  -6.473  0.00  0.00    -0.015 A 
HETATM    7  C   UNK N   1      25.994  24.866  -7.675  0.00  0.00     0.084 A 
HETATM    8  O   UNK N   1      25.912  26.217  -7.797  0.00  0.00    -0.349 OA
HETATM    9  C   UNK N   1      26.150  27.092  -6.754  0.00  0.00     0.186 C 
HETATM   10  C   UNK N   1      27.261  26.584  -5.819  0.00  0.00     0.056 C 
HETATM   11  C   UNK N   1      26.837  25.187  -5.313  0.00  0.00     0.065 C 
ENDROOT
BRANCH  10  12
HETATM   12  C   UNK N   1      27.533  27.564  -4.692  0.00  0.00    -0.051 A 
HETATM   13  C   UNK N   1      28.845  27.909  -4.319  0.00  0.00     0.010 A 
HETATM   14  C   UNK N   1      29.073  28.808  -3.274  0.00  0.00     0.037 A 
HETATM   15  C   UNK N   1      27.994  29.365  -2.585  0.00  0.00     0.065 A 
HETATM   16  C   UNK N   1      26.688  29.021  -2.938  0.00  0.00     0.037 A 
HETATM   17  C   UNK N   1      26.458  28.124  -3.984  0.00  0.00     0.010 A 
BRANCH  15  18
HETATM   18  O   UNK N   1      28.214  30.230  -1.581  0.00  0.00    -0.361 OA
HETATM   19  H   UNK N   1      27.610  30.926  -1.418  0.00  0.00     0.217 HD
ENDBRANCH  15  18
ENDBRANCH  10  12
BRANCH  11  20
HETATM   20  C   UNK N   1      27.774  24.535  -4.330  0.00  0.00    -0.049 A 
HETATM   21  C   UNK N   1      29.116  24.361  -4.686  0.00  0.00     0.011 A 
HETATM   22  C   UNK N   1      30.012  23.772  -3.790  0.00  0.00     0.037 A 
HETATM   23  C   UNK N   1      29.572  23.366  -2.527  0.00  0.00     0.065 A 
HETATM   24  C   UNK N   1      28.232  23.538  -2.165  0.00  0.00     0.037 A 
HETATM   25  C   UNK N   1      27.331  24.116  -3.065  0.00  0.00     0.011 A 
BRANCH  23  26
HETATM   26  O   UNK N   1      30.437  22.812  -1.663  0.00  0.00    -0.361 OA
HETATM   27  H   UNK N   1      30.654  21.904  -1.726  0.00  0.00     0.217 HD
ENDBRANCH  23  26
ENDBRANCH  11  20
BRANCH   3  28
HETATM   28  O   UNK N   1      25.397  21.854  -9.673  0.00  0.00    -0.360 OA
HETATM   29  H   UNK N   1      25.017  22.222 -10.446  0.00  0.00     0.217 HD
ENDBRANCH   3  28
TORSDOF 5
ENDMDL
MODEL 4
REMARK VINA RESULT:      -6.9     11.208     14.957
REMARK  5 active torsions:
REMARK  status: ('A' for Active; 'I' for Inactive)
REMARK    1  A    between atoms: C_3  and  O_26 
REMARK    2  A    between atoms: C_10  and  C_19 
REMARK    3  A    between atoms: C_11  and  C_12 
REMARK    4  A    between atoms: C_15  and  O_18 
REMARK    5  A    between atoms: C_22  and  O_25 
ROOT
HETATM    1  C   UNK N   1      32.404  21.358  -2.928  0.00  0.00     0.054 C 
HETATM    2  C   UNK N   1      31.504  21.556  -4.104  0.00  0.00     0.005 A 
HETATM    3  C   UNK N   1      31.463  20.594  -5.128  0.00  0.00     0.074 A 
HETATM    4  C   UNK N   1      30.626  20.781  -6.228  0.00  0.00     0.038 A 
HETATM    5  C   UNK N   1      29.826  21.921  -6.319  0.00  0.00     0.013 A 
HETATM    6  C   UNK N   1      29.848  22.888  -5.301  0.00  0.00    -0.015 A 
HETATM    7  C   UNK N   1      30.696  22.702  -4.189  0.00  0.00     0.084 A 
HETATM    8  O   UNK N   1      30.727  23.622  -3.189  0.00  0.00    -0.349 OA
HETATM    9  C   UNK N   1      30.042  24.822  -3.237  0.00  0.00     0.186 C 
HETATM   10  C   UNK N   1      28.693  24.686  -3.961  0.00  0.00     0.056 C 
HETATM   11  C   UNK N   1      28.981  24.132  -5.375  0.00  0.00     0.065 C 
ENDROOT
BRANCH  10  12
HETATM   12  C   UNK N   1      27.938  26.003  -3.985  0.00  0.00    -0.051 A 
HETATM   13  C   UNK N   1      28.530  27.180  -4.478  0.00  0.00     0.010 A 
HETATM   14  C   UNK N   1      27.821  28.384  -4.484  0.00  0.00     0.037 A 
HETATM   15  C   UNK N   1      26.516  28.427  -3.990  0.00  0.00     0.065 A 
HETATM   16  C   UNK N   1      25.921  27.268  -3.487  0.00  0.00     0.037 A 
HETATM   17  C   UNK N   1      26.629  26.063  -3.483  0.00  0.00     0.010 A 
BRANCH  15  18
HETATM   18  O   UNK N   1      25.834  29.584  -3.998  0.00  0.00    -0.361 OA
HETATM   19  H   UNK N   1      26.276  30.391  -4.174  0.00  0.00     0.217 HD
ENDBRANCH  15  18
ENDBRANCH  10  12
BRANCH  11  20
HETATM   20  C   UNK N   1      27.781  23.977  -6.274  0.00  0.00    -0.049 A 
HETATM   21  C   UNK N   1      27.762  24.653  -7.500  0.00  0.00     0.011 A 
HETATM   22  C   UNK N   1      26.670  24.518  -8.361  0.00  0.00     0.037 A 
HETATM   23  C   UNK N   1      25.597  23.695  -8.005  0.00  0.00     0.065 A 
HETATM   24  C   UNK N   1      25.610  23.018  -6.782  0.00  0.00     0.037 A 
HETATM   25  C   UNK N   1      26.698  23.161  -5.913  0.00  0.00     0.011 A 
BRANCH  23  26
HETATM   26  O   UNK N   1      24.554  23.557  -8.840  0.00  0.00    -0.361 OA
HETATM   27  H   UNK N   1      24.235  24.292  -9.324  0.00  0.00     0.217 HD
ENDBRANCH  23  26
ENDBRANCH  11  20
BRANCH   3  28
HETATM   28  O   UNK N   1      32.228  19.490  -5.057  0.00  0.00    -0.360 OA
HETATM   29  H   UNK N   1      31.930  18.742  -4.577  0.00  0.00     0.217 HD
ENDBRANCH   3  28
TORSDOF 5
ENDMDL
MODEL 5
REMARK VINA RESULT:      -6.7      2.360      5.088
REMARK  5 active torsions:
REMARK  status: ('A' for Active; 'I' for Inactive)
REMARK    1  A    between atoms: C_3  and  O_26 
REMARK    2  A    between atoms: C_10  and  C_19 
REMARK    3  A    between atoms: C_11  and  C_12 
REMARK    4  A    between atoms: C_15  and  O_18 
REMARK    5  A    between atoms: C_22  and  O_25 
ROOT
HETATM    1  C   UNK N   1      27.491  17.424   6.394  0.00  0.00     0.054 C 
HETATM    2  C   UNK N   1      28.687  17.604   7.271  0.00  0.00     0.005 A 
HETATM    3  C   UNK N   1      28.617  18.452   8.389  0.00  0.00     0.074 A 
HETATM    4  C   UNK N   1      29.735  18.623   9.206  0.00  0.00     0.038 A 
HETATM    5  C   UNK N   1      30.927  17.956   8.918  0.00  0.00     0.013 A 
HETATM    6  C   UNK N   1      31.011  17.098   7.809  0.00  0.00    -0.015 A 
HETATM    7  C   UNK N   1      29.883  16.926   6.980  0.00  0.00     0.084 A 
HETATM    8  O   UNK N   1      29.941  16.096   5.906  0.00  0.00    -0.349 OA
HETATM    9  C   UNK N   1      31.101  15.467   5.491  0.00  0.00     0.186 C 
HETATM   10  C   UNK N   1      31.996  15.071   6.677  0.00  0.00     0.056 C 
HETATM   11  C   UNK N   1      32.295  16.356   7.481  0.00  0.00     0.065 C 
ENDROOT
BRANCH  10  12
HETATM   12  C   UNK N   1      33.254  14.359   6.212  0.00  0.00    -0.051 A 
HETATM   13  C   UNK N   1      34.208  15.007   5.406  0.00  0.00     0.010 A 
HETATM   14  C   UNK N   1      35.355  14.331   4.981  0.00  0.00     0.037 A 
HETATM   15  C   UNK N   1      35.558  13.001   5.350  0.00  0.00     0.065 A 
HETATM   16  C   UNK N   1      34.613  12.343   6.140  0.00  0.00     0.037 A 
HETATM   17  C   UNK N   1      33.466  13.018   6.567  0.00  0.00     0.010 A 
BRANCH  15  18
HETATM   18  O   UNK N   1      36.662  12.353   4.944  0.00  0.00    -0.361 OA
HETATM   19  H   UNK N   1      36.809  11.465   5.202  0.00  0.00     0.217 HD
ENDBRANCH  15  18
ENDBRANCH  10  12
BRANCH  11  20
HETATM   20  C   UNK N   1      33.213  16.189   8.664  0.00  0.00    -0.049 A 
HETATM   21  C   UNK N   1      32.988  15.133   9.554  0.00  0.00     0.011 A 
HETATM   22  C   UNK N   1      33.831  14.944  10.651  0.00  0.00     0.037 A 
HETATM   23  C   UNK N   1      34.912  15.805  10.858  0.00  0.00     0.065 A 
HETATM   24  C   UNK N   1      35.144  16.863   9.973  0.00  0.00     0.037 A 
HETATM   25  C   UNK N   1      34.293  17.060   8.879  0.00  0.00     0.011 A 
BRANCH  23  26
HETATM   26  O   UNK N   1      35.729  15.615  11.907  0.00  0.00    -0.361 OA
HETATM   27  H   UNK N   1      35.918  14.748  12.208  0.00  0.00     0.217 HD
ENDBRANCH  23  26
ENDBRANCH  11  20
BRANCH   3  28
HETATM   28  O   UNK N   1      27.477  19.103   8.682  0.00  0.00    -0.360 OA
HETATM   29  H   UNK N   1      26.658  18.786   8.356  0.00  0.00     0.217 HD
ENDBRANCH   3  28
TORSDOF 5
ENDMDL
MODEL 6
REMARK VINA RESULT:      -6.7      3.169      5.623
REMARK  5 active torsions:
REMARK  status: ('A' for Active; 'I' for Inactive)
REMARK    1  A    between atoms: C_3  and  O_26 
REMARK    2  A    between atoms: C_10  and  C_19 
REMARK    3  A    between atoms: C_11  and  C_12 
REMARK    4  A    between atoms: C_15  and  O_18 
REMARK    5  A    between atoms: C_22  and  O_25 
ROOT
HETATM    1  C   UNK N   1      26.943  12.370   1.926  0.00  0.00     0.054 C 
HETATM    2  C   UNK N   1      26.758  13.798   2.329  0.00  0.00     0.005 A 
HETATM    3  C   UNK N   1      25.522  14.432   2.120  0.00  0.00     0.074 A 
HETATM    4  C   UNK N   1      25.350  15.766   2.492  0.00  0.00     0.038 A 
HETATM    5  C   UNK N   1      26.402  16.476   3.071  0.00  0.00     0.013 A 
HETATM    6  C   UNK N   1      27.641  15.855   3.295  0.00  0.00    -0.015 A 
HETATM    7  C   UNK N   1      27.818  14.507   2.917  0.00  0.00     0.084 A 
HETATM    8  O   UNK N   1      29.007  13.885   3.131  0.00  0.00    -0.349 OA
HETATM    9  C   UNK N   1      30.130  14.533   3.612  0.00  0.00     0.186 C 
HETATM   10  C   UNK N   1      29.771  15.629   4.629  0.00  0.00     0.056 C 
HETATM   11  C   UNK N   1      28.798  16.606   3.931  0.00  0.00     0.065 C 
ENDROOT
BRANCH  10  12
HETATM   12  C   UNK N   1      31.012  16.315   5.170  0.00  0.00    -0.051 A 
HETATM   13  C   UNK N   1      31.937  16.940   4.313  0.00  0.00     0.010 A 
HETATM   14  C   UNK N   1      33.078  17.559   4.831  0.00  0.00     0.037 A 
HETATM   15  C   UNK N   1      33.310  17.556   6.207  0.00  0.00     0.065 A 
HETATM   16  C   UNK N   1      32.405  16.929   7.066  0.00  0.00     0.037 A 
HETATM   17  C   UNK N   1      31.263  16.311   6.551  0.00  0.00     0.010 A 
BRANCH  15  18
HETATM   18  O   UNK N   1      34.405  18.153   6.704  0.00  0.00    -0.361 OA
HETATM   19  H   UNK N   1      34.547  19.068   6.565  0.00  0.00     0.217 HD
ENDBRANCH  15  18
ENDBRANCH  10  12
BRANCH  11  20
HETATM   20  C   UNK N   1      28.366  17.795   4.750  0.00  0.00    -0.049 A 
HETATM   21  C   UNK N   1      28.316  19.054   4.142  0.00  0.00     0.011 A 
HETATM   22  C   UNK N   1      27.906  20.173   4.871  0.00  0.00     0.037 A 
HETATM   23  C   UNK N   1      27.531  20.035   6.210  0.00  0.00     0.065 A 
HETATM   24  C   UNK N   1      27.578  18.779   6.824  0.00  0.00     0.037 A 
HETATM   25  C   UNK N   1      28.000  17.660   6.098  0.00  0.00     0.011 A 
BRANCH  23  26
HETATM   26  O   UNK N   1      27.125  21.109   6.906  0.00  0.00    -0.361 OA
HETATM   27  H   UNK N   1      26.576  21.007   7.658  0.00  0.00     0.217 HD
ENDBRANCH  23  26
ENDBRANCH  11  20
BRANCH   3  28
HETATM   28  O   UNK N   1      24.497  13.763   1.562  0.00  0.00    -0.360 OA
HETATM   29  H   UNK N   1      24.410  13.727   0.630  0.00  0.00     0.217 HD
ENDBRANCH   3  28
TORSDOF 5
ENDMDL
MODEL 7
REMARK VINA RESULT:      -6.4      3.401      7.798
REMARK  5 active torsions:
REMARK  status: ('A' for Active; 'I' for Inactive)
REMARK    1  A    between atoms: C_3  and  O_26 
REMARK    2  A    between atoms: C_10  and  C_19 
REMARK    3  A    between atoms: C_11  and  C_12 
REMARK    4  A    between atoms: C_15  and  O_18 
REMARK    5  A    between atoms: C_22  and  O_25 
ROOT
HETATM    1  C   UNK N   1      31.433  16.597   7.069  0.00  0.00     0.054 C 
HETATM    2  C   UNK N   1      30.530  15.906   6.099  0.00  0.00     0.005 A 
HETATM    3  C   UNK N   1      30.761  14.563   5.758  0.00  0.00     0.074 A 
HETATM    4  C   UNK N   1      29.920  13.919   4.850  0.00  0.00     0.038 A 
HETATM    5  C   UNK N   1      28.848  14.604   4.276  0.00  0.00     0.013 A 
HETATM    6  C   UNK N   1      28.598  15.944   4.612  0.00  0.00    -0.015 A 
HETATM    7  C   UNK N   1      29.448  16.597   5.528  0.00  0.00     0.084 A 
HETATM    8  O   UNK N   1      29.220  17.892   5.873  0.00  0.00    -0.349 OA
HETATM    9  C   UNK N   1      28.242  18.675   5.288  0.00  0.00     0.186 C 
HETATM   10  C   UNK N   1      26.987  17.859   4.934  0.00  0.00     0.056 C 
HETATM   11  C   UNK N   1      27.432  16.706   4.006  0.00  0.00     0.065 C 
ENDROOT
BRANCH  10  12
HETATM   12  C   UNK N   1      25.911  18.733   4.316  0.00  0.00    -0.051 A 
HETATM   13  C   UNK N   1      24.547  18.518   4.585  0.00  0.00     0.010 A 
HETATM   14  C   UNK N   1      23.571  19.329   4.000  0.00  0.00     0.037 A 
HETATM   15  C   UNK N   1      23.946  20.357   3.133  0.00  0.00     0.065 A 
HETATM   16  C   UNK N   1      25.296  20.572   2.849  0.00  0.00     0.037 A 
HETATM   17  C   UNK N   1      26.273  19.764   3.435  0.00  0.00     0.010 A 
BRANCH  15  18
HETATM   18  O   UNK N   1      23.008  21.137   2.573  0.00  0.00    -0.361 OA
HETATM   19  H   UNK N   1      22.327  20.758   2.054  0.00  0.00     0.217 HD
ENDBRANCH  15  18
ENDBRANCH  10  12
BRANCH  11  20
HETATM   20  C   UNK N   1      26.330  15.814   3.496  0.00  0.00    -0.049 A 
HETATM   21  C   UNK N   1      26.133  15.703   2.115  0.00  0.00     0.011 A 
HETATM   22  C   UNK N   1      25.129  14.873   1.611  0.00  0.00     0.037 A 
HETATM   23  C   UNK N   1      24.323  14.140   2.487  0.00  0.00     0.065 A 
HETATM   24  C   UNK N   1      24.515  14.246   3.868  0.00  0.00     0.037 A 
HETATM   25  C   UNK N   1      25.513  15.086   4.375  0.00  0.00     0.011 A 
BRANCH  23  26
HETATM   26  O   UNK N   1      23.366  13.333   2.001  0.00  0.00    -0.361 OA
HETATM   27  H   UNK N   1      22.730  13.663   1.398  0.00  0.00     0.217 HD
ENDBRANCH  23  26
ENDBRANCH  11  20
BRANCH   3  28
HETATM   28  O   UNK N   1      31.789  13.888   6.302  0.00  0.00    -0.360 OA
HETATM   29  H   UNK N   1      32.612  14.315   6.438  0.00  0.00     0.217 HD
ENDBRANCH   3  28
TORSDOF 5
ENDMDL
MODEL 8
REMARK VINA RESULT:      -6.4     10.049     12.414
REMARK  5 active torsions:
REMARK  status: ('A' for Active; 'I' for Inactive)
REMARK    1  A    between atoms: C_3  and  O_26 
REMARK    2  A    between atoms: C_10  and  C_19 
REMARK    3  A    between atoms: C_11  and  C_12 
REMARK    4  A    between atoms: C_15  and  O_18 
REMARK    5  A    between atoms: C_22  and  O_25 
ROOT
HETATM    1  C   UNK N   1      20.608  20.845   0.435  0.00  0.00     0.054 C 
HETATM    2  C   UNK N   1      20.914  19.906   1.557  0.00  0.00     0.005 A 
HETATM    3  C   UNK N   1      21.396  20.405   2.779  0.00  0.00     0.074 A 
HETATM    4  C   UNK N   1      21.685  19.529   3.825  0.00  0.00     0.038 A 
HETATM    5  C   UNK N   1      21.500  18.155   3.665  0.00  0.00     0.013 A 
HETATM    6  C   UNK N   1      21.012  17.640   2.453  0.00  0.00    -0.015 A 
HETATM    7  C   UNK N   1      20.721  18.525   1.393  0.00  0.00     0.084 A 
HETATM    8  O   UNK N   1      20.241  18.048   0.215  0.00  0.00    -0.349 OA
HETATM    9  C   UNK N   1      20.113  16.700  -0.067  0.00  0.00     0.186 C 
HETATM   10  C   UNK N   1      19.722  15.887   1.179  0.00  0.00     0.056 C 
HETATM   11  C   UNK N   1      20.795  16.150   2.259  0.00  0.00     0.065 C 
ENDROOT
BRANCH  10  12
HETATM   12  C   UNK N   1      19.560  14.413   0.853  0.00  0.00    -0.051 A 
HETATM   13  C   UNK N   1      18.293  13.848   0.617  0.00  0.00     0.010 A 
HETATM   14  C   UNK N   1      18.165  12.487   0.328  0.00  0.00     0.037 A 
HETATM   15  C   UNK N   1      19.298  11.675   0.278  0.00  0.00     0.065 A 
HETATM   16  C   UNK N   1      20.560  12.221   0.522  0.00  0.00     0.037 A 
HETATM   17  C   UNK N   1      20.690  13.582   0.810  0.00  0.00     0.010 A 
BRANCH  15  18
HETATM   18  O   UNK N   1      19.175  10.367  -0.004  0.00  0.00    -0.361 OA
HETATM   19  H   UNK N   1      18.688  10.090  -0.754  0.00  0.00     0.217 HD
ENDBRANCH  15  18
ENDBRANCH  10  12
BRANCH  11  20
HETATM   20  C   UNK N   1      20.622  15.393   3.551  0.00  0.00    -0.049 A 
HETATM   21  C   UNK N   1      21.703  14.661   4.056  0.00  0.00     0.011 A 
HETATM   22  C   UNK N   1      21.578  13.961   5.259  0.00  0.00     0.037 A 
HETATM   23  C   UNK N   1      20.374  14.000   5.968  0.00  0.00     0.065 A 
HETATM   24  C   UNK N   1      19.291  14.730   5.469  0.00  0.00     0.037 A 
HETATM   25  C   UNK N   1      19.410  15.423   4.259  0.00  0.00     0.011 A 
BRANCH  23  26
HETATM   26  O   UNK N   1      20.260  13.337   7.130  0.00  0.00    -0.361 OA
HETATM   27  H   UNK N   1      19.862  13.747   7.873  0.00  0.00     0.217 HD
ENDBRANCH  23  26
ENDBRANCH  11  20
BRANCH   3  28
HETATM   28  O   UNK N   1      21.580  21.727   2.951  0.00  0.00    -0.360 OA
HETATM   29  H   UNK N   1      20.847  22.309   2.945  0.00  0.00     0.217 HD
ENDBRANCH   3  28
TORSDOF 5
ENDMDL
MODEL 9
REMARK VINA RESULT:      -6.4      8.894     12.898
REMARK  5 active torsions:
REMARK  status: ('A' for Active; 'I' for Inactive)
REMARK    1  A    between atoms: C_3  and  O_26 
REMARK    2  A    between atoms: C_10  and  C_19 
REMARK    3  A    between atoms: C_11  and  C_12 
REMARK    4  A    between atoms: C_15  and  O_18 
REMARK    5  A    between atoms: C_22  and  O_25 
ROOT
HETATM    1  C   UNK N   1      36.109  10.415  20.157  0.00  0.00     0.054 C 
HETATM    2  C   UNK N   1      35.726  11.356  19.061  0.00  0.00     0.005 A 
HETATM    3  C   UNK N   1      35.308  12.661  19.369  0.00  0.00     0.074 A 
HETATM    4  C   UNK N   1      34.947  13.538  18.346  0.00  0.00     0.038 A 
HETATM    5  C   UNK N   1      34.999  13.125  17.014  0.00  0.00     0.013 A 
HETATM    6  C   UNK N   1      35.422  11.827  16.688  0.00  0.00    -0.015 A 
HETATM    7  C   UNK N   1      35.785  10.938  17.721  0.00  0.00     0.084 A 
HETATM    8  O   UNK N   1      36.205   9.679  17.427  0.00  0.00    -0.349 OA
HETATM    9  C   UNK N   1      36.200   9.154  16.147  0.00  0.00     0.186 C 
HETATM   10  C   UNK N   1      36.526  10.219  15.087  0.00  0.00     0.056 C 
HETATM   11  C   UNK N   1      35.494  11.359  15.245  0.00  0.00     0.065 C 
ENDROOT
BRANCH  10  12
HETATM   12  C   UNK N   1      36.543   9.627  13.689  0.00  0.00    -0.051 A 
HETATM   13  C   UNK N   1      37.610   9.865  12.804  0.00  0.00     0.010 A 
HETATM   14  C   UNK N   1      37.603   9.317  11.519  0.00  0.00     0.037 A 
HETATM   15  C   UNK N   1      36.527   8.532  11.101  0.00  0.00     0.065 A 
HETATM   16  C   UNK N   1      35.456   8.298  11.967  0.00  0.00     0.037 A 
HETATM   17  C   UNK N   1      35.463   8.843  13.253  0.00  0.00     0.010 A 
BRANCH  15  18
HETATM   18  O   UNK N   1      36.521   8.003   9.867  0.00  0.00    -0.361 OA
HETATM   19  H   UNK N   1      36.762   8.527   9.129  0.00  0.00     0.217 HD
ENDBRANCH  15  18
ENDBRANCH  10  12
BRANCH  11  20
HETATM   20  C   UNK N   1      35.607  12.486  14.251  0.00  0.00    -0.049 A 
HETATM   21  C   UNK N   1      34.886  12.409  13.054  0.00  0.00     0.011 A 
HETATM   22  C   UNK N   1      34.959  13.445  12.120  0.00  0.00     0.037 A 
HETATM   23  C   UNK N   1      35.746  14.570  12.384  0.00  0.00     0.065 A 
HETATM   24  C   UNK N   1      36.469  14.653  13.578  0.00  0.00     0.037 A 
HETATM   25  C   UNK N   1      36.406  13.611  14.510  0.00  0.00     0.011 A 
BRANCH  23  26
HETATM   26  O   UNK N   1      35.805  15.570  11.490  0.00  0.00    -0.361 OA
HETATM   27  H   UNK N   1      36.617  15.791  11.080  0.00  0.00     0.217 HD
ENDBRANCH  23  26
ENDBRANCH  11  20
BRANCH   3  28
HETATM   28  O   UNK N   1      35.252  13.075  20.647  0.00  0.00    -0.360 OA
HETATM   29  H   UNK N   1      34.428  13.120  21.092  0.00  0.00     0.217 HD
ENDBRANCH   3  28
TORSDOF 5
ENDMDL
