MODEL 1
REMARK VINA RESULT:      -5.5      0.000      0.000
REMARK  24 active torsions:
REMARK  status: ('A' for Active; 'I' for Inactive)
REMARK    1  A    between atoms: C_2  and  C_3 
REMARK    2  A    between atoms: C_3  and  C_4 
REMARK    3  A    between atoms: C_4  and  C_5 
REMARK    4  A    between atoms: C_5  and  C_6 
REMARK    5  A    between atoms: C_6  and  C_7 
REMARK    6  A    between atoms: C_7  and  C_8 
REMARK    7  A    between atoms: C_8  and  C_9 
REMARK    8  A    between atoms: C_9  and  C_10 
REMARK    9  A    between atoms: C_10  and  C_11 
REMARK   10  A    between atoms: C_11  and  C_12 
REMARK   11  A    between atoms: C_12  and  N_13 
REMARK   12  A    between atoms: N_13  and  C_14 
REMARK   13  A    between atoms: C_14  and  C_15 
REMARK   14  A    between atoms: C_15  and  C_16 
REMARK   15  A    between atoms: C_15  and  O_39 
REMARK   16  A    between atoms: C_16  and  C_17 
REMARK   17  A    between atoms: C_17  and  C_18 
REMARK   18  A    between atoms: C_18  and  C_19 
REMARK   19  A    between atoms: C_19  and  C_20 
REMARK   20  A    between atoms: C_20  and  C_21 
REMARK   21  A    between atoms: C_21  and  C_22 
REMARK   22  A    between atoms: C_22  and  C_23 
REMARK   23  A    between atoms: C_23  and  C_24 
REMARK   24  A    between atoms: C_24  and  N_25 
ROOT
HETATM    1  C   UNK N   1      24.133  19.795   3.439  0.00  0.00     0.000 C 
ENDROOT
BRANCH   1   2
HETATM    2  C   UNK N   1      23.018  20.504   2.679  0.00  0.00     0.002 C 
BRANCH   2   3
HETATM    3  C   UNK N   1      21.643  20.030   3.126  0.00  0.00     0.033 C 
BRANCH   3   4
HETATM    4  C   UNK N   1      20.727  19.877   1.925  0.00  0.00     0.135 C 
BRANCH   4   5
HETATM    5  C   UNK N   1      20.359  18.415   1.695  0.00  0.00     0.145 C 
BRANCH   5   6
HETATM    6  N   UNK N   1      19.599  17.887   2.821  0.00  0.00    -0.419 N 
HETATM    7  H   UNK N   1      18.922  18.403   3.382  0.00  0.00     0.153 HD
BRANCH   6   8
HETATM    8  C   UNK N   1      19.976  16.490   3.006  0.00  0.00     0.113 C 
BRANCH   8   9
HETATM    9  C   UNK N   1      21.464  16.287   2.754  0.00  0.00     0.019 C 
BRANCH   9  10
HETATM   10  C   UNK N   1      22.152  15.729   3.989  0.00  0.00     0.002 C 
BRANCH  10  11
HETATM   11  C   UNK N   1      22.506  16.864   4.935  0.00  0.00     0.000 C 
BRANCH  11  12
HETATM   12  C   UNK N   1      23.904  16.676   5.493  0.00  0.00     0.000 C 
BRANCH  12  13
HETATM   13  C   UNK N   1      24.607  15.577   4.730  0.00  0.00     0.000 C 
BRANCH  13  14
HETATM   14  C   UNK N   1      25.887  16.116   4.138  0.00  0.00     0.000 C 
BRANCH  14  15
HETATM   15  C   UNK N   1      25.713  16.217   2.642  0.00  0.00     0.000 C 
BRANCH  15  16
HETATM   16  C   UNK N   1      26.429  15.079   1.954  0.00  0.00     0.000 C 
BRANCH  16  17
HETATM   17  C   UNK N   1      25.429  13.965   1.734  0.00  0.00    -0.000 C 
BRANCH  17  18
HETATM   18  C   UNK N   1      24.209  14.491   1.014  0.00  0.00    -0.005 C 
HETATM   19  C   UNK N   1      23.609  13.371   0.191  0.00  0.00     0.005 C 
ENDBRANCH  17  18
ENDBRANCH  16  17
ENDBRANCH  15  16
ENDBRANCH  14  15
ENDBRANCH  13  14
ENDBRANCH  12  13
ENDBRANCH  11  12
ENDBRANCH  10  11
ENDBRANCH   9  10
ENDBRANCH   8   9
ENDBRANCH   6   8
ENDBRANCH   5   6
ENDBRANCH   4   5
BRANCH   4  20
HETATM   20  O   UNK N   1      21.333  20.422   0.793  0.00  0.00    -0.394 OA
HETATM   21  H   UNK N   1      20.798  20.682   0.028  0.00  0.00     0.210 HD
ENDBRANCH   4  20
ENDBRANCH   3   4
ENDBRANCH   2   3
ENDBRANCH   1   2
BRANCH   1  22
HETATM   22  C   UNK N   1      25.491  20.186   2.886  0.00  0.00     0.000 C 
BRANCH  22  23
HETATM   23  C   UNK N   1      26.338  20.815   3.977  0.00  0.00     0.000 C 
BRANCH  23  24
HETATM   24  C   UNK N   1      27.407  19.843   4.455  0.00  0.00     0.000 C 
BRANCH  24  25
HETATM   25  C   UNK N   1      26.951  19.100   5.706  0.00  0.00     0.002 C 
BRANCH  25  26
HETATM   26  C   UNK N   1      28.109  18.833   6.656  0.00  0.00     0.020 C 
BRANCH  26  27
HETATM   27  C   UNK N   1      28.484  17.359   6.619  0.00  0.00     0.137 C 
BRANCH  27  28
HETATM   28  N   UNK N   1      29.877  17.171   6.200  0.00  0.00    -0.264 N 
HETATM   29  C   UNK N   1      30.879  17.169   7.156  0.00  0.00     0.282 A 
HETATM   30  O   UNK N   1      30.618  17.300   8.342  0.00  0.00    -0.265 OA
HETATM   31  C   UNK N   1      32.192  17.021   6.729  0.00  0.00     0.149 A 
HETATM   32  C   UNK N   1      32.478  16.880   5.418  0.00  0.00     0.145 A 
HETATM   33  N   UNK N   1      33.340  16.990   7.421  0.00  0.00    -0.340 N 
HETATM   34  N   UNK N   1      33.807  16.758   5.242  0.00  0.00    -0.336 N 
HETATM   35  N   UNK N   1      31.520  16.876   4.459  0.00  0.00    -0.287 N 
HETATM   36  C   UNK N   1      34.321  16.830   6.500  0.00  0.00     0.184 A 
ATOM     37  HN  UNK N   1      34.314  16.638   4.365  1.00  0.00     0.168 HD
HETATM   38  C   UNK N   1      30.197  17.026   4.849  0.00  0.00     0.332 A 
HETATM   39  C   UNK N   1      31.882  16.725   3.055  0.00  0.00     0.163 C 
HETATM   40  O   UNK N   1      29.314  17.039   4.005  0.00  0.00    -0.246 OA
HETATM   41  C   UNK N   1      33.527  17.109   8.857  0.00  0.00     0.157 C 
ENDBRANCH  27  28
ENDBRANCH  26  27
ENDBRANCH  25  26
ENDBRANCH  24  25
ENDBRANCH  23  24
ENDBRANCH  22  23
ENDBRANCH   1  22
TORSDOF 24
ENDMDL
MODEL 2
REMARK VINA RESULT:      -5.4      3.136      9.388
REMARK  24 active torsions:
REMARK  status: ('A' for Active; 'I' for Inactive)
REMARK    1  A    between atoms: C_2  and  C_3 
REMARK    2  A    between atoms: C_3  and  C_4 
REMARK    3  A    between atoms: C_4  and  C_5 
REMARK    4  A    between atoms: C_5  and  C_6 
REMARK    5  A    between atoms: C_6  and  C_7 
REMARK    6  A    between atoms: C_7  and  C_8 
REMARK    7  A    between atoms: C_8  and  C_9 
REMARK    8  A    between atoms: C_9  and  C_10 
REMARK    9  A    between atoms: C_10  and  C_11 
REMARK   10  A    between atoms: C_11  and  C_12 
REMARK   11  A    between atoms: C_12  and  N_13 
REMARK   12  A    between atoms: N_13  and  C_14 
REMARK   13  A    between atoms: C_14  and  C_15 
REMARK   14  A    between atoms: C_15  and  C_16 
REMARK   15  A    between atoms: C_15  and  O_39 
REMARK   16  A    between atoms: C_16  and  C_17 
REMARK   17  A    between atoms: C_17  and  C_18 
REMARK   18  A    between atoms: C_18  and  C_19 
REMARK   19  A    between atoms: C_19  and  C_20 
REMARK   20  A    between atoms: C_20  and  C_21 
REMARK   21  A    between atoms: C_21  and  C_22 
REMARK   22  A    between atoms: C_22  and  C_23 
REMARK   23  A    between atoms: C_23  and  C_24 
REMARK   24  A    between atoms: C_24  and  N_25 
ROOT
HETATM    1  C   UNK N   1      27.100  20.729   5.911  0.00  0.00     0.000 C 
ENDROOT
BRANCH   1   2
HETATM    2  C   UNK N   1      27.787  20.458   7.244  0.00  0.00     0.002 C 
BRANCH   2   3
HETATM    3  C   UNK N   1      28.130  18.985   7.410  0.00  0.00     0.033 C 
BRANCH   3   4
HETATM    4  C   UNK N   1      28.304  18.651   8.880  0.00  0.00     0.135 C 
BRANCH   4   5
HETATM    5  C   UNK N   1      29.777  18.486   9.239  0.00  0.00     0.145 C 
BRANCH   5   6
HETATM    6  N   UNK N   1      30.090  17.091   9.522  0.00  0.00    -0.419 N 
HETATM    7  H   UNK N   1      29.629  16.502  10.215  0.00  0.00     0.153 HD
BRANCH   6   8
HETATM    8  C   UNK N   1      31.179  16.683   8.640  0.00  0.00     0.113 C 
BRANCH   8   9
HETATM    9  C   UNK N   1      32.276  17.739   8.602  0.00  0.00     0.019 C 
BRANCH   9  10
HETATM   10  C   UNK N   1      32.982  17.739   7.256  0.00  0.00     0.002 C 
BRANCH  10  11
HETATM   11  C   UNK N   1      34.014  16.625   7.220  0.00  0.00     0.000 C 
BRANCH  11  12
HETATM   12  C   UNK N   1      34.238  16.151   5.797  0.00  0.00     0.000 C 
BRANCH  12  13
HETATM   13  C   UNK N   1      33.366  16.952   4.857  0.00  0.00     0.000 C 
BRANCH  13  14
HETATM   14  C   UNK N   1      32.689  16.019   3.881  0.00  0.00     0.000 C 
BRANCH  14  15
HETATM   15  C   UNK N   1      31.740  16.827   3.031  0.00  0.00     0.000 C 
BRANCH  15  16
HETATM   16  C   UNK N   1      30.640  17.410   3.885  0.00  0.00     0.000 C 
BRANCH  16  17
HETATM   17  C   UNK N   1      29.590  16.340   4.086  0.00  0.00    -0.000 C 
BRANCH  17  18
HETATM   18  C   UNK N   1      29.338  16.123   5.560  0.00  0.00    -0.005 C 
HETATM   19  C   UNK N   1      27.886  15.739   5.754  0.00  0.00     0.005 C 
ENDBRANCH  17  18
ENDBRANCH  16  17
ENDBRANCH  15  16
ENDBRANCH  14  15
ENDBRANCH  13  14
ENDBRANCH  12  13
ENDBRANCH  11  12
ENDBRANCH  10  11
ENDBRANCH   9  10
ENDBRANCH   8   9
ENDBRANCH   6   8
ENDBRANCH   5   6
ENDBRANCH   4   5
BRANCH   4  20
HETATM   20  O   UNK N   1      27.584  17.498   9.193  0.00  0.00    -0.394 OA
HETATM   21  H   UNK N   1      27.719  17.051  10.044  0.00  0.00     0.210 HD
ENDBRANCH   4  20
ENDBRANCH   3   4
ENDBRANCH   2   3
ENDBRANCH   1   2
BRANCH   1  22
HETATM   22  C   UNK N   1      27.369  19.602   4.931  0.00  0.00     0.000 C 
BRANCH  22  23
HETATM   23  C   UNK N   1      27.004  20.035   3.523  0.00  0.00     0.000 C 
BRANCH  23  24
HETATM   24  C   UNK N   1      25.543  19.729   3.229  0.00  0.00     0.000 C 
BRANCH  24  25
HETATM   25  C   UNK N   1      25.118  18.415   3.874  0.00  0.00     0.002 C 
BRANCH  25  26
HETATM   26  C   UNK N   1      24.101  18.635   4.984  0.00  0.00     0.020 C 
BRANCH  26  27
HETATM   27  C   UNK N   1      22.717  18.217   4.513  0.00  0.00     0.137 C 
BRANCH  27  28
HETATM   28  N   UNK N   1      22.122  17.223   5.413  0.00  0.00    -0.264 N 
HETATM   29  C   UNK N   1      21.351  17.651   6.482  0.00  0.00     0.282 A 
HETATM   30  O   UNK N   1      21.144  18.838   6.673  0.00  0.00    -0.265 OA
HETATM   31  C   UNK N   1      20.826  16.690   7.337  0.00  0.00     0.149 A 
HETATM   32  C   UNK N   1      21.060  15.379   7.126  0.00  0.00     0.145 A 
HETATM   33  N   UNK N   1      20.066  16.816   8.434  0.00  0.00    -0.340 N 
HETATM   34  N   UNK N   1      20.460  14.639   8.078  0.00  0.00    -0.336 N 
HETATM   35  N   UNK N   1      21.808  14.928   6.088  0.00  0.00    -0.287 N 
HETATM   36  C   UNK N   1      19.849  15.554   8.879  0.00  0.00     0.184 A 
ATOM     37  HN  UNK N   1      20.461  13.624   8.176  1.00  0.00     0.168 HD
HETATM   38  C   UNK N   1      22.352  15.860   5.216  0.00  0.00     0.332 A 
HETATM   39  C   UNK N   1      22.035  13.500   5.907  0.00  0.00     0.163 C 
HETATM   40  O   UNK N   1      23.040  15.484   4.280  0.00  0.00    -0.246 OA
HETATM   41  C   UNK N   1      19.568  18.036   9.047  0.00  0.00     0.157 C 
ENDBRANCH  27  28
ENDBRANCH  26  27
ENDBRANCH  25  26
ENDBRANCH  24  25
ENDBRANCH  23  24
ENDBRANCH  22  23
ENDBRANCH   1  22
TORSDOF 24
ENDMDL
MODEL 3
REMARK VINA RESULT:      -5.4     10.554     13.048
REMARK  24 active torsions:
REMARK  status: ('A' for Active; 'I' for Inactive)
REMARK    1  A    between atoms: C_2  and  C_3 
REMARK    2  A    between atoms: C_3  and  C_4 
REMARK    3  A    between atoms: C_4  and  C_5 
REMARK    4  A    between atoms: C_5  and  C_6 
REMARK    5  A    between atoms: C_6  and  C_7 
REMARK    6  A    between atoms: C_7  and  C_8 
REMARK    7  A    between atoms: C_8  and  C_9 
REMARK    8  A    between atoms: C_9  and  C_10 
REMARK    9  A    between atoms: C_10  and  C_11 
REMARK   10  A    between atoms: C_11  and  C_12 
REMARK   11  A    between atoms: C_12  and  N_13 
REMARK   12  A    between atoms: N_13  and  C_14 
REMARK   13  A    between atoms: C_14  and  C_15 
REMARK   14  A    between atoms: C_15  and  C_16 
REMARK   15  A    between atoms: C_15  and  O_39 
REMARK   16  A    between atoms: C_16  and  C_17 
REMARK   17  A    between atoms: C_17  and  C_18 
REMARK   18  A    between atoms: C_18  and  C_19 
REMARK   19  A    between atoms: C_19  and  C_20 
REMARK   20  A    between atoms: C_20  and  C_21 
REMARK   21  A    between atoms: C_21  and  C_22 
REMARK   22  A    between atoms: C_22  and  C_23 
REMARK   23  A    between atoms: C_23  and  C_24 
REMARK   24  A    between atoms: C_24  and  N_25 
ROOT
HETATM    1  C   UNK N   1      26.960  23.795  -5.286  0.00  0.00     0.000 C 
ENDROOT
BRANCH   1   2
HETATM    2  C   UNK N   1      25.832  23.113  -6.052  0.00  0.00     0.002 C 
BRANCH   2   3
HETATM    3  C   UNK N   1      26.349  22.387  -7.286  0.00  0.00     0.033 C 
BRANCH   3   4
HETATM    4  C   UNK N   1      25.441  22.660  -8.472  0.00  0.00     0.135 C 
BRANCH   4   5
HETATM    5  C   UNK N   1      25.511  24.124  -8.894  0.00  0.00     0.145 C 
BRANCH   5   6
HETATM    6  N   UNK N   1      26.886  24.520  -9.171  0.00  0.00    -0.419 N 
HETATM    7  H   UNK N   1      27.582  23.963  -9.666  0.00  0.00     0.153 HD
BRANCH   6   8
HETATM    8  C   UNK N   1      27.093  25.853  -8.616  0.00  0.00     0.113 C 
BRANCH   8   9
HETATM    9  C   UNK N   1      25.850  26.339  -7.882  0.00  0.00     0.019 C 
BRANCH   9  10
HETATM   10  C   UNK N   1      26.224  27.032  -6.582  0.00  0.00     0.002 C 
BRANCH  10  11
HETATM   11  C   UNK N   1      24.973  27.287  -5.759  0.00  0.00     0.000 C 
BRANCH  11  12
HETATM   12  C   UNK N   1      25.330  27.518  -4.303  0.00  0.00     0.000 C 
BRANCH  12  13
HETATM   13  C   UNK N   1      26.311  28.664  -4.202  0.00  0.00     0.000 C 
BRANCH  13  14
HETATM   14  C   UNK N   1      27.171  28.482  -2.974  0.00  0.00     0.000 C 
BRANCH  14  15
HETATM   15  C   UNK N   1      28.583  28.888  -3.319  0.00  0.00     0.000 C 
BRANCH  15  16
HETATM   16  C   UNK N   1      28.952  28.383  -4.694  0.00  0.00     0.000 C 
BRANCH  16  17
HETATM   17  C   UNK N   1      29.438  26.958  -4.552  0.00  0.00    -0.000 C 
BRANCH  17  18
HETATM   18  C   UNK N   1      30.606  26.895  -3.595  0.00  0.00    -0.005 C 
HETATM   19  C   UNK N   1      31.788  26.275  -4.310  0.00  0.00     0.005 C 
ENDBRANCH  17  18
ENDBRANCH  16  17
ENDBRANCH  15  16
ENDBRANCH  14  15
ENDBRANCH  13  14
ENDBRANCH  12  13
ENDBRANCH  11  12
ENDBRANCH  10  11
ENDBRANCH   9  10
ENDBRANCH   8   9
ENDBRANCH   6   8
ENDBRANCH   5   6
ENDBRANCH   4   5
BRANCH   4  20
HETATM   20  O   UNK N   1      24.132  22.293  -8.161  0.00  0.00    -0.394 OA
HETATM   21  H   UNK N   1      23.741  21.495  -8.550  0.00  0.00     0.210 HD
ENDBRANCH   4  20
ENDBRANCH   3   4
ENDBRANCH   2   3
ENDBRANCH   1   2
BRANCH   1  22
HETATM   22  C   UNK N   1      26.474  24.268  -3.928  0.00  0.00     0.000 C 
BRANCH  22  23
HETATM   23  C   UNK N   1      27.558  24.063  -2.885  0.00  0.00     0.000 C 
BRANCH  23  24
HETATM   24  C   UNK N   1      28.828  23.527  -3.529  0.00  0.00     0.000 C 
BRANCH  24  25
HETATM   25  C   UNK N   1      29.881  23.202  -2.475  0.00  0.00     0.002 C 
BRANCH  25  26
HETATM   26  C   UNK N   1      31.230  22.890  -3.104  0.00  0.00     0.020 C 
BRANCH  26  27
HETATM   27  C   UNK N   1      31.536  21.405  -2.970  0.00  0.00     0.137 C 
BRANCH  27  28
HETATM   28  N   UNK N   1      32.148  20.871  -4.191  0.00  0.00    -0.264 N 
HETATM   29  C   UNK N   1      31.348  20.604  -5.290  0.00  0.00     0.282 A 
HETATM   30  O   UNK N   1      30.148  20.826  -5.264  0.00  0.00    -0.265 OA
HETATM   31  C   UNK N   1      31.948  20.069  -6.422  0.00  0.00     0.149 A 
HETATM   32  C   UNK N   1      33.275  19.821  -6.446  0.00  0.00     0.145 A 
HETATM   33  N   UNK N   1      31.427  19.712  -7.604  0.00  0.00    -0.340 N 
HETATM   34  N   UNK N   1      33.630  19.302  -7.638  0.00  0.00    -0.336 N 
HETATM   35  N   UNK N   1      34.084  20.073  -5.389  0.00  0.00    -0.287 N 
HETATM   36  C   UNK N   1      32.465  19.244  -8.339  0.00  0.00     0.184 A 
ATOM     37  HN  UNK N   1      34.560  19.019  -7.945  1.00  0.00     0.168 HD
HETATM   38  C   UNK N   1      33.518  20.605  -4.239  0.00  0.00     0.332 A 
HETATM   39  C   UNK N   1      35.511  19.783  -5.464  0.00  0.00     0.163 C 
HETATM   40  O   UNK N   1      34.220  20.830  -3.266  0.00  0.00    -0.246 OA
HETATM   41  C   UNK N   1      30.041  19.791  -8.036  0.00  0.00     0.157 C 
ENDBRANCH  27  28
ENDBRANCH  26  27
ENDBRANCH  25  26
ENDBRANCH  24  25
ENDBRANCH  23  24
ENDBRANCH  22  23
ENDBRANCH   1  22
TORSDOF 24
ENDMDL
MODEL 4
REMARK VINA RESULT:      -5.4      6.940     14.201
REMARK  24 active torsions:
REMARK  status: ('A' for Active; 'I' for Inactive)
REMARK    1  A    between atoms: C_2  and  C_3 
REMARK    2  A    between atoms: C_3  and  C_4 
REMARK    3  A    between atoms: C_4  and  C_5 
REMARK    4  A    between atoms: C_5  and  C_6 
REMARK    5  A    between atoms: C_6  and  C_7 
REMARK    6  A    between atoms: C_7  and  C_8 
REMARK    7  A    between atoms: C_8  and  C_9 
REMARK    8  A    between atoms: C_9  and  C_10 
REMARK    9  A    between atoms: C_10  and  C_11 
REMARK   10  A    between atoms: C_11  and  C_12 
REMARK   11  A    between atoms: C_12  and  N_13 
REMARK   12  A    between atoms: N_13  and  C_14 
REMARK   13  A    between atoms: C_14  and  C_15 
REMARK   14  A    between atoms: C_15  and  C_16 
REMARK   15  A    between atoms: C_15  and  O_39 
REMARK   16  A    between atoms: C_16  and  C_17 
REMARK   17  A    between atoms: C_17  and  C_18 
REMARK   18  A    between atoms: C_18  and  C_19 
REMARK   19  A    between atoms: C_19  and  C_20 
REMARK   20  A    between atoms: C_20  and  C_21 
REMARK   21  A    between atoms: C_21  and  C_22 
REMARK   22  A    between atoms: C_22  and  C_23 
REMARK   23  A    between atoms: C_23  and  C_24 
REMARK   24  A    between atoms: C_24  and  N_25 
ROOT
HETATM    1  C   UNK N   1      33.616  15.269   9.510  0.00  0.00     0.000 C 
ENDROOT
BRANCH   1   2
HETATM    2  C   UNK N   1      34.215  15.301  10.911  0.00  0.00     0.002 C 
BRANCH   2   3
HETATM    3  C   UNK N   1      34.856  13.970  11.279  0.00  0.00     0.033 C 
BRANCH   3   4
HETATM    4  C   UNK N   1      36.328  14.168  11.590  0.00  0.00     0.135 C 
BRANCH   4   5
HETATM    5  C   UNK N   1      36.694  13.558  12.939  0.00  0.00     0.145 C 
BRANCH   5   6
HETATM    6  N   UNK N   1      36.769  14.584  13.971  0.00  0.00    -0.419 N 
HETATM    7  H   UNK N   1      36.869  15.587  13.813  0.00  0.00     0.153 HD
BRANCH   6   8
HETATM    8  C   UNK N   1      36.677  13.928  15.270  0.00  0.00     0.113 C 
BRANCH   8   9
HETATM    9  C   UNK N   1      36.024  12.558  15.145  0.00  0.00     0.019 C 
BRANCH   9  10
HETATM   10  C   UNK N   1      35.325  12.171  16.439  0.00  0.00     0.002 C 
BRANCH  10  11
HETATM   11  C   UNK N   1      35.145  13.401  17.312  0.00  0.00     0.000 C 
BRANCH  11  12
HETATM   12  C   UNK N   1      35.246  13.033  18.779  0.00  0.00     0.000 C 
BRANCH  12  13
HETATM   13  C   UNK N   1      35.344  11.531  18.916  0.00  0.00     0.000 C 
BRANCH  13  14
HETATM   14  C   UNK N   1      34.801  11.111  20.261  0.00  0.00     0.000 C 
BRANCH  14  15
HETATM   15  C   UNK N   1      34.407   9.657  20.182  0.00  0.00     0.000 C 
BRANCH  15  16
HETATM   16  C   UNK N   1      34.248   9.235  18.740  0.00  0.00     0.000 C 
BRANCH  16  17
HETATM   17  C   UNK N   1      34.746   7.813  18.613  0.00  0.00    -0.000 C 
BRANCH  17  18
HETATM   18  C   UNK N   1      35.558   7.653  17.349  0.00  0.00    -0.005 C 
HETATM   19  C   UNK N   1      36.761   8.569  17.424  0.00  0.00     0.005 C 
ENDBRANCH  17  18
ENDBRANCH  16  17
ENDBRANCH  15  16
ENDBRANCH  14  15
ENDBRANCH  13  14
ENDBRANCH  12  13
ENDBRANCH  11  12
ENDBRANCH  10  11
ENDBRANCH   9  10
ENDBRANCH   8   9
ENDBRANCH   6   8
ENDBRANCH   5   6
ENDBRANCH   4   5
BRANCH   4  20
HETATM   20  O   UNK N   1      36.642  15.527  11.558  0.00  0.00    -0.394 OA
HETATM   21  H   UNK N   1      37.315  15.860  10.944  0.00  0.00     0.210 HD
ENDBRANCH   4  20
ENDBRANCH   3   4
ENDBRANCH   2   3
ENDBRANCH   1   2
BRANCH   1  22
HETATM   22  C   UNK N   1      34.583  15.862   8.501  0.00  0.00     0.000 C 
BRANCH  22  23
HETATM   23  C   UNK N   1      34.534  17.378   8.559  0.00  0.00     0.000 C 
BRANCH  23  24
HETATM   24  C   UNK N   1      33.771  17.937   7.368  0.00  0.00     0.000 C 
BRANCH  24  25
HETATM   25  C   UNK N   1      33.696  16.917   6.237  0.00  0.00     0.002 C 
BRANCH  25  26
HETATM   26  C   UNK N   1      32.520  17.187   5.311  0.00  0.00     0.020 C 
BRANCH  26  27
HETATM   27  C   UNK N   1      31.321  16.352   5.735  0.00  0.00     0.137 C 
BRANCH  27  28
HETATM   28  N   UNK N   1      30.232  17.195   6.240  0.00  0.00    -0.264 N 
HETATM   29  C   UNK N   1      29.396  17.835   5.340  0.00  0.00     0.282 A 
HETATM   30  O   UNK N   1      29.537  17.690   4.136  0.00  0.00    -0.265 OA
HETATM   31  C   UNK N   1      28.393  18.653   5.844  0.00  0.00     0.149 A 
HETATM   32  C   UNK N   1      28.241  18.814   7.175  0.00  0.00     0.145 A 
HETATM   33  N   UNK N   1      27.462  19.385   5.217  0.00  0.00    -0.340 N 
HETATM   34  N   UNK N   1      27.215  19.649   7.429  0.00  0.00    -0.336 N 
HETATM   35  N   UNK N   1      29.041  18.201   8.081  0.00  0.00    -0.287 N 
HETATM   36  C   UNK N   1      26.748  19.991   6.197  0.00  0.00     0.184 A 
ATOM     37  HN  UNK N   1      26.867  19.955   8.337  1.00  0.00     0.168 HD
HETATM   38  C   UNK N   1      30.057  17.379   7.613  0.00  0.00     0.332 A 
HETATM   39  C   UNK N   1      28.839  18.412   9.509  0.00  0.00     0.163 C 
HETATM   40  O   UNK N   1      30.802  16.824   8.405  0.00  0.00    -0.246 OA
HETATM   41  C   UNK N   1      27.242  19.526   3.788  0.00  0.00     0.157 C 
ENDBRANCH  27  28
ENDBRANCH  26  27
ENDBRANCH  25  26
ENDBRANCH  24  25
ENDBRANCH  23  24
ENDBRANCH  22  23
ENDBRANCH   1  22
TORSDOF 24
ENDMDL
MODEL 5
REMARK VINA RESULT:      -5.4      1.151      2.828
REMARK  24 active torsions:
REMARK  status: ('A' for Active; 'I' for Inactive)
REMARK    1  A    between atoms: C_2  and  C_3 
REMARK    2  A    between atoms: C_3  and  C_4 
REMARK    3  A    between atoms: C_4  and  C_5 
REMARK    4  A    between atoms: C_5  and  C_6 
REMARK    5  A    between atoms: C_6  and  C_7 
REMARK    6  A    between atoms: C_7  and  C_8 
REMARK    7  A    between atoms: C_8  and  C_9 
REMARK    8  A    between atoms: C_9  and  C_10 
REMARK    9  A    between atoms: C_10  and  C_11 
REMARK   10  A    between atoms: C_11  and  C_12 
REMARK   11  A    between atoms: C_12  and  N_13 
REMARK   12  A    between atoms: N_13  and  C_14 
REMARK   13  A    between atoms: C_14  and  C_15 
REMARK   14  A    between atoms: C_15  and  C_16 
REMARK   15  A    between atoms: C_15  and  O_39 
REMARK   16  A    between atoms: C_16  and  C_17 
REMARK   17  A    between atoms: C_17  and  C_18 
REMARK   18  A    between atoms: C_18  and  C_19 
REMARK   19  A    between atoms: C_19  and  C_20 
REMARK   20  A    between atoms: C_20  and  C_21 
REMARK   21  A    between atoms: C_21  and  C_22 
REMARK   22  A    between atoms: C_22  and  C_23 
REMARK   23  A    between atoms: C_23  and  C_24 
REMARK   24  A    between atoms: C_24  and  N_25 
ROOT
HETATM    1  C   UNK N   1      24.001  18.986   3.777  0.00  0.00     0.000 C 
ENDROOT
BRANCH   1   2
HETATM    2  C   UNK N   1      22.557  19.408   3.533  0.00  0.00     0.002 C 
BRANCH   2   3
HETATM    3  C   UNK N   1      22.472  20.607   2.599  0.00  0.00     0.033 C 
BRANCH   3   4
HETATM    4  C   UNK N   1      21.167  20.575   1.825  0.00  0.00     0.135 C 
BRANCH   4   5
HETATM    5  C   UNK N   1      20.335  19.352   2.196  0.00  0.00     0.145 C 
BRANCH   5   6
HETATM    6  N   UNK N   1      20.147  18.482   1.042  0.00  0.00    -0.419 N 
HETATM    7  H   UNK N   1      20.061  18.784   0.071  0.00  0.00     0.153 HD
BRANCH   6   8
HETATM    8  C   UNK N   1      20.102  17.103   1.516  0.00  0.00     0.113 C 
BRANCH   8   9
HETATM    9  C   UNK N   1      20.023  17.051   3.036  0.00  0.00     0.019 C 
BRANCH   9  10
HETATM   10  C   UNK N   1      20.763  15.837   3.575  0.00  0.00     0.002 C 
BRANCH  10  11
HETATM   11  C   UNK N   1      22.120  15.724   2.903  0.00  0.00     0.000 C 
BRANCH  11  12
HETATM   12  C   UNK N   1      22.340  14.319   2.377  0.00  0.00     0.000 C 
BRANCH  12  13
HETATM   13  C   UNK N   1      22.555  14.370   0.881  0.00  0.00     0.000 C 
BRANCH  13  14
HETATM   14  C   UNK N   1      23.814  13.615   0.528  0.00  0.00     0.000 C 
BRANCH  14  15
HETATM   15  C   UNK N   1      24.847  13.890   1.592  0.00  0.00     0.000 C 
BRANCH  15  16
HETATM   16  C   UNK N   1      25.557  15.193   1.309  0.00  0.00     0.000 C 
BRANCH  16  17
HETATM   17  C   UNK N   1      26.764  15.272   2.216  0.00  0.00    -0.000 C 
BRANCH  17  18
HETATM   18  C   UNK N   1      26.562  16.339   3.266  0.00  0.00    -0.005 C 
HETATM   19  C   UNK N   1      26.127  15.677   4.556  0.00  0.00     0.005 C 
ENDBRANCH  17  18
ENDBRANCH  16  17
ENDBRANCH  15  16
ENDBRANCH  14  15
ENDBRANCH  13  14
ENDBRANCH  12  13
ENDBRANCH  11  12
ENDBRANCH  10  11
ENDBRANCH   9  10
ENDBRANCH   8   9
ENDBRANCH   6   8
ENDBRANCH   5   6
ENDBRANCH   4   5
BRANCH   4  20
HETATM   20  O   UNK N   1      21.427  20.603   0.455  0.00  0.00    -0.394 OA
HETATM   21  H   UNK N   1      21.826  19.835   0.016  0.00  0.00     0.210 HD
ENDBRANCH   4  20
ENDBRANCH   3   4
ENDBRANCH   2   3
ENDBRANCH   1   2
BRANCH   1  22
HETATM   22  C   UNK N   1      24.900  20.203   3.907  0.00  0.00     0.000 C 
BRANCH  22  23
HETATM   23  C   UNK N   1      26.325  19.841   3.532  0.00  0.00     0.000 C 
BRANCH  23  24
HETATM   24  C   UNK N   1      27.308  20.415   4.542  0.00  0.00     0.000 C 
BRANCH  24  25
HETATM   25  C   UNK N   1      26.890  20.074   5.968  0.00  0.00     0.002 C 
BRANCH  25  26
HETATM   26  C   UNK N   1      28.050  19.515   6.777  0.00  0.00     0.020 C 
BRANCH  26  27
HETATM   27  C   UNK N   1      28.089  17.999   6.653  0.00  0.00     0.137 C 
BRANCH  27  28
HETATM   28  N   UNK N   1      29.467  17.501   6.592  0.00  0.00    -0.264 N 
HETATM   29  C   UNK N   1      30.102  17.410   5.365  0.00  0.00     0.282 A 
HETATM   30  O   UNK N   1      29.541  17.757   4.338  0.00  0.00    -0.265 OA
HETATM   31  C   UNK N   1      31.396  16.906   5.332  0.00  0.00     0.149 A 
HETATM   32  C   UNK N   1      32.013  16.519   6.468  0.00  0.00     0.145 A 
HETATM   33  N   UNK N   1      32.231  16.703   4.304  0.00  0.00    -0.340 N 
HETATM   34  N   UNK N   1      33.250  16.062   6.194  0.00  0.00    -0.336 N 
HETATM   35  N   UNK N   1      31.419  16.598   7.684  0.00  0.00    -0.287 N 
HETATM   36  C   UNK N   1      33.362  16.186   4.843  0.00  0.00     0.184 A 
ATOM     37  HN  UNK N   1      33.945  15.706   6.850  1.00  0.00     0.168 HD
HETATM   38  C   UNK N   1      30.125  17.093   7.754  0.00  0.00     0.332 A 
HETATM   39  C   UNK N   1      32.127  16.163   8.882  0.00  0.00     0.163 C 
HETATM   40  O   UNK N   1      29.560  17.163   8.835  0.00  0.00    -0.246 OA
HETATM   41  C   UNK N   1      32.000  16.966   2.893  0.00  0.00     0.157 C 
ENDBRANCH  27  28
ENDBRANCH  26  27
ENDBRANCH  25  26
ENDBRANCH  24  25
ENDBRANCH  23  24
ENDBRANCH  22  23
ENDBRANCH   1  22
TORSDOF 24
ENDMDL
MODEL 6
REMARK VINA RESULT:      -5.3      1.638      3.128
REMARK  24 active torsions:
REMARK  status: ('A' for Active; 'I' for Inactive)
REMARK    1  A    between atoms: C_2  and  C_3 
REMARK    2  A    between atoms: C_3  and  C_4 
REMARK    3  A    between atoms: C_4  and  C_5 
REMARK    4  A    between atoms: C_5  and  C_6 
REMARK    5  A    between atoms: C_6  and  C_7 
REMARK    6  A    between atoms: C_7  and  C_8 
REMARK    7  A    between atoms: C_8  and  C_9 
REMARK    8  A    between atoms: C_9  and  C_10 
REMARK    9  A    between atoms: C_10  and  C_11 
REMARK   10  A    between atoms: C_11  and  C_12 
REMARK   11  A    between atoms: C_12  and  N_13 
REMARK   12  A    between atoms: N_13  and  C_14 
REMARK   13  A    between atoms: C_14  and  C_15 
REMARK   14  A    between atoms: C_15  and  C_16 
REMARK   15  A    between atoms: C_15  and  O_39 
REMARK   16  A    between atoms: C_16  and  C_17 
REMARK   17  A    between atoms: C_17  and  C_18 
REMARK   18  A    between atoms: C_18  and  C_19 
REMARK   19  A    between atoms: C_19  and  C_20 
REMARK   20  A    between atoms: C_20  and  C_21 
REMARK   21  A    between atoms: C_21  and  C_22 
REMARK   22  A    between atoms: C_22  and  C_23 
REMARK   23  A    between atoms: C_23  and  C_24 
REMARK   24  A    between atoms: C_24  and  N_25 
ROOT
HETATM    1  C   UNK N   1      23.965  20.558   2.882  0.00  0.00     0.000 C 
ENDROOT
BRANCH   1   2
HETATM    2  C   UNK N   1      22.755  19.722   3.281  0.00  0.00     0.002 C 
BRANCH   2   3
HETATM    3  C   UNK N   1      21.508  20.137   2.514  0.00  0.00     0.033 C 
BRANCH   3   4
HETATM    4  C   UNK N   1      20.269  19.576   3.188  0.00  0.00     0.135 C 
BRANCH   4   5
HETATM    5  C   UNK N   1      20.538  18.196   3.778  0.00  0.00     0.145 C 
BRANCH   5   6
HETATM    6  N   UNK N   1      19.534  17.237   3.335  0.00  0.00    -0.419 N 
HETATM    7  H   UNK N   1      18.530  17.300   3.504  0.00  0.00     0.153 HD
BRANCH   6   8
HETATM    8  C   UNK N   1      20.215  16.171   2.609  0.00  0.00     0.113 C 
BRANCH   8   9
HETATM    9  C   UNK N   1      19.600  14.814   2.927  0.00  0.00     0.019 C 
BRANCH   9  10
HETATM   10  C   UNK N   1      19.701  13.880   1.732  0.00  0.00     0.002 C 
BRANCH  10  11
HETATM   11  C   UNK N   1      20.970  14.181   0.953  0.00  0.00     0.000 C 
BRANCH  11  12
HETATM   12  C   UNK N   1      22.019  13.116   1.211  0.00  0.00     0.000 C 
BRANCH  12  13
HETATM   13  C   UNK N   1      23.167  13.297   0.244  0.00  0.00     0.000 C 
BRANCH  13  14
HETATM   14  C   UNK N   1      24.474  13.249   1.000  0.00  0.00     0.000 C 
BRANCH  14  15
HETATM   15  C   UNK N   1      24.995  14.658   1.137  0.00  0.00     0.000 C 
BRANCH  15  16
HETATM   16  C   UNK N   1      25.764  14.808   2.428  0.00  0.00     0.000 C 
BRANCH  16  17
HETATM   17  C   UNK N   1      24.773  14.761   3.570  0.00  0.00    -0.000 C 
BRANCH  17  18
HETATM   18  C   UNK N   1      23.848  15.954   3.511  0.00  0.00    -0.005 C 
HETATM   19  C   UNK N   1      23.549  16.408   4.924  0.00  0.00     0.005 C 
ENDBRANCH  17  18
ENDBRANCH  16  17
ENDBRANCH  15  16
ENDBRANCH  14  15
ENDBRANCH  13  14
ENDBRANCH  12  13
ENDBRANCH  11  12
ENDBRANCH  10  11
ENDBRANCH   9  10
ENDBRANCH   8   9
ENDBRANCH   6   8
ENDBRANCH   5   6
ENDBRANCH   4   5
BRANCH   4  20
HETATM   20  O   UNK N   1      19.213  19.531   2.278  0.00  0.00    -0.394 OA
HETATM   21  H   UNK N   1      19.373  19.287   1.353  0.00  0.00     0.210 HD
ENDBRANCH   4  20
ENDBRANCH   3   4
ENDBRANCH   2   3
ENDBRANCH   1   2
BRANCH   1  22
HETATM   22  C   UNK N   1      25.234  19.726   2.946  0.00  0.00     0.000 C 
BRANCH  22  23
HETATM   23  C   UNK N   1      26.260  20.406   3.834  0.00  0.00     0.000 C 
BRANCH  23  24
HETATM   24  C   UNK N   1      27.125  19.375   4.543  0.00  0.00     0.000 C 
BRANCH  24  25
HETATM   25  C   UNK N   1      26.904  17.982   3.962  0.00  0.00     0.002 C 
BRANCH  25  26
HETATM   26  C   UNK N   1      28.220  17.268   3.693  0.00  0.00     0.020 C 
BRANCH  26  27
HETATM   27  C   UNK N   1      28.435  16.168   4.722  0.00  0.00     0.137 C 
BRANCH  27  28
HETATM   28  N   UNK N   1      29.230  16.646   5.859  0.00  0.00    -0.264 N 
HETATM   29  C   UNK N   1      30.598  16.807   5.711  0.00  0.00     0.282 A 
HETATM   30  O   UNK N   1      31.147  16.578   4.645  0.00  0.00    -0.265 OA
HETATM   31  C   UNK N   1      31.331  17.230   6.812  0.00  0.00     0.149 A 
HETATM   32  C   UNK N   1      30.722  17.479   7.990  0.00  0.00     0.145 A 
HETATM   33  N   UNK N   1      32.644  17.458   6.954  0.00  0.00    -0.340 N 
HETATM   34  N   UNK N   1      31.626  17.870   8.908  0.00  0.00    -0.336 N 
HETATM   35  N   UNK N   1      29.386  17.333   8.166  0.00  0.00    -0.287 N 
HETATM   36  C   UNK N   1      32.813  17.848   8.241  0.00  0.00     0.184 A 
ATOM     37  HN  UNK N   1      31.460  18.124   9.882  1.00  0.00     0.168 HD
HETATM   38  C   UNK N   1      28.622  16.908   7.088  0.00  0.00     0.332 A 
HETATM   39  C   UNK N   1      28.776  17.611   9.461  0.00  0.00     0.163 C 
HETATM   40  O   UNK N   1      27.418  16.755   7.221  0.00  0.00    -0.246 OA
HETATM   41  C   UNK N   1      33.693  17.320   5.959  0.00  0.00     0.157 C 
ENDBRANCH  27  28
ENDBRANCH  26  27
ENDBRANCH  25  26
ENDBRANCH  24  25
ENDBRANCH  23  24
ENDBRANCH  22  23
ENDBRANCH   1  22
TORSDOF 24
ENDMDL
MODEL 7
REMARK VINA RESULT:      -5.2      2.904      9.826
REMARK  24 active torsions:
REMARK  status: ('A' for Active; 'I' for Inactive)
REMARK    1  A    between atoms: C_2  and  C_3 
REMARK    2  A    between atoms: C_3  and  C_4 
REMARK    3  A    between atoms: C_4  and  C_5 
REMARK    4  A    between atoms: C_5  and  C_6 
REMARK    5  A    between atoms: C_6  and  C_7 
REMARK    6  A    between atoms: C_7  and  C_8 
REMARK    7  A    between atoms: C_8  and  C_9 
REMARK    8  A    between atoms: C_9  and  C_10 
REMARK    9  A    between atoms: C_10  and  C_11 
REMARK   10  A    between atoms: C_11  and  C_12 
REMARK   11  A    between atoms: C_12  and  N_13 
REMARK   12  A    between atoms: N_13  and  C_14 
REMARK   13  A    between atoms: C_14  and  C_15 
REMARK   14  A    between atoms: C_15  and  C_16 
REMARK   15  A    between atoms: C_15  and  O_39 
REMARK   16  A    between atoms: C_16  and  C_17 
REMARK   17  A    between atoms: C_17  and  C_18 
REMARK   18  A    between atoms: C_18  and  C_19 
REMARK   19  A    between atoms: C_19  and  C_20 
REMARK   20  A    between atoms: C_20  and  C_21 
REMARK   21  A    between atoms: C_21  and  C_22 
REMARK   22  A    between atoms: C_22  and  C_23 
REMARK   23  A    between atoms: C_23  and  C_24 
REMARK   24  A    between atoms: C_24  and  N_25 
ROOT
HETATM    1  C   UNK N   1      26.749  21.331   5.465  0.00  0.00     0.000 C 
ENDROOT
BRANCH   1   2
HETATM    2  C   UNK N   1      27.412  20.846   6.749  0.00  0.00     0.002 C 
BRANCH   2   3
HETATM    3  C   UNK N   1      27.415  19.327   6.841  0.00  0.00     0.033 C 
BRANCH   3   4
HETATM    4  C   UNK N   1      28.349  18.872   7.948  0.00  0.00     0.135 C 
BRANCH   4   5
HETATM    5  C   UNK N   1      29.206  17.694   7.498  0.00  0.00     0.145 C 
BRANCH   5   6
HETATM    6  N   UNK N   1      28.372  16.590   7.040  0.00  0.00    -0.419 N 
HETATM    7  H   UNK N   1      27.593  16.176   7.551  0.00  0.00     0.153 HD
BRANCH   6   8
HETATM    8  C   UNK N   1      28.847  16.179   5.723  0.00  0.00     0.113 C 
BRANCH   8   9
HETATM    9  C   UNK N   1      29.906  17.141   5.200  0.00  0.00     0.019 C 
BRANCH   9  10
HETATM   10  C   UNK N   1      30.386  16.720   3.821  0.00  0.00     0.002 C 
BRANCH  10  11
HETATM   11  C   UNK N   1      31.799  17.229   3.592  0.00  0.00     0.000 C 
BRANCH  11  12
HETATM   12  C   UNK N   1      32.769  16.071   3.462  0.00  0.00     0.000 C 
BRANCH  12  13
HETATM   13  C   UNK N   1      33.733  16.089   4.626  0.00  0.00     0.000 C 
BRANCH  13  14
HETATM   14  C   UNK N   1      33.564  17.375   5.399  0.00  0.00     0.000 C 
BRANCH  14  15
HETATM   15  C   UNK N   1      34.091  17.163   6.797  0.00  0.00     0.000 C 
BRANCH  15  16
HETATM   16  C   UNK N   1      33.182  17.825   7.806  0.00  0.00     0.000 C 
BRANCH  16  17
HETATM   17  C   UNK N   1      32.861  16.811   8.880  0.00  0.00    -0.000 C 
BRANCH  17  18
HETATM   18  C   UNK N   1      32.098  15.647   8.291  0.00  0.00    -0.005 C 
HETATM   19  C   UNK N   1      32.681  14.359   8.832  0.00  0.00     0.005 C 
ENDBRANCH  17  18
ENDBRANCH  16  17
ENDBRANCH  15  16
ENDBRANCH  14  15
ENDBRANCH  13  14
ENDBRANCH  12  13
ENDBRANCH  11  12
ENDBRANCH  10  11
ENDBRANCH   9  10
ENDBRANCH   8   9
ENDBRANCH   6   8
ENDBRANCH   5   6
ENDBRANCH   4   5
BRANCH   4  20
HETATM   20  O   UNK N   1      27.612  18.545   9.086  0.00  0.00    -0.394 OA
HETATM   21  H   UNK N   1      27.952  17.895   9.721  0.00  0.00     0.210 HD
ENDBRANCH   4  20
ENDBRANCH   3   4
ENDBRANCH   2   3
ENDBRANCH   1   2
BRANCH   1  22
HETATM   22  C   UNK N   1      25.900  20.231   4.852  0.00  0.00     0.000 C 
BRANCH  22  23
HETATM   23  C   UNK N   1      26.326  19.980   3.418  0.00  0.00     0.000 C 
BRANCH  23  24
HETATM   24  C   UNK N   1      25.257  20.459   2.448  0.00  0.00     0.000 C 
BRANCH  24  25
HETATM   25  C   UNK N   1      23.886  20.489   3.115  0.00  0.00     0.002 C 
BRANCH  25  26
HETATM   26  C   UNK N   1      22.794  20.904   2.141  0.00  0.00     0.020 C 
BRANCH  26  27
HETATM   27  C   UNK N   1      21.434  20.826   2.820  0.00  0.00     0.137 C 
BRANCH  27  28
HETATM   28  N   UNK N   1      20.938  19.447   2.870  0.00  0.00    -0.264 N 
HETATM   29  C   UNK N   1      20.856  18.798   4.091  0.00  0.00     0.282 A 
HETATM   30  O   UNK N   1      21.171  19.363   5.126  0.00  0.00    -0.265 OA
HETATM   31  C   UNK N   1      20.413  17.482   4.106  0.00  0.00     0.149 A 
HETATM   32  C   UNK N   1      20.070  16.858   2.959  0.00  0.00     0.145 A 
HETATM   33  N   UNK N   1      20.246  16.625   5.123  0.00  0.00    -0.340 N 
HETATM   34  N   UNK N   1      19.678  15.595   3.215  0.00  0.00    -0.336 N 
HETATM   35  N   UNK N   1      20.137  17.466   1.749  0.00  0.00    -0.287 N 
HETATM   36  C   UNK N   1      19.796  15.474   4.566  0.00  0.00     0.184 A 
ATOM     37  HN  UNK N   1      19.363  14.890   2.549  1.00  0.00     0.168 HD
HETATM   38  C   UNK N   1      20.579  18.780   1.696  0.00  0.00     0.332 A 
HETATM   39  C   UNK N   1      19.759  16.747   0.539  0.00  0.00     0.163 C 
HETATM   40  O   UNK N   1      20.662  19.349   0.619  0.00  0.00    -0.246 OA
HETATM   41  C   UNK N   1      20.492  16.851   6.537  0.00  0.00     0.157 C 
ENDBRANCH  27  28
ENDBRANCH  26  27
ENDBRANCH  25  26
ENDBRANCH  24  25
ENDBRANCH  23  24
ENDBRANCH  22  23
ENDBRANCH   1  22
TORSDOF 24
ENDMDL
MODEL 8
REMARK VINA RESULT:      -5.2      3.042      9.357
REMARK  24 active torsions:
REMARK  status: ('A' for Active; 'I' for Inactive)
REMARK    1  A    between atoms: C_2  and  C_3 
REMARK    2  A    between atoms: C_3  and  C_4 
REMARK    3  A    between atoms: C_4  and  C_5 
REMARK    4  A    between atoms: C_5  and  C_6 
REMARK    5  A    between atoms: C_6  and  C_7 
REMARK    6  A    between atoms: C_7  and  C_8 
REMARK    7  A    between atoms: C_8  and  C_9 
REMARK    8  A    between atoms: C_9  and  C_10 
REMARK    9  A    between atoms: C_10  and  C_11 
REMARK   10  A    between atoms: C_11  and  C_12 
REMARK   11  A    between atoms: C_12  and  N_13 
REMARK   12  A    between atoms: N_13  and  C_14 
REMARK   13  A    between atoms: C_14  and  C_15 
REMARK   14  A    between atoms: C_15  and  C_16 
REMARK   15  A    between atoms: C_15  and  O_39 
REMARK   16  A    between atoms: C_16  and  C_17 
REMARK   17  A    between atoms: C_17  and  C_18 
REMARK   18  A    between atoms: C_18  and  C_19 
REMARK   19  A    between atoms: C_19  and  C_20 
REMARK   20  A    between atoms: C_20  and  C_21 
REMARK   21  A    between atoms: C_21  and  C_22 
REMARK   22  A    between atoms: C_22  and  C_23 
REMARK   23  A    between atoms: C_23  and  C_24 
REMARK   24  A    between atoms: C_24  and  N_25 
ROOT
HETATM    1  C   UNK N   1      27.693  19.394   6.811  0.00  0.00     0.000 C 
ENDROOT
BRANCH   1   2
HETATM    2  C   UNK N   1      28.698  18.282   6.536  0.00  0.00     0.002 C 
BRANCH   2   3
HETATM    3  C   UNK N   1      28.782  17.953   5.053  0.00  0.00     0.033 C 
BRANCH   3   4
HETATM    4  C   UNK N   1      28.496  16.479   4.827  0.00  0.00     0.135 C 
BRANCH   4   5
HETATM    5  C   UNK N   1      29.089  15.998   3.507  0.00  0.00     0.145 C 
BRANCH   5   6
HETATM    6  N   UNK N   1      29.964  17.012   2.930  0.00  0.00    -0.419 N 
HETATM    7  H   UNK N   1      29.670  17.912   2.551  0.00  0.00     0.153 HD
BRANCH   6   8
HETATM    8  C   UNK N   1      31.334  16.514   2.990  0.00  0.00     0.113 C 
BRANCH   8   9
HETATM    9  C   UNK N   1      32.253  17.524   3.666  0.00  0.00     0.019 C 
BRANCH   9  10
HETATM   10  C   UNK N   1      33.116  16.849   4.720  0.00  0.00     0.002 C 
BRANCH  10  11
HETATM   11  C   UNK N   1      32.423  15.594   5.222  0.00  0.00     0.000 C 
BRANCH  11  12
HETATM   12  C   UNK N   1      33.442  14.528   5.576  0.00  0.00     0.000 C 
BRANCH  12  13
HETATM   13  C   UNK N   1      32.868  13.616   6.636  0.00  0.00     0.000 C 
BRANCH  13  14
HETATM   14  C   UNK N   1      32.510  14.429   7.858  0.00  0.00     0.000 C 
BRANCH  14  15
HETATM   15  C   UNK N   1      33.753  14.603   8.694  0.00  0.00     0.000 C 
BRANCH  15  16
HETATM   16  C   UNK N   1      33.833  16.014   9.228  0.00  0.00     0.000 C 
BRANCH  16  17
HETATM   17  C   UNK N   1      34.432  16.886   8.148  0.00  0.00    -0.000 C 
BRANCH  17  18
HETATM   18  C   UNK N   1      33.764  18.242   8.138  0.00  0.00    -0.005 C 
HETATM   19  C   UNK N   1      32.264  18.046   8.190  0.00  0.00     0.005 C 
ENDBRANCH  17  18
ENDBRANCH  16  17
ENDBRANCH  15  16
ENDBRANCH  14  15
ENDBRANCH  13  14
ENDBRANCH  12  13
ENDBRANCH  11  12
ENDBRANCH  10  11
ENDBRANCH   9  10
ENDBRANCH   8   9
ENDBRANCH   6   8
ENDBRANCH   5   6
ENDBRANCH   4   5
BRANCH   4  20
HETATM   20  O   UNK N   1      27.121  16.251   4.867  0.00  0.00    -0.394 OA
HETATM   21  H   UNK N   1      26.774  15.396   5.167  0.00  0.00     0.210 HD
ENDBRANCH   4  20
ENDBRANCH   3   4
ENDBRANCH   2   3
ENDBRANCH   1   2
BRANCH   1  22
HETATM   22  C   UNK N   1      27.770  20.462   5.735  0.00  0.00     0.000 C 
BRANCH  22  23
HETATM   23  C   UNK N   1      26.382  20.769   5.202  0.00  0.00     0.000 C 
BRANCH  23  24
HETATM   24  C   UNK N   1      26.261  20.351   3.745  0.00  0.00     0.000 C 
BRANCH  24  25
HETATM   25  C   UNK N   1      25.414  19.091   3.606  0.00  0.00     0.002 C 
BRANCH  25  26
HETATM   26  C   UNK N   1      24.475  18.909   4.789  0.00  0.00     0.020 C 
BRANCH  26  27
HETATM   27  C   UNK N   1      23.200  18.212   4.340  0.00  0.00     0.137 C 
BRANCH  27  28
HETATM   28  N   UNK N   1      22.778  17.191   5.304  0.00  0.00    -0.264 N 
HETATM   29  C   UNK N   1      21.817  17.507   6.251  0.00  0.00     0.282 A 
HETATM   30  O   UNK N   1      21.303  18.613   6.281  0.00  0.00    -0.265 OA
HETATM   31  C   UNK N   1      21.459  16.531   7.173  0.00  0.00     0.149 A 
HETATM   32  C   UNK N   1      22.033  15.311   7.140  0.00  0.00     0.145 A 
HETATM   33  N   UNK N   1      20.581  16.562   8.184  0.00  0.00    -0.340 N 
HETATM   34  N   UNK N   1      21.538  14.537   8.125  0.00  0.00    -0.336 N 
HETATM   35  N   UNK N   1      22.974  14.970   6.226  0.00  0.00    -0.287 N 
HETATM   36  C   UNK N   1      20.638  15.337   8.760  0.00  0.00     0.184 A 
ATOM     37  HN  UNK N   1      21.780  13.571   8.345  1.00  0.00     0.168 HD
HETATM   38  C   UNK N   1      23.359  15.921   5.292  0.00  0.00     0.332 A 
HETATM   39  C   UNK N   1      23.567  13.638   6.236  0.00  0.00     0.163 C 
HETATM   40  O   UNK N   1      24.214  15.647   4.464  0.00  0.00    -0.246 OA
HETATM   41  C   UNK N   1      19.734  17.665   8.605  0.00  0.00     0.157 C 
ENDBRANCH  27  28
ENDBRANCH  26  27
ENDBRANCH  25  26
ENDBRANCH  24  25
ENDBRANCH  23  24
ENDBRANCH  22  23
ENDBRANCH   1  22
TORSDOF 24
ENDMDL
MODEL 9
REMARK VINA RESULT:      -5.2      2.274      9.226
REMARK  24 active torsions:
REMARK  status: ('A' for Active; 'I' for Inactive)
REMARK    1  A    between atoms: C_2  and  C_3 
REMARK    2  A    between atoms: C_3  and  C_4 
REMARK    3  A    between atoms: C_4  and  C_5 
REMARK    4  A    between atoms: C_5  and  C_6 
REMARK    5  A    between atoms: C_6  and  C_7 
REMARK    6  A    between atoms: C_7  and  C_8 
REMARK    7  A    between atoms: C_8  and  C_9 
REMARK    8  A    between atoms: C_9  and  C_10 
REMARK    9  A    between atoms: C_10  and  C_11 
REMARK   10  A    between atoms: C_11  and  C_12 
REMARK   11  A    between atoms: C_12  and  N_13 
REMARK   12  A    between atoms: N_13  and  C_14 
REMARK   13  A    between atoms: C_14  and  C_15 
REMARK   14  A    between atoms: C_15  and  C_16 
REMARK   15  A    between atoms: C_15  and  O_39 
REMARK   16  A    between atoms: C_16  and  C_17 
REMARK   17  A    between atoms: C_17  and  C_18 
REMARK   18  A    between atoms: C_18  and  C_19 
REMARK   19  A    between atoms: C_19  and  C_20 
REMARK   20  A    between atoms: C_20  and  C_21 
REMARK   21  A    between atoms: C_21  and  C_22 
REMARK   22  A    between atoms: C_22  and  C_23 
REMARK   23  A    between atoms: C_23  and  C_24 
REMARK   24  A    between atoms: C_24  and  N_25 
ROOT
HETATM    1  C   UNK N   1      29.520  17.774   7.908  0.00  0.00     0.000 C 
ENDROOT
BRANCH   1   2
HETATM    2  C   UNK N   1      30.687  17.329   8.780  0.00  0.00     0.002 C 
BRANCH   2   3
HETATM    3  C   UNK N   1      31.959  18.099   8.453  0.00  0.00     0.033 C 
BRANCH   3   4
HETATM    4  C   UNK N   1      33.174  17.214   8.661  0.00  0.00     0.135 C 
BRANCH   4   5
HETATM    5  C   UNK N   1      33.713  16.694   7.333  0.00  0.00     0.145 C 
BRANCH   5   6
HETATM    6  N   UNK N   1      33.417  17.626   6.252  0.00  0.00    -0.419 N 
HETATM    7  H   UNK N   1      33.318  18.637   6.342  0.00  0.00     0.153 HD
BRANCH   6   8
HETATM    8  C   UNK N   1      33.287  16.861   5.017  0.00  0.00     0.113 C 
BRANCH   8   9
HETATM    9  C   UNK N   1      32.445  17.612   3.994  0.00  0.00     0.019 C 
BRANCH   9  10
HETATM   10  C   UNK N   1      31.617  16.648   3.161  0.00  0.00     0.002 C 
BRANCH  10  11
HETATM   11  C   UNK N   1      31.364  15.375   3.950  0.00  0.00     0.000 C 
BRANCH  11  12
HETATM   12  C   UNK N   1      30.366  14.489   3.230  0.00  0.00     0.000 C 
BRANCH  12  13
HETATM   13  C   UNK N   1      29.344  15.352   2.526  0.00  0.00     0.000 C 
BRANCH  13  14
HETATM   14  C   UNK N   1      28.066  15.374   3.331  0.00  0.00     0.000 C 
BRANCH  14  15
HETATM   15  C   UNK N   1      28.157  14.309   4.396  0.00  0.00     0.000 C 
BRANCH  15  16
HETATM   16  C   UNK N   1      26.797  13.699   4.644  0.00  0.00     0.000 C 
BRANCH  16  17
HETATM   17  C   UNK N   1      26.261  14.268   5.938  0.00  0.00    -0.000 C 
BRANCH  17  18
HETATM   18  C   UNK N   1      25.349  13.269   6.612  0.00  0.00    -0.005 C 
HETATM   19  C   UNK N   1      25.108  13.715   8.038  0.00  0.00     0.005 C 
ENDBRANCH  17  18
ENDBRANCH  16  17
ENDBRANCH  15  16
ENDBRANCH  14  15
ENDBRANCH  13  14
ENDBRANCH  12  13
ENDBRANCH  11  12
ENDBRANCH  10  11
ENDBRANCH   9  10
ENDBRANCH   8   9
ENDBRANCH   6   8
ENDBRANCH   5   6
ENDBRANCH   4   5
BRANCH   4  20
HETATM   20  O   UNK N   1      32.852  16.158   9.514  0.00  0.00    -0.394 OA
HETATM   21  H   UNK N   1      33.490  15.852  10.178  0.00  0.00     0.210 HD
ENDBRANCH   4  20
ENDBRANCH   3   4
ENDBRANCH   2   3
ENDBRANCH   1   2
BRANCH   1  22
HETATM   22  C   UNK N   1      29.735  17.348   6.466  0.00  0.00     0.000 C 
BRANCH  22  23
HETATM   23  C   UNK N   1      28.605  17.864   5.595  0.00  0.00     0.000 C 
BRANCH  23  24
HETATM   24  C   UNK N   1      28.023  19.145   6.173  0.00  0.00     0.000 C 
BRANCH  24  25
HETATM   25  C   UNK N   1      27.937  20.236   5.112  0.00  0.00     0.002 C 
BRANCH  25  26
HETATM   26  C   UNK N   1      26.495  20.565   4.755  0.00  0.00     0.020 C 
BRANCH  26  27
HETATM   27  C   UNK N   1      26.021  19.664   3.625  0.00  0.00     0.137 C 
BRANCH  27  28
HETATM   28  N   UNK N   1      24.586  19.379   3.733  0.00  0.00    -0.264 N 
HETATM   29  C   UNK N   1      24.164  18.294   4.484  0.00  0.00     0.282 A 
HETATM   30  O   UNK N   1      24.966  17.587   5.074  0.00  0.00    -0.265 OA
HETATM   31  C   UNK N   1      22.802  18.028   4.545  0.00  0.00     0.149 A 
HETATM   32  C   UNK N   1      21.919  18.810   3.889  0.00  0.00     0.145 A 
HETATM   33  N   UNK N   1      22.126  17.059   5.178  0.00  0.00    -0.340 N 
HETATM   34  N   UNK N   1      20.664  18.361   4.086  0.00  0.00    -0.336 N 
HETATM   35  N   UNK N   1      22.299  19.878   3.148  0.00  0.00    -0.287 N 
HETATM   36  C   UNK N   1      20.819  17.273   4.889  0.00  0.00     0.184 A 
ATOM     37  HN  UNK N   1      19.796  18.748   3.719  1.00  0.00     0.168 HD
HETATM   38  C   UNK N   1      23.653  20.172   3.062  0.00  0.00     0.332 A 
HETATM   39  C   UNK N   1      21.306  20.689   2.455  0.00  0.00     0.163 C 
HETATM   40  O   UNK N   1      24.026  21.121   2.391  0.00  0.00    -0.246 OA
HETATM   41  C   UNK N   1      22.655  15.986   6.002  0.00  0.00     0.157 C 
ENDBRANCH  27  28
ENDBRANCH  26  27
ENDBRANCH  25  26
ENDBRANCH  24  25
ENDBRANCH  23  24
ENDBRANCH  22  23
ENDBRANCH   1  22
TORSDOF 24
ENDMDL
