MODEL 1
REMARK VINA RESULT:      -8.0      0.000      0.000
REMARK  12 active torsions:
REMARK  status: ('A' for Active; 'I' for Inactive)
REMARK    1  A    between atoms: C_2  and  C_3 
REMARK    2  A    between atoms: C_3  and  C_4 
REMARK    3  A    between atoms: C_5  and  O_14 
REMARK    4  A    between atoms: C_8  and  C_11 
REMARK    5  A    between atoms: C_9  and  O_10 
REMARK    6  A    between atoms: O_14  and  C_15 
REMARK    7  A    between atoms: C_15  and  C_16 
REMARK    8  A    between atoms: C_19  and  C_22 
REMARK    9  A    between atoms: C_22  and  C_23 
REMARK   10  A    between atoms: C_22  and  O_32 
REMARK   11  A    between atoms: C_27  and  C_29 
REMARK   12  A    between atoms: C_29  and  O_31 
ROOT
HETATM    1  C   UNK N   1      27.608  16.371   4.540  0.00  0.00    -0.034 A 
HETATM    2  C   UNK N   1      28.334  16.564   5.720  0.00  0.00     0.010 A 
HETATM    3  C   UNK N   1      29.704  16.837   5.653  0.00  0.00     0.011 A 
HETATM    4  C   UNK N   1      30.340  16.938   4.401  0.00  0.00    -0.025 A 
HETATM    5  C   UNK N   1      29.613  16.700   3.235  0.00  0.00     0.011 A 
HETATM    6  C   UNK N   1      28.253  16.415   3.304  0.00  0.00     0.010 A 
ENDROOT
BRANCH   1   7
HETATM    7  C   UNK N   1      26.128  16.327   4.566  0.00  0.00     0.214 C 
BRANCH   7   8
HETATM    8  O   UNK N   1      25.583  17.402   5.219  0.00  0.00    -0.346 OA
BRANCH   8   9
HETATM    9  C   UNK N   1      24.453  18.003   4.773  0.00  0.00     0.078 A 
HETATM   10  C   UNK N   1      24.471  19.111   3.877  0.00  0.00     0.009 A 
HETATM   11  C   UNK N   1      23.232  19.657   3.441  0.00  0.00     0.088 A 
HETATM   12  C   UNK N   1      22.011  19.101   3.891  0.00  0.00     0.043 A 
HETATM   13  C   UNK N   1      22.037  18.025   4.782  0.00  0.00     0.021 A 
HETATM   14  C   UNK N   1      23.239  17.491   5.221  0.00  0.00     0.038 A 
BRANCH  10  15
HETATM   15  C   UNK N   1      25.819  19.678   3.449  0.00  0.00     0.044 C 
BRANCH  15  16
HETATM   16  C   UNK N   1      26.591  20.553   4.422  0.00  0.00     0.000 C 
HETATM   17  C   UNK N   1      28.003  20.026   4.565  0.00  0.00     0.005 C 
ENDBRANCH  15  16
ENDBRANCH  10  15
BRANCH  11  18
HETATM   18  O   UNK N   1      23.207  20.704   2.596  0.00  0.00    -0.359 OA
HETATM   19  H   UNK N   1      23.243  20.560   1.671  0.00  0.00     0.217 HD
ENDBRANCH  11  18
BRANCH  12  20
HETATM   20  C   UNK N   1      20.689  19.626   3.450  0.00  0.00     0.158 C 
HETATM   21  O   UNK N   1      20.344  20.765   3.722  0.00  0.00    -0.293 OA
HETATM   22  C   UNK N   1      19.757  18.768   2.654  0.00  0.00     0.097 C 
ENDBRANCH  12  20
ENDBRANCH   8   9
ENDBRANCH   7   8
ENDBRANCH   1   7
BRANCH   4  23
HETATM   23  C   UNK N   1      31.722  17.510   4.272  0.00  0.00     0.184 C 
BRANCH  23  24
HETATM   24  C   UNK N   1      32.762  16.943   5.219  0.00  0.00    -0.024 A 
HETATM   25  C   UNK N   1      33.306  15.661   5.014  0.00  0.00     0.010 A 
HETATM   26  C   UNK N   1      34.250  15.136   5.895  0.00  0.00     0.002 A 
HETATM   27  C   UNK N   1      34.657  15.881   7.001  0.00  0.00     0.018 A 
HETATM   28  C   UNK N   1      34.114  17.155   7.230  0.00  0.00     0.038 A 
HETATM   29  C   UNK N   1      33.166  17.676   6.340  0.00  0.00     0.028 A 
BRANCH  28  30
HETATM   30  C   UNK N   1      34.539  17.935   8.407  0.00  0.00     0.176 C 
HETATM   31  O   UNK N   1      34.989  19.056   8.278  0.00  0.00    -0.646 OA
BRANCH  30  32
HETATM   32  O   UNK N   1      34.433  17.397   9.643  0.00  0.00    -0.773 OA
HETATM   33  H   UNK N   1      34.710  16.521   9.830  0.00  0.00     0.167 HD
ENDBRANCH  30  32
ENDBRANCH  28  30
ENDBRANCH  23  24
BRANCH  23  34
HETATM   34  O   UNK N   1      32.153  17.669   2.954  0.00  0.00    -0.386 OA
HETATM   35  H   UNK N   1      31.933  18.231   2.194  0.00  0.00     0.210 HD
ENDBRANCH  23  34
ENDBRANCH   4  23
TORSDOF 12
ENDMDL
MODEL 2
REMARK VINA RESULT:      -7.7      1.820     10.482
REMARK  12 active torsions:
REMARK  status: ('A' for Active; 'I' for Inactive)
REMARK    1  A    between atoms: C_2  and  C_3 
REMARK    2  A    between atoms: C_3  and  C_4 
REMARK    3  A    between atoms: C_5  and  O_14 
REMARK    4  A    between atoms: C_8  and  C_11 
REMARK    5  A    between atoms: C_9  and  O_10 
REMARK    6  A    between atoms: O_14  and  C_15 
REMARK    7  A    between atoms: C_15  and  C_16 
REMARK    8  A    between atoms: C_19  and  C_22 
REMARK    9  A    between atoms: C_22  and  C_23 
REMARK   10  A    between atoms: C_22  and  O_32 
REMARK   11  A    between atoms: C_27  and  C_29 
REMARK   12  A    between atoms: C_29  and  O_31 
ROOT
HETATM    1  C   UNK N   1      27.231  17.747   4.000  0.00  0.00    -0.034 A 
HETATM    2  C   UNK N   1      26.672  19.017   3.824  0.00  0.00     0.010 A 
HETATM    3  C   UNK N   1      25.308  19.212   4.059  0.00  0.00     0.011 A 
HETATM    4  C   UNK N   1      24.509  18.137   4.492  0.00  0.00    -0.025 A 
HETATM    5  C   UNK N   1      25.070  16.867   4.622  0.00  0.00     0.011 A 
HETATM    6  C   UNK N   1      26.425  16.672   4.375  0.00  0.00     0.010 A 
ENDROOT
BRANCH   1   7
HETATM    7  C   UNK N   1      28.700  17.564   4.000  0.00  0.00     0.214 C 
BRANCH   7   8
HETATM    8  O   UNK N   1      29.124  16.714   4.988  0.00  0.00    -0.346 OA
BRANCH   8   9
HETATM    9  C   UNK N   1      30.261  16.950   5.686  0.00  0.00     0.078 A 
HETATM   10  C   UNK N   1      30.262  17.251   7.079  0.00  0.00     0.009 A 
HETATM   11  C   UNK N   1      31.509  17.455   7.732  0.00  0.00     0.088 A 
HETATM   12  C   UNK N   1      32.719  17.356   7.005  0.00  0.00     0.043 A 
HETATM   13  C   UNK N   1      32.673  17.076   5.637  0.00  0.00     0.021 A 
HETATM   14  C   UNK N   1      31.463  16.884   4.988  0.00  0.00     0.038 A 
BRANCH  10  15
HETATM   15  C   UNK N   1      28.925  17.366   7.799  0.00  0.00     0.044 C 
BRANCH  15  16
HETATM   16  C   UNK N   1      28.492  18.721   8.334  0.00  0.00     0.000 C 
HETATM   17  C   UNK N   1      27.868  19.530   7.216  0.00  0.00     0.005 C 
ENDBRANCH  15  16
ENDBRANCH  10  15
BRANCH  11  18
HETATM   18  O   UNK N   1      31.552  17.741   9.046  0.00  0.00    -0.359 OA
HETATM   19  H   UNK N   1      32.376  17.796   9.487  0.00  0.00     0.217 HD
ENDBRANCH  11  18
BRANCH  12  20
HETATM   20  C   UNK N   1      34.050  17.545   7.647  0.00  0.00     0.158 C 
HETATM   21  O   UNK N   1      34.475  18.663   7.892  0.00  0.00    -0.293 OA
HETATM   22  C   UNK N   1      34.890  16.364   8.016  0.00  0.00     0.097 C 
ENDBRANCH  12  20
ENDBRANCH   8   9
ENDBRANCH   7   8
ENDBRANCH   1   7
BRANCH   4  23
HETATM   23  C   UNK N   1      23.125  18.361   5.031  0.00  0.00     0.184 C 
BRANCH  23  24
HETATM   24  C   UNK N   1      22.020  18.444   3.997  0.00  0.00    -0.024 A 
HETATM   25  C   UNK N   1      21.051  17.428   3.890  0.00  0.00     0.010 A 
HETATM   26  C   UNK N   1      20.045  17.499   2.927  0.00  0.00     0.002 A 
HETATM   27  C   UNK N   1      19.998  18.582   2.051  0.00  0.00     0.018 A 
HETATM   28  C   UNK N   1      20.965  19.597   2.133  0.00  0.00     0.038 A 
HETATM   29  C   UNK N   1      21.972  19.519   3.103  0.00  0.00     0.028 A 
BRANCH  28  30
HETATM   30  C   UNK N   1      20.918  20.734   1.197  0.00  0.00     0.176 C 
HETATM   31  O   UNK N   1      21.075  20.563   0.004  0.00  0.00    -0.646 OA
BRANCH  30  32
HETATM   32  O   UNK N   1      20.704  21.983   1.668  0.00  0.00    -0.773 OA
HETATM   33  H   UNK N   1      20.225  22.142   2.459  0.00  0.00     0.167 HD
ENDBRANCH  30  32
ENDBRANCH  28  30
ENDBRANCH  23  24
BRANCH  23  34
HETATM   34  O   UNK N   1      22.820  17.593   6.156  0.00  0.00    -0.386 OA
HETATM   35  H   UNK N   1      22.947  17.653   7.116  0.00  0.00     0.210 HD
ENDBRANCH  23  34
ENDBRANCH   4  23
TORSDOF 12
ENDMDL
MODEL 3
REMARK VINA RESULT:      -7.7      6.677     13.254
REMARK  12 active torsions:
REMARK  status: ('A' for Active; 'I' for Inactive)
REMARK    1  A    between atoms: C_2  and  C_3 
REMARK    2  A    between atoms: C_3  and  C_4 
REMARK    3  A    between atoms: C_5  and  O_14 
REMARK    4  A    between atoms: C_8  and  C_11 
REMARK    5  A    between atoms: C_9  and  O_10 
REMARK    6  A    between atoms: O_14  and  C_15 
REMARK    7  A    between atoms: C_15  and  C_16 
REMARK    8  A    between atoms: C_19  and  C_22 
REMARK    9  A    between atoms: C_22  and  C_23 
REMARK   10  A    between atoms: C_22  and  O_32 
REMARK   11  A    between atoms: C_27  and  C_29 
REMARK   12  A    between atoms: C_29  and  O_31 
ROOT
HETATM    1  C   UNK N   1      34.982  15.107  11.422  0.00  0.00    -0.034 A 
HETATM    2  C   UNK N   1      33.937  14.538  10.687  0.00  0.00     0.010 A 
HETATM    3  C   UNK N   1      33.440  15.202   9.560  0.00  0.00     0.011 A 
HETATM    4  C   UNK N   1      34.009  16.426   9.161  0.00  0.00    -0.025 A 
HETATM    5  C   UNK N   1      35.021  17.003   9.927  0.00  0.00     0.011 A 
HETATM    6  C   UNK N   1      35.504  16.347  11.055  0.00  0.00     0.010 A 
ENDROOT
BRANCH   1   7
HETATM    7  C   UNK N   1      35.686  14.320  12.460  0.00  0.00     0.214 C 
BRANCH   7   8
HETATM    8  O   UNK N   1      34.945  13.258  12.907  0.00  0.00    -0.346 OA
BRANCH   8   9
HETATM    9  C   UNK N   1      35.050  12.808  14.181  0.00  0.00     0.078 A 
HETATM   10  C   UNK N   1      34.584  11.524  14.586  0.00  0.00     0.009 A 
HETATM   11  C   UNK N   1      34.764  11.127  15.940  0.00  0.00     0.088 A 
HETATM   12  C   UNK N   1      35.398  11.998  16.859  0.00  0.00     0.043 A 
HETATM   13  C   UNK N   1      35.825  13.255  16.426  0.00  0.00     0.021 A 
HETATM   14  C   UNK N   1      35.647  13.656  15.110  0.00  0.00     0.038 A 
BRANCH  10  15
HETATM   15  C   UNK N   1      33.889  10.645  13.555  0.00  0.00     0.044 C 
BRANCH  15  16
HETATM   16  C   UNK N   1      34.733   9.748  12.664  0.00  0.00     0.000 C 
HETATM   17  C   UNK N   1      33.933   9.356  11.439  0.00  0.00     0.005 C 
ENDBRANCH  15  16
ENDBRANCH  10  15
BRANCH  11  18
HETATM   18  O   UNK N   1      34.337   9.923  16.361  0.00  0.00    -0.359 OA
HETATM   19  H   UNK N   1      34.740   9.516  17.103  0.00  0.00     0.217 HD
ENDBRANCH  11  18
BRANCH  12  20
HETATM   20  C   UNK N   1      35.626  11.622  18.282  0.00  0.00     0.158 C 
HETATM   21  O   UNK N   1      36.121  10.545  18.574  0.00  0.00    -0.293 OA
HETATM   22  C   UNK N   1      35.259  12.563  19.385  0.00  0.00     0.097 C 
ENDBRANCH  12  20
ENDBRANCH   8   9
ENDBRANCH   7   8
ENDBRANCH   1   7
BRANCH   4  23
HETATM   23  C   UNK N   1      33.712  17.020   7.813  0.00  0.00     0.184 C 
BRANCH  23  24
HETATM   24  C   UNK N   1      32.246  17.237   7.496  0.00  0.00    -0.024 A 
HETATM   25  C   UNK N   1      31.738  16.977   6.209  0.00  0.00     0.010 A 
HETATM   26  C   UNK N   1      30.393  17.193   5.915  0.00  0.00     0.002 A 
HETATM   27  C   UNK N   1      29.536  17.680   6.901  0.00  0.00     0.018 A 
HETATM   28  C   UNK N   1      30.028  17.960   8.186  0.00  0.00     0.038 A 
HETATM   29  C   UNK N   1      31.381  17.740   8.474  0.00  0.00     0.028 A 
BRANCH  28  30
HETATM   30  C   UNK N   1      29.122  18.486   9.222  0.00  0.00     0.176 C 
HETATM   31  O   UNK N   1      29.551  18.832  10.304  0.00  0.00    -0.646 OA
BRANCH  30  32
HETATM   32  O   UNK N   1      27.797  18.580   8.970  0.00  0.00    -0.773 OA
HETATM   33  H   UNK N   1      27.463  19.024   8.214  0.00  0.00     0.167 HD
ENDBRANCH  30  32
ENDBRANCH  28  30
ENDBRANCH  23  24
BRANCH  23  34
HETATM   34  O   UNK N   1      34.552  18.077   7.459  0.00  0.00    -0.386 OA
HETATM   35  H   UNK N   1      34.733  18.980   7.767  0.00  0.00     0.210 HD
ENDBRANCH  23  34
ENDBRANCH   4  23
TORSDOF 12
ENDMDL
MODEL 4
REMARK VINA RESULT:      -7.5      2.886      4.269
REMARK  12 active torsions:
REMARK  status: ('A' for Active; 'I' for Inactive)
REMARK    1  A    between atoms: C_2  and  C_3 
REMARK    2  A    between atoms: C_3  and  C_4 
REMARK    3  A    between atoms: C_5  and  O_14 
REMARK    4  A    between atoms: C_8  and  C_11 
REMARK    5  A    between atoms: C_9  and  O_10 
REMARK    6  A    between atoms: O_14  and  C_15 
REMARK    7  A    between atoms: C_15  and  C_16 
REMARK    8  A    between atoms: C_19  and  C_22 
REMARK    9  A    between atoms: C_22  and  C_23 
REMARK   10  A    between atoms: C_22  and  O_32 
REMARK   11  A    between atoms: C_27  and  C_29 
REMARK   12  A    between atoms: C_29  and  O_31 
ROOT
HETATM    1  C   UNK N   1      26.318  17.687   5.254  0.00  0.00    -0.034 A 
HETATM    2  C   UNK N   1      26.805  16.416   5.579  0.00  0.00     0.010 A 
HETATM    3  C   UNK N   1      27.978  16.295   6.330  0.00  0.00     0.011 A 
HETATM    4  C   UNK N   1      28.650  17.450   6.773  0.00  0.00    -0.025 A 
HETATM    5  C   UNK N   1      28.178  18.709   6.405  0.00  0.00     0.011 A 
HETATM    6  C   UNK N   1      27.018  18.828   5.646  0.00  0.00     0.010 A 
ENDROOT
BRANCH   1   7
HETATM    7  C   UNK N   1      24.963  17.849   4.680  0.00  0.00     0.214 C 
BRANCH   7   8
HETATM    8  O   UNK N   1      24.193  16.725   4.827  0.00  0.00    -0.346 OA
BRANCH   8   9
HETATM    9  C   UNK N   1      23.112  16.709   5.643  0.00  0.00     0.078 A 
HETATM   10  C   UNK N   1      22.798  15.604   6.486  0.00  0.00     0.009 A 
HETATM   11  C   UNK N   1      21.658  15.691   7.331  0.00  0.00     0.088 A 
HETATM   12  C   UNK N   1      20.857  16.859   7.329  0.00  0.00     0.043 A 
HETATM   13  C   UNK N   1      21.189  17.913   6.475  0.00  0.00     0.021 A 
HETATM   14  C   UNK N   1      22.294  17.835   5.641  0.00  0.00     0.038 A 
BRANCH  10  15
HETATM   15  C   UNK N   1      23.686  14.367   6.424  0.00  0.00     0.044 C 
BRANCH  15  16
HETATM   16  C   UNK N   1      24.780  14.194   7.464  0.00  0.00     0.000 C 
HETATM   17  C   UNK N   1      24.630  12.843   8.133  0.00  0.00     0.005 C 
ENDBRANCH  15  16
ENDBRANCH  10  15
BRANCH  11  18
HETATM   18  O   UNK N   1      21.328  14.668   8.141  0.00  0.00    -0.359 OA
HETATM   19  H   UNK N   1      21.255  13.801   7.795  0.00  0.00     0.217 HD
ENDBRANCH  11  18
BRANCH  12  20
HETATM   20  C   UNK N   1      19.663  17.004   8.208  0.00  0.00     0.158 C 
HETATM   21  O   UNK N   1      18.773  16.169   8.200  0.00  0.00    -0.293 OA
HETATM   22  C   UNK N   1      19.534  18.177   9.127  0.00  0.00     0.097 C 
ENDBRANCH  12  20
ENDBRANCH   8   9
ENDBRANCH   7   8
ENDBRANCH   1   7
BRANCH   4  23
HETATM   23  C   UNK N   1      29.731  17.373   7.813  0.00  0.00     0.184 C 
BRANCH  23  24
HETATM   24  C   UNK N   1      31.153  17.432   7.292  0.00  0.00    -0.024 A 
HETATM   25  C   UNK N   1      31.450  17.101   5.955  0.00  0.00     0.010 A 
HETATM   26  C   UNK N   1      32.760  17.140   5.483  0.00  0.00     0.002 A 
HETATM   27  C   UNK N   1      33.797  17.503   6.341  0.00  0.00     0.018 A 
HETATM   28  C   UNK N   1      33.523  17.822   7.681  0.00  0.00     0.038 A 
HETATM   29  C   UNK N   1      32.203  17.781   8.149  0.00  0.00     0.028 A 
BRANCH  28  30
HETATM   30  C   UNK N   1      34.623  18.194   8.588  0.00  0.00     0.176 C 
HETATM   31  O   UNK N   1      35.251  19.220   8.413  0.00  0.00    -0.646 OA
BRANCH  30  32
HETATM   32  O   UNK N   1      34.943  17.385   9.623  0.00  0.00    -0.773 OA
HETATM   33  H   UNK N   1      35.825  17.286   9.925  0.00  0.00     0.167 HD
ENDBRANCH  30  32
ENDBRANCH  28  30
ENDBRANCH  23  24
BRANCH  23  34
HETATM   34  O   UNK N   1      29.489  18.149   8.947  0.00  0.00    -0.386 OA
HETATM   35  H   UNK N   1      29.830  18.970   9.336  0.00  0.00     0.210 HD
ENDBRANCH  23  34
ENDBRANCH   4  23
TORSDOF 12
ENDMDL
MODEL 5
REMARK VINA RESULT:      -7.4      3.086      9.007
REMARK  12 active torsions:
REMARK  status: ('A' for Active; 'I' for Inactive)
REMARK    1  A    between atoms: C_2  and  C_3 
REMARK    2  A    between atoms: C_3  and  C_4 
REMARK    3  A    between atoms: C_5  and  O_14 
REMARK    4  A    between atoms: C_8  and  C_11 
REMARK    5  A    between atoms: C_9  and  O_10 
REMARK    6  A    between atoms: O_14  and  C_15 
REMARK    7  A    between atoms: C_15  and  C_16 
REMARK    8  A    between atoms: C_19  and  C_22 
REMARK    9  A    between atoms: C_22  and  C_23 
REMARK   10  A    between atoms: C_22  and  O_32 
REMARK   11  A    between atoms: C_27  and  C_29 
REMARK   12  A    between atoms: C_29  and  O_31 
ROOT
HETATM    1  C   UNK N   1      27.070  15.172   2.877  0.00  0.00    -0.034 A 
HETATM    2  C   UNK N   1      26.262  15.549   1.799  0.00  0.00     0.010 A 
HETATM    3  C   UNK N   1      24.873  15.418   1.895  0.00  0.00     0.011 A 
HETATM    4  C   UNK N   1      24.295  14.929   3.081  0.00  0.00    -0.025 A 
HETATM    5  C   UNK N   1      25.113  14.517   4.132  0.00  0.00     0.011 A 
HETATM    6  C   UNK N   1      26.496  14.635   4.029  0.00  0.00     0.010 A 
ENDROOT
BRANCH   1   7
HETATM    7  C   UNK N   1      28.507  15.527   2.900  0.00  0.00     0.214 C 
BRANCH   7   8
HETATM    8  O   UNK N   1      28.722  16.823   3.289  0.00  0.00    -0.346 OA
BRANCH   8   9
HETATM    9  C   UNK N   1      28.674  17.188   4.593  0.00  0.00     0.078 A 
HETATM   10  C   UNK N   1      27.785  18.190   5.081  0.00  0.00     0.009 A 
HETATM   11  C   UNK N   1      27.787  18.484   6.473  0.00  0.00     0.088 A 
HETATM   12  C   UNK N   1      28.656  17.789   7.347  0.00  0.00     0.043 A 
HETATM   13  C   UNK N   1      29.523  16.826   6.826  0.00  0.00     0.021 A 
HETATM   14  C   UNK N   1      29.537  16.537   5.470  0.00  0.00     0.038 A 
BRANCH  10  15
HETATM   15  C   UNK N   1      26.893  18.918   4.084  0.00  0.00     0.044 C 
BRANCH  15  16
HETATM   16  C   UNK N   1      25.436  18.504   3.963  0.00  0.00     0.000 C 
HETATM   17  C   UNK N   1      24.625  19.663   3.421  0.00  0.00     0.005 C 
ENDBRANCH  15  16
ENDBRANCH  10  15
BRANCH  11  18
HETATM   18  O   UNK N   1      26.963  19.424   6.972  0.00  0.00    -0.359 OA
HETATM   19  H   UNK N   1      26.035  19.301   6.935  0.00  0.00     0.217 HD
ENDBRANCH  11  18
BRANCH  12  20
HETATM   20  C   UNK N   1      28.682  18.049   8.814  0.00  0.00     0.158 C 
HETATM   21  O   UNK N   1      27.729  17.758   9.519  0.00  0.00    -0.293 OA
HETATM   22  C   UNK N   1      29.884  18.667   9.455  0.00  0.00     0.097 C 
ENDBRANCH  12  20
ENDBRANCH   8   9
ENDBRANCH   7   8
ENDBRANCH   1   7
BRANCH   4  23
HETATM   23  C   UNK N   1      22.819  15.045   3.335  0.00  0.00     0.184 C 
BRANCH  23  24
HETATM   24  C   UNK N   1      22.368  16.310   4.038  0.00  0.00    -0.024 A 
HETATM   25  C   UNK N   1      22.603  16.498   5.414  0.00  0.00     0.010 A 
HETATM   26  C   UNK N   1      22.173  17.655   6.061  0.00  0.00     0.002 A 
HETATM   27  C   UNK N   1      21.492  18.638   5.346  0.00  0.00     0.018 A 
HETATM   28  C   UNK N   1      21.234  18.461   3.976  0.00  0.00     0.038 A 
HETATM   29  C   UNK N   1      21.670  17.297   3.333  0.00  0.00     0.028 A 
BRANCH  28  30
HETATM   30  C   UNK N   1      20.503  19.499   3.226  0.00  0.00     0.176 C 
HETATM   31  O   UNK N   1      20.297  20.590   3.718  0.00  0.00    -0.646 OA
BRANCH  30  32
HETATM   32  O   UNK N   1      20.053  19.234   1.979  0.00  0.00    -0.773 OA
HETATM   33  H   UNK N   1      20.613  18.893   1.309  0.00  0.00     0.167 HD
ENDBRANCH  30  32
ENDBRANCH  28  30
ENDBRANCH  23  24
BRANCH  23  34
HETATM   34  O   UNK N   1      22.022  14.657   2.257  0.00  0.00    -0.386 OA
HETATM   35  H   UNK N   1      21.641  15.069   1.466  0.00  0.00     0.210 HD
ENDBRANCH  23  34
ENDBRANCH   4  23
TORSDOF 12
ENDMDL
MODEL 6
REMARK VINA RESULT:      -7.3      6.547     13.244
REMARK  12 active torsions:
REMARK  status: ('A' for Active; 'I' for Inactive)
REMARK    1  A    between atoms: C_2  and  C_3 
REMARK    2  A    between atoms: C_3  and  C_4 
REMARK    3  A    between atoms: C_5  and  O_14 
REMARK    4  A    between atoms: C_8  and  C_11 
REMARK    5  A    between atoms: C_9  and  O_10 
REMARK    6  A    between atoms: O_14  and  C_15 
REMARK    7  A    between atoms: C_15  and  C_16 
REMARK    8  A    between atoms: C_19  and  C_22 
REMARK    9  A    between atoms: C_22  and  C_23 
REMARK   10  A    between atoms: C_22  and  O_32 
REMARK   11  A    between atoms: C_27  and  C_29 
REMARK   12  A    between atoms: C_29  and  O_31 
ROOT
HETATM    1  C   UNK N   1      35.011  15.173  11.355  0.00  0.00    -0.034 A 
HETATM    2  C   UNK N   1      34.004  14.540  10.618  0.00  0.00     0.010 A 
HETATM    3  C   UNK N   1      33.479  15.166   9.483  0.00  0.00     0.011 A 
HETATM    4  C   UNK N   1      33.980  16.418   9.076  0.00  0.00    -0.025 A 
HETATM    5  C   UNK N   1      34.952  17.057   9.845  0.00  0.00     0.011 A 
HETATM    6  C   UNK N   1      35.464  16.438  10.982  0.00  0.00     0.010 A 
ENDROOT
BRANCH   1   7
HETATM    7  C   UNK N   1      35.751  14.436  12.404  0.00  0.00     0.214 C 
BRANCH   7   8
HETATM    8  O   UNK N   1      34.921  13.733  13.237  0.00  0.00    -0.346 OA
BRANCH   8   9
HETATM    9  C   UNK N   1      35.172  12.441  13.561  0.00  0.00     0.078 A 
HETATM   10  C   UNK N   1      35.607  12.042  14.858  0.00  0.00     0.009 A 
HETATM   11  C   UNK N   1      35.817  10.659  15.113  0.00  0.00     0.088 A 
HETATM   12  C   UNK N   1      35.592   9.704  14.092  0.00  0.00     0.043 A 
HETATM   13  C   UNK N   1      35.182  10.139  12.829  0.00  0.00     0.021 A 
HETATM   14  C   UNK N   1      34.982  11.486  12.567  0.00  0.00     0.038 A 
BRANCH  10  15
HETATM   15  C   UNK N   1      35.854  13.121  15.905  0.00  0.00     0.044 C 
BRANCH  15  16
HETATM   16  C   UNK N   1      34.857  13.286  17.040  0.00  0.00     0.000 C 
HETATM   17  C   UNK N   1      35.411  14.256  18.062  0.00  0.00     0.005 C 
ENDBRANCH  15  16
ENDBRANCH  10  15
BRANCH  11  18
HETATM   18  O   UNK N   1      36.229  10.242  16.324  0.00  0.00    -0.359 OA
HETATM   19  H   UNK N   1      37.103  10.420  16.608  0.00  0.00     0.217 HD
ENDBRANCH  11  18
BRANCH  12  20
HETATM   20  C   UNK N   1      35.781   8.244  14.314  0.00  0.00     0.158 C 
HETATM   21  O   UNK N   1      35.655   7.758  15.427  0.00  0.00    -0.293 OA
HETATM   22  C   UNK N   1      36.120   7.338  13.173  0.00  0.00     0.097 C 
ENDBRANCH  12  20
ENDBRANCH   8   9
ENDBRANCH   7   8
ENDBRANCH   1   7
BRANCH   4  23
HETATM   23  C   UNK N   1      33.660  16.984   7.723  0.00  0.00     0.184 C 
BRANCH  23  24
HETATM   24  C   UNK N   1      32.189  17.210   7.433  0.00  0.00    -0.024 A 
HETATM   25  C   UNK N   1      31.655  16.955   6.155  0.00  0.00     0.010 A 
HETATM   26  C   UNK N   1      30.306  17.179   5.887  0.00  0.00     0.002 A 
HETATM   27  C   UNK N   1      29.471  17.670   6.889  0.00  0.00     0.018 A 
HETATM   28  C   UNK N   1      29.989  17.945   8.165  0.00  0.00     0.038 A 
HETATM   29  C   UNK N   1      31.346  17.716   8.428  0.00  0.00     0.028 A 
BRANCH  28  30
HETATM   30  C   UNK N   1      29.105  18.474   9.219  0.00  0.00     0.176 C 
HETATM   31  O   UNK N   1      29.562  18.855  10.278  0.00  0.00    -0.646 OA
BRANCH  30  32
HETATM   32  O   UNK N   1      27.771  18.532   9.009  0.00  0.00    -0.773 OA
HETATM   33  H   UNK N   1      27.155  18.149   9.604  0.00  0.00     0.167 HD
ENDBRANCH  30  32
ENDBRANCH  28  30
ENDBRANCH  23  24
BRANCH  23  34
HETATM   34  O   UNK N   1      34.503  18.023   7.324  0.00  0.00    -0.386 OA
HETATM   35  H   UNK N   1      34.446  18.813   6.765  0.00  0.00     0.210 HD
ENDBRANCH  23  34
ENDBRANCH   4  23
TORSDOF 12
ENDMDL
MODEL 7
REMARK VINA RESULT:      -7.3      6.680     13.429
REMARK  12 active torsions:
REMARK  status: ('A' for Active; 'I' for Inactive)
REMARK    1  A    between atoms: C_2  and  C_3 
REMARK    2  A    between atoms: C_3  and  C_4 
REMARK    3  A    between atoms: C_5  and  O_14 
REMARK    4  A    between atoms: C_8  and  C_11 
REMARK    5  A    between atoms: C_9  and  O_10 
REMARK    6  A    between atoms: O_14  and  C_15 
REMARK    7  A    between atoms: C_15  and  C_16 
REMARK    8  A    between atoms: C_19  and  C_22 
REMARK    9  A    between atoms: C_22  and  C_23 
REMARK   10  A    between atoms: C_22  and  O_32 
REMARK   11  A    between atoms: C_27  and  C_29 
REMARK   12  A    between atoms: C_29  and  O_31 
ROOT
HETATM    1  C   UNK N   1      35.061  14.784  11.452  0.00  0.00    -0.034 A 
HETATM    2  C   UNK N   1      34.254  14.422  10.368  0.00  0.00     0.010 A 
HETATM    3  C   UNK N   1      34.019  15.342   9.342  0.00  0.00     0.011 A 
HETATM    4  C   UNK N   1      34.612  16.618   9.393  0.00  0.00    -0.025 A 
HETATM    5  C   UNK N   1      35.379  16.980  10.500  0.00  0.00     0.011 A 
HETATM    6  C   UNK N   1      35.600  16.068  11.527  0.00  0.00     0.010 A 
ENDROOT
BRANCH   1   7
HETATM    7  C   UNK N   1      35.525  13.763  12.418  0.00  0.00     0.214 C 
BRANCH   7   8
HETATM    8  O   UNK N   1      34.516  13.305  13.224  0.00  0.00    -0.346 OA
BRANCH   8   9
HETATM    9  C   UNK N   1      34.772  12.741  14.429  0.00  0.00     0.078 A 
HETATM   10  C   UNK N   1      34.491  11.374  14.716  0.00  0.00     0.009 A 
HETATM   11  C   UNK N   1      34.822  10.863  16.001  0.00  0.00     0.088 A 
HETATM   12  C   UNK N   1      35.422  11.705  16.969  0.00  0.00     0.043 A 
HETATM   13  C   UNK N   1      35.666  13.044  16.653  0.00  0.00     0.021 A 
HETATM   14  C   UNK N   1      35.339  13.554  15.406  0.00  0.00     0.038 A 
BRANCH  10  15
HETATM   15  C   UNK N   1      33.822  10.528  13.640  0.00  0.00     0.044 C 
BRANCH  15  16
HETATM   16  C   UNK N   1      34.663  10.007  12.486  0.00  0.00     0.000 C 
HETATM   17  C   UNK N   1      36.031   9.606  12.999  0.00  0.00     0.005 C 
ENDBRANCH  15  16
ENDBRANCH  10  15
BRANCH  11  18
HETATM   18  O   UNK N   1      34.571   9.578  16.311  0.00  0.00    -0.359 OA
HETATM   19  H   UNK N   1      34.677   8.911  15.663  0.00  0.00     0.217 HD
ENDBRANCH  11  18
BRANCH  12  20
HETATM   20  C   UNK N   1      35.803  11.213  18.323  0.00  0.00     0.158 C 
HETATM   21  O   UNK N   1      36.456  10.190  18.457  0.00  0.00    -0.293 OA
HETATM   22  C   UNK N   1      35.400  11.970  19.548  0.00  0.00     0.097 C 
ENDBRANCH  12  20
ENDBRANCH   8   9
ENDBRANCH   7   8
ENDBRANCH   1   7
BRANCH   4  23
HETATM   23  C   UNK N   1      34.627  17.520   8.193  0.00  0.00     0.184 C 
BRANCH  23  24
HETATM   24  C   UNK N   1      33.421  17.423   7.279  0.00  0.00    -0.024 A 
HETATM   25  C   UNK N   1      32.114  17.517   7.793  0.00  0.00     0.010 A 
HETATM   26  C   UNK N   1      31.007  17.412   6.954  0.00  0.00     0.002 A 
HETATM   27  C   UNK N   1      31.189  17.201   5.588  0.00  0.00     0.018 A 
HETATM   28  C   UNK N   1      32.485  17.088   5.059  0.00  0.00     0.038 A 
HETATM   29  C   UNK N   1      33.593  17.196   5.909  0.00  0.00     0.028 A 
BRANCH  28  30
HETATM   30  C   UNK N   1      32.673  16.854   3.616  0.00  0.00     0.176 C 
HETATM   31  O   UNK N   1      33.535  16.096   3.218  0.00  0.00    -0.646 OA
BRANCH  30  32
HETATM   32  O   UNK N   1      31.882  17.492   2.724  0.00  0.00    -0.773 OA
HETATM   33  H   UNK N   1      32.036  17.447   1.800  0.00  0.00     0.167 HD
ENDBRANCH  30  32
ENDBRANCH  28  30
ENDBRANCH  23  24
BRANCH  23  34
HETATM   34  O   UNK N   1      35.057  18.820   8.461  0.00  0.00    -0.386 OA
HETATM   35  H   UNK N   1      34.862  19.716   8.144  0.00  0.00     0.210 HD
ENDBRANCH  23  34
ENDBRANCH   4  23
TORSDOF 12
ENDMDL
MODEL 8
REMARK VINA RESULT:      -7.2     11.254     14.313
REMARK  12 active torsions:
REMARK  status: ('A' for Active; 'I' for Inactive)
REMARK    1  A    between atoms: C_2  and  C_3 
REMARK    2  A    between atoms: C_3  and  C_4 
REMARK    3  A    between atoms: C_5  and  O_14 
REMARK    4  A    between atoms: C_8  and  C_11 
REMARK    5  A    between atoms: C_9  and  O_10 
REMARK    6  A    between atoms: O_14  and  C_15 
REMARK    7  A    between atoms: C_15  and  C_16 
REMARK    8  A    between atoms: C_19  and  C_22 
REMARK    9  A    between atoms: C_22  and  C_23 
REMARK   10  A    between atoms: C_22  and  O_32 
REMARK   11  A    between atoms: C_27  and  C_29 
REMARK   12  A    between atoms: C_29  and  O_31 
ROOT
HETATM    1  C   UNK N   1      25.869  26.575  -6.771  0.00  0.00    -0.034 A 
HETATM    2  C   UNK N   1      26.974  27.368  -7.099  0.00  0.00     0.010 A 
HETATM    3  C   UNK N   1      27.361  28.405  -6.245  0.00  0.00     0.011 A 
HETATM    4  C   UNK N   1      26.651  28.632  -5.051  0.00  0.00    -0.025 A 
HETATM    5  C   UNK N   1      25.526  27.863  -4.757  0.00  0.00     0.011 A 
HETATM    6  C   UNK N   1      25.135  26.840  -5.615  0.00  0.00     0.010 A 
ENDROOT
BRANCH   1   7
HETATM    7  C   UNK N   1      25.589  25.329  -7.519  0.00  0.00     0.214 C 
BRANCH   7   8
HETATM    8  O   UNK N   1      25.655  24.214  -6.724  0.00  0.00    -0.346 OA
BRANCH   8   9
HETATM    9  C   UNK N   1      26.684  23.337  -6.818  0.00  0.00     0.078 A 
HETATM   10  C   UNK N   1      27.818  23.384  -5.956  0.00  0.00     0.009 A 
HETATM   11  C   UNK N   1      28.835  22.403  -6.112  0.00  0.00     0.088 A 
HETATM   12  C   UNK N   1      28.714  21.402  -7.106  0.00  0.00     0.043 A 
HETATM   13  C   UNK N   1      27.595  21.402  -7.942  0.00  0.00     0.021 A 
HETATM   14  C   UNK N   1      26.600  22.359  -7.804  0.00  0.00     0.038 A 
BRANCH  10  15
HETATM   15  C   UNK N   1      27.900  24.501  -4.923  0.00  0.00     0.044 C 
BRANCH  15  16
HETATM   16  C   UNK N   1      27.100  24.373  -3.638  0.00  0.00     0.000 C 
HETATM   17  C   UNK N   1      27.885  23.555  -2.633  0.00  0.00     0.005 C 
ENDBRANCH  15  16
ENDBRANCH  10  15
BRANCH  11  18
HETATM   18  O   UNK N   1      29.922  22.414  -5.318  0.00  0.00    -0.359 OA
HETATM   19  H   UNK N   1      29.974  23.017  -4.603  0.00  0.00     0.217 HD
ENDBRANCH  11  18
BRANCH  12  20
HETATM   20  C   UNK N   1      29.744  20.343  -7.297  0.00  0.00     0.158 C 
HETATM   21  O   UNK N   1      30.921  20.565  -7.063  0.00  0.00    -0.293 OA
HETATM   22  C   UNK N   1      29.354  18.979  -7.772  0.00  0.00     0.097 C 
ENDBRANCH  12  20
ENDBRANCH   8   9
ENDBRANCH   7   8
ENDBRANCH   1   7
BRANCH   4  23
HETATM   23  C   UNK N   1      27.198  29.529  -3.977  0.00  0.00     0.184 C 
BRANCH  23  24
HETATM   24  C   UNK N   1      28.556  29.145  -3.425  0.00  0.00    -0.024 A 
HETATM   25  C   UNK N   1      29.272  30.022  -2.587  0.00  0.00     0.010 A 
HETATM   26  C   UNK N   1      30.528  29.673  -2.094  0.00  0.00     0.002 A 
HETATM   27  C   UNK N   1      31.093  28.446  -2.438  0.00  0.00     0.018 A 
HETATM   28  C   UNK N   1      30.401  27.565  -3.285  0.00  0.00     0.038 A 
HETATM   29  C   UNK N   1      29.139  27.922  -3.776  0.00  0.00     0.028 A 
BRANCH  28  30
HETATM   30  C   UNK N   1      31.006  26.273  -3.656  0.00  0.00     0.176 C 
HETATM   31  O   UNK N   1      30.776  25.272  -3.007  0.00  0.00    -0.646 OA
BRANCH  30  32
HETATM   32  O   UNK N   1      31.831  26.200  -4.724  0.00  0.00    -0.773 OA
HETATM   33  H   UNK N   1      32.656  26.645  -4.749  0.00  0.00     0.167 HD
ENDBRANCH  30  32
ENDBRANCH  28  30
ENDBRANCH  23  24
BRANCH  23  34
HETATM   34  O   UNK N   1      27.032  30.891  -4.232  0.00  0.00    -0.386 OA
HETATM   35  H   UNK N   1      27.425  31.562  -4.812  0.00  0.00     0.210 HD
ENDBRANCH  23  34
ENDBRANCH   4  23
TORSDOF 12
ENDMDL
MODEL 9
REMARK VINA RESULT:      -7.2     10.954     15.163
REMARK  12 active torsions:
REMARK  status: ('A' for Active; 'I' for Inactive)
REMARK    1  A    between atoms: C_2  and  C_3 
REMARK    2  A    between atoms: C_3  and  C_4 
REMARK    3  A    between atoms: C_5  and  O_14 
REMARK    4  A    between atoms: C_8  and  C_11 
REMARK    5  A    between atoms: C_9  and  O_10 
REMARK    6  A    between atoms: O_14  and  C_15 
REMARK    7  A    between atoms: C_15  and  C_16 
REMARK    8  A    between atoms: C_19  and  C_22 
REMARK    9  A    between atoms: C_22  and  C_23 
REMARK   10  A    between atoms: C_22  and  O_32 
REMARK   11  A    between atoms: C_27  and  C_29 
REMARK   12  A    between atoms: C_29  and  O_31 
ROOT
HETATM    1  C   UNK N   1      28.053  22.362  -7.357  0.00  0.00    -0.034 A 
HETATM    2  C   UNK N   1      28.073  22.968  -8.618  0.00  0.00     0.010 A 
HETATM    3  C   UNK N   1      27.272  24.089  -8.860  0.00  0.00     0.011 A 
HETATM    4  C   UNK N   1      26.469  24.613  -7.830  0.00  0.00    -0.025 A 
HETATM    5  C   UNK N   1      26.426  23.974  -6.592  0.00  0.00     0.011 A 
HETATM    6  C   UNK N   1      27.213  22.851  -6.357  0.00  0.00     0.010 A 
ENDROOT
BRANCH   1   7
HETATM    7  C   UNK N   1      29.062  21.339  -6.998  0.00  0.00     0.214 C 
BRANCH   7   8
HETATM    8  O   UNK N   1      29.478  21.446  -5.697  0.00  0.00    -0.346 OA
BRANCH   8   9
HETATM    9  C   UNK N   1      30.704  21.019  -5.308  0.00  0.00     0.078 A 
HETATM   10  C   UNK N   1      31.213  21.228  -3.993  0.00  0.00     0.009 A 
HETATM   11  C   UNK N   1      32.500  20.717  -3.670  0.00  0.00     0.088 A 
HETATM   12  C   UNK N   1      33.251  20.012  -4.641  0.00  0.00     0.043 A 
HETATM   13  C   UNK N   1      32.723  19.844  -5.923  0.00  0.00     0.021 A 
HETATM   14  C   UNK N   1      31.473  20.346  -6.252  0.00  0.00     0.038 A 
BRANCH  10  15
HETATM   15  C   UNK N   1      30.364  22.015  -3.003  0.00  0.00     0.044 C 
BRANCH  15  16
HETATM   16  C   UNK N   1      30.553  23.520  -2.905  0.00  0.00     0.000 C 
HETATM   17  C   UNK N   1      29.367  24.219  -3.537  0.00  0.00     0.005 C 
ENDBRANCH  15  16
ENDBRANCH  10  15
BRANCH  11  18
HETATM   18  O   UNK N   1      33.015  20.895  -2.440  0.00  0.00    -0.359 OA
HETATM   19  H   UNK N   1      33.011  20.189  -1.824  0.00  0.00     0.217 HD
ENDBRANCH  11  18
BRANCH  12  20
HETATM   20  C   UNK N   1      34.596  19.443  -4.345  0.00  0.00     0.158 C 
HETATM   21  O   UNK N   1      35.527  20.167  -4.029  0.00  0.00    -0.293 OA
HETATM   22  C   UNK N   1      34.830  17.968  -4.420  0.00  0.00     0.097 C 
ENDBRANCH  12  20
ENDBRANCH   8   9
ENDBRANCH   7   8
ENDBRANCH   1   7
BRANCH   4  23
HETATM   23  C   UNK N   1      25.828  25.966  -7.954  0.00  0.00     0.184 C 
BRANCH  23  24
HETATM   24  C   UNK N   1      26.477  27.079  -7.156  0.00  0.00    -0.024 A 
HETATM   25  C   UNK N   1      27.641  27.721  -7.621  0.00  0.00     0.010 A 
HETATM   26  C   UNK N   1      28.245  28.733  -6.878  0.00  0.00     0.002 A 
HETATM   27  C   UNK N   1      27.702  29.113  -5.652  0.00  0.00     0.018 A 
HETATM   28  C   UNK N   1      26.550  28.473  -5.164  0.00  0.00     0.038 A 
HETATM   29  C   UNK N   1      25.948  27.458  -5.917  0.00  0.00     0.028 A 
BRANCH  28  30
HETATM   30  C   UNK N   1      25.985  28.871  -3.862  0.00  0.00     0.176 C 
HETATM   31  O   UNK N   1      25.505  28.041  -3.115  0.00  0.00    -0.646 OA
BRANCH  30  32
HETATM   32  O   UNK N   1      25.995  30.172  -3.495  0.00  0.00    -0.773 OA
HETATM   33  H   UNK N   1      26.573  30.797  -3.889  0.00  0.00     0.167 HD
ENDBRANCH  30  32
ENDBRANCH  28  30
ENDBRANCH  23  24
BRANCH  23  34
HETATM   34  O   UNK N   1      25.469  26.311  -9.258  0.00  0.00    -0.386 OA
HETATM   35  H   UNK N   1      25.828  26.855  -9.976  0.00  0.00     0.210 HD
ENDBRANCH  23  34
ENDBRANCH   4  23
TORSDOF 12
ENDMDL
