MODEL 1
REMARK VINA RESULT:      -6.6      0.000      0.000
REMARK  1 active torsions:
REMARK  status: ('A' for Active; 'I' for Inactive)
REMARK    1  A    between atoms: C_4  and  C_8 
REMARK       I    between atoms: C_11  and  N_18 
REMARK       I    between atoms: C_14  and  N_17 
ROOT
HETATM    1  C   UNK N   1      36.216  14.309  12.731  0.00  0.00     0.148 A 
HETATM    2  N   UNK N   1      37.213  13.795  11.964  0.00  0.00    -0.175 N 
ATOM      3  HN  UNK N   1      37.723  12.971  12.282  1.00  0.00     0.186 HD
HETATM    4  C   UNK N   1      37.537  14.372  10.779  0.00  0.00     0.692 A 
HETATM    5  N   UNK N   1      36.858  15.464  10.348  0.00  0.00    -0.023 N 
ATOM      6  HN  UNK N   1      37.096  15.892   9.454  1.00  0.00     0.203 HD
HETATM    7  C   UNK N   1      35.864  15.985  11.108  0.00  0.00     0.692 A 
HETATM    8  N   UNK N   1      35.546  15.410  12.295  0.00  0.00    -0.175 N 
ATOM      9  HN  UNK N   1      34.797  15.805  12.864  1.00  0.00     0.186 HD
HETATM   10  N   UNK N   1      35.147  17.109  10.657  0.00  0.00    -0.234 N 
HETATM   11  N   UNK N   1      38.562  13.821   9.986  0.00  0.00    -0.234 N 
HETATM   12  H   UNK N   1      34.374  17.443  11.169  0.00  0.00     0.174 HD
HETATM   13  H   UNK N   1      35.419  17.564   9.827  0.00  0.00     0.174 HD
HETATM   14  H   UNK N   1      38.827  14.264   9.148  0.00  0.00     0.174 HD
HETATM   15  H   UNK N   1      39.013  12.995  10.270  0.00  0.00     0.174 HD
ENDROOT
BRANCH   1  16
HETATM   16  C   UNK N   1      35.801  13.658  14.004  0.00  0.00     0.032 A 
HETATM   17  C   UNK N   1      36.274  14.049  15.290  0.00  0.00     0.048 A 
HETATM   18  C   UNK N   1      35.860  13.342  16.424  0.00  0.00     0.026 A 
HETATM   19 Cl   UNK N   1      37.389  15.385  15.551  0.00  0.00    -0.083 Cl
HETATM   20  C   UNK N   1      34.987  12.260  16.312  0.00  0.00     0.025 A 
HETATM   21  C   UNK N   1      34.513  11.878  15.060  0.00  0.00     0.035 A 
HETATM   22  C   UNK N   1      34.918  12.569  13.920  0.00  0.00     0.041 A 
HETATM   23 Cl   UNK N   1      33.420  10.518  14.914  0.00  0.00    -0.084 Cl
ENDBRANCH   1  16
TORSDOF 1
ENDMDL
MODEL 2
REMARK VINA RESULT:      -6.5      0.091      2.061
REMARK  1 active torsions:
REMARK  status: ('A' for Active; 'I' for Inactive)
REMARK    1  A    between atoms: C_4  and  C_8 
REMARK       I    between atoms: C_11  and  N_18 
REMARK       I    between atoms: C_14  and  N_17 
ROOT
HETATM    1  C   UNK N   1      36.127  14.272  12.696  0.00  0.00     0.148 A 
HETATM    2  N   UNK N   1      35.477  15.380  12.252  0.00  0.00    -0.175 N 
ATOM      3  HN  UNK N   1      34.704  15.765  12.795  1.00  0.00     0.186 HD
HETATM    4  C   UNK N   1      35.847  15.976  11.092  0.00  0.00     0.692 A 
HETATM    5  N   UNK N   1      36.879  15.472  10.369  0.00  0.00    -0.023 N 
ATOM      6  HN  UNK N   1      37.163  15.925   9.501  1.00  0.00     0.203 HD
HETATM    7  C   UNK N   1      37.530  14.366  10.802  0.00  0.00     0.692 A 
HETATM    8  N   UNK N   1      37.154  13.768  11.961  0.00  0.00    -0.175 N 
ATOM      9  HN  UNK N   1      37.647  12.936  12.283  1.00  0.00     0.186 HD
HETATM   10  N   UNK N   1      38.611  13.849  10.063  0.00  0.00    -0.234 N 
HETATM   11  N   UNK N   1      35.177  17.133  10.650  0.00  0.00    -0.234 N 
HETATM   12  H   UNK N   1      39.135  13.093  10.414  0.00  0.00     0.174 HD
HETATM   13  H   UNK N   1      38.843  14.245   9.192  0.00  0.00     0.174 HD
HETATM   14  H   UNK N   1      35.415  17.541   9.786  0.00  0.00     0.174 HD
HETATM   15  H   UNK N   1      34.469  17.533  11.203  0.00  0.00     0.174 HD
ENDROOT
BRANCH   1  16
HETATM   16  C   UNK N   1      35.779  13.636  13.997  0.00  0.00     0.032 A 
HETATM   17  C   UNK N   1      36.283  14.071  15.256  0.00  0.00     0.048 A 
HETATM   18  C   UNK N   1      35.933  13.375  16.418  0.00  0.00     0.026 A 
HETATM   19 Cl   UNK N   1      37.360  15.448  15.450  0.00  0.00    -0.083 Cl
HETATM   20  C   UNK N   1      35.094  12.262  16.360  0.00  0.00     0.025 A 
HETATM   21  C   UNK N   1      34.590  11.837  15.135  0.00  0.00     0.035 A 
HETATM   22  C   UNK N   1      34.931  12.516  13.967  0.00  0.00     0.041 A 
HETATM   23 Cl   UNK N   1      33.540  10.438  15.056  0.00  0.00    -0.084 Cl
ENDBRANCH   1  16
TORSDOF 1
ENDMDL
MODEL 3
REMARK VINA RESULT:      -6.2     14.339     15.674
REMARK  1 active torsions:
REMARK  status: ('A' for Active; 'I' for Inactive)
REMARK    1  A    between atoms: C_4  and  C_8 
REMARK       I    between atoms: C_11  and  N_18 
REMARK       I    between atoms: C_14  and  N_17 
ROOT
HETATM    1  C   UNK N   1      21.890  13.646   9.752  0.00  0.00     0.148 A 
HETATM    2  N   UNK N   1      23.169  13.321  10.077  0.00  0.00    -0.175 N 
ATOM      3  HN  UNK N   1      23.944  13.758   9.579  1.00  0.00     0.186 HD
HETATM    4  C   UNK N   1      23.422  12.417  11.056  0.00  0.00     0.692 A 
HETATM    5  N   UNK N   1      22.395  11.836  11.725  0.00  0.00    -0.023 N 
ATOM      6  HN  UNK N   1      22.585  11.163  12.467  1.00  0.00     0.203 HD
HETATM    7  C   UNK N   1      21.116  12.152  11.406  0.00  0.00     0.692 A 
HETATM    8  N   UNK N   1      20.866  13.053  10.423  0.00  0.00    -0.175 N 
ATOM      9  HN  UNK N   1      19.902  13.288  10.185  1.00  0.00     0.186 HD
HETATM   10  N   UNK N   1      20.048  11.563  12.109  0.00  0.00    -0.234 N 
HETATM   11  N   UNK N   1      24.751  12.099  11.394  0.00  0.00    -0.234 N 
HETATM   12  H   UNK N   1      19.122  11.849  11.933  0.00  0.00     0.174 HD
HETATM   13  H   UNK N   1      20.227  10.864  12.779  0.00  0.00     0.174 HD
HETATM   14  H   UNK N   1      24.936  11.411  12.074  0.00  0.00     0.174 HD
HETATM   15  H   UNK N   1      25.496  12.564  10.951  0.00  0.00     0.174 HD
ENDROOT
BRANCH   1  16
HETATM   16  C   UNK N   1      21.588  14.680   8.724  0.00  0.00     0.032 A 
HETATM   17  C   UNK N   1      22.152  14.691   7.416  0.00  0.00     0.048 A 
HETATM   18  C   UNK N   1      21.841  15.736   6.538  0.00  0.00     0.026 A 
HETATM   19 Cl   UNK N   1      23.257  13.458   6.822  0.00  0.00    -0.083 Cl
HETATM   20  C   UNK N   1      20.983  16.764   6.927  0.00  0.00     0.025 A 
HETATM   21  C   UNK N   1      20.421  16.756   8.200  0.00  0.00     0.035 A 
HETATM   22  C   UNK N   1      20.723  15.726   9.088  0.00  0.00     0.041 A 
HETATM   23 Cl   UNK N   1      19.347  18.047   8.694  0.00  0.00    -0.084 Cl
ENDBRANCH   1  16
TORSDOF 1
ENDMDL
MODEL 4
REMARK VINA RESULT:      -6.2      1.586      3.252
REMARK  1 active torsions:
REMARK  status: ('A' for Active; 'I' for Inactive)
REMARK    1  A    between atoms: C_4  and  C_8 
REMARK       I    between atoms: C_11  and  N_18 
REMARK       I    between atoms: C_14  and  N_17 
ROOT
HETATM    1  C   UNK N   1      35.741  13.565  12.339  0.00  0.00     0.148 A 
HETATM    2  N   UNK N   1      35.147  14.758  12.075  0.00  0.00    -0.175 N 
ATOM      3  HN  UNK N   1      34.279  15.007  12.548  1.00  0.00     0.186 HD
HETATM    4  C   UNK N   1      35.699  15.619  11.184  0.00  0.00     0.692 A 
HETATM    5  N   UNK N   1      36.857  15.296  10.556  0.00  0.00    -0.023 N 
ATOM      6  HN  UNK N   1      37.277  15.947   9.893  1.00  0.00     0.203 HD
HETATM    7  C   UNK N   1      37.455  14.107  10.811  0.00  0.00     0.692 A 
HETATM    8  N   UNK N   1      36.898  13.245  11.698  0.00  0.00    -0.175 N 
ATOM      9  HN  UNK N   1      37.350  12.351  11.888  1.00  0.00     0.186 HD
HETATM   10  N   UNK N   1      38.665  13.775  10.173  0.00  0.00    -0.234 N 
HETATM   11  N   UNK N   1      35.083  16.859  10.930  0.00  0.00    -0.234 N 
HETATM   12  H   UNK N   1      39.141  12.947  10.414  0.00  0.00     0.174 HD
HETATM   13  H   UNK N   1      39.036  14.372   9.484  0.00  0.00     0.174 HD
HETATM   14  H   UNK N   1      35.458  17.466  10.252  0.00  0.00     0.174 HD
HETATM   15  H   UNK N   1      34.276  17.120  11.430  0.00  0.00     0.174 HD
ENDROOT
BRANCH   1  16
HETATM   16  C   UNK N   1      35.187  12.630  13.357  0.00  0.00     0.032 A 
HETATM   17  C   UNK N   1      34.509  11.418  13.041  0.00  0.00     0.048 A 
HETATM   18  C   UNK N   1      33.983  10.631  14.071  0.00  0.00     0.026 A 
HETATM   19 Cl   UNK N   1      34.265  10.840  11.398  0.00  0.00    -0.083 Cl
HETATM   20  C   UNK N   1      34.117  11.016  15.405  0.00  0.00     0.025 A 
HETATM   21  C   UNK N   1      34.787  12.194  15.723  0.00  0.00     0.035 A 
HETATM   22  C   UNK N   1      35.314  12.992  14.709  0.00  0.00     0.041 A 
HETATM   23 Cl   UNK N   1      34.954  12.684  17.395  0.00  0.00    -0.084 Cl
ENDBRANCH   1  16
TORSDOF 1
ENDMDL
MODEL 5
REMARK VINA RESULT:      -6.1      1.572      2.476
REMARK  1 active torsions:
REMARK  status: ('A' for Active; 'I' for Inactive)
REMARK    1  A    between atoms: C_4  and  C_8 
REMARK       I    between atoms: C_11  and  N_18 
REMARK       I    between atoms: C_14  and  N_17 
ROOT
HETATM    1  C   UNK N   1      35.867  13.635  12.410  0.00  0.00     0.148 A 
HETATM    2  N   UNK N   1      36.993  13.314  11.720  0.00  0.00    -0.175 N 
ATOM      3  HN  UNK N   1      37.467  12.432  11.908  1.00  0.00     0.186 HD
HETATM    4  C   UNK N   1      37.490  14.160  10.783  0.00  0.00     0.692 A 
HETATM    5  N   UNK N   1      36.859  15.332  10.523  0.00  0.00    -0.023 N 
ATOM      6  HN  UNK N   1      37.228  15.963   9.813  1.00  0.00     0.203 HD
HETATM    7  C   UNK N   1      35.738  15.662  11.209  0.00  0.00     0.692 A 
HETATM    8  N   UNK N   1      35.245  14.817  12.149  0.00  0.00    -0.175 N 
ATOM      9  HN  UNK N   1      34.401  15.069  12.663  1.00  0.00     0.186 HD
HETATM   10  N   UNK N   1      35.071  16.870  10.930  0.00  0.00    -0.234 N 
HETATM   11  N   UNK N   1      38.648  13.809  10.063  0.00  0.00    -0.234 N 
HETATM   12  H   UNK N   1      34.215  17.076  11.371  0.00  0.00     0.174 HD
HETATM   13  H   UNK N   1      35.463  17.511  10.294  0.00  0.00     0.174 HD
HETATM   14  H   UNK N   1      39.036  14.441   9.415  0.00  0.00     0.174 HD
HETATM   15  H   UNK N   1      39.072  12.933  10.209  0.00  0.00     0.174 HD
ENDROOT
BRANCH   1  16
HETATM   16  C   UNK N   1      35.267  12.697  13.398  0.00  0.00     0.032 A 
HETATM   17  C   UNK N   1      34.570  11.507  13.045  0.00  0.00     0.048 A 
HETATM   18  C   UNK N   1      34.000  10.715  14.049  0.00  0.00     0.026 A 
HETATM   19 Cl   UNK N   1      34.354  10.961  11.387  0.00  0.00    -0.083 Cl
HETATM   20  C   UNK N   1      34.109  11.076  15.392  0.00  0.00     0.025 A 
HETATM   21  C   UNK N   1      34.797  12.233  15.746  0.00  0.00     0.035 A 
HETATM   22  C   UNK N   1      35.367  13.035  14.759  0.00  0.00     0.041 A 
HETATM   23 Cl   UNK N   1      34.933  12.692  17.429  0.00  0.00    -0.084 Cl
ENDBRANCH   1  16
TORSDOF 1
ENDMDL
MODEL 6
REMARK VINA RESULT:      -6.0      7.068      9.112
REMARK  1 active torsions:
REMARK  status: ('A' for Active; 'I' for Inactive)
REMARK    1  A    between atoms: C_4  and  C_8 
REMARK       I    between atoms: C_11  and  N_18 
REMARK       I    between atoms: C_14  and  N_17 
ROOT
HETATM    1  C   UNK N   1      31.723  17.190   8.114  0.00  0.00     0.148 A 
HETATM    2  N   UNK N   1      32.771  18.043   7.971  0.00  0.00    -0.175 N 
ATOM      3  HN  UNK N   1      32.689  18.846   7.348  1.00  0.00     0.186 HD
HETATM    4  C   UNK N   1      33.926  17.833   8.651  0.00  0.00     0.692 A 
HETATM    5  N   UNK N   1      34.038  16.770   9.486  0.00  0.00    -0.023 N 
ATOM      6  HN  UNK N   1      34.904  16.617  10.003  1.00  0.00     0.203 HD
HETATM    7  C   UNK N   1      32.999  15.913   9.632  0.00  0.00     0.692 A 
HETATM    8  N   UNK N   1      31.847  16.122   8.947  0.00  0.00    -0.175 N 
ATOM      9  HN  UNK N   1      31.067  15.474   9.059  1.00  0.00     0.186 HD
HETATM   10  N   UNK N   1      33.107  14.817  10.510  0.00  0.00    -0.234 N 
HETATM   11  N   UNK N   1      35.000  18.732   8.507  0.00  0.00    -0.234 N 
HETATM   12  H   UNK N   1      32.328  14.238  10.677  0.00  0.00     0.174 HD
HETATM   13  H   UNK N   1      33.963  14.630  10.958  0.00  0.00     0.174 HD
HETATM   14  H   UNK N   1      35.854  18.557   8.965  0.00  0.00     0.174 HD
HETATM   15  H   UNK N   1      34.898  19.536   7.948  0.00  0.00     0.174 HD
ENDROOT
BRANCH   1  16
HETATM   16  C   UNK N   1      30.424  17.434   7.427  0.00  0.00     0.032 A 
HETATM   17  C   UNK N   1      29.279  17.992   8.063  0.00  0.00     0.048 A 
HETATM   18  C   UNK N   1      28.089  18.137   7.341  0.00  0.00     0.026 A 
HETATM   19 Cl   UNK N   1      29.254  18.508   9.744  0.00  0.00    -0.083 Cl
HETATM   20  C   UNK N   1      28.010  17.743   6.006  0.00  0.00     0.025 A 
HETATM   21  C   UNK N   1      29.128  17.204   5.374  0.00  0.00     0.035 A 
HETATM   22  C   UNK N   1      30.320  17.050   6.079  0.00  0.00     0.041 A 
HETATM   23 Cl   UNK N   1      29.033  16.705   3.699  0.00  0.00    -0.084 Cl
ENDBRANCH   1  16
TORSDOF 1
ENDMDL
MODEL 7
REMARK VINA RESULT:      -5.7      6.276      8.331
REMARK  1 active torsions:
REMARK  status: ('A' for Active; 'I' for Inactive)
REMARK    1  A    between atoms: C_4  and  C_8 
REMARK       I    between atoms: C_11  and  N_18 
REMARK       I    between atoms: C_14  and  N_17 
ROOT
HETATM    1  C   UNK N   1      32.854  16.389   8.121  0.00  0.00     0.148 A 
HETATM    2  N   UNK N   1      33.442  17.025   9.167  0.00  0.00    -0.175 N 
ATOM      3  HN  UNK N   1      33.000  17.851   9.571  1.00  0.00     0.186 HD
HETATM    4  C   UNK N   1      34.613  16.571   9.678  0.00  0.00     0.692 A 
HETATM    5  N   UNK N   1      35.203  15.470   9.149  0.00  0.00    -0.023 N 
ATOM      6  HN  UNK N   1      36.079  15.124   9.539  1.00  0.00     0.203 HD
HETATM    7  C   UNK N   1      34.625  14.831   8.103  0.00  0.00     0.692 A 
HETATM    8  N   UNK N   1      33.456  15.290   7.591  0.00  0.00    -0.175 N 
ATOM      9  HN  UNK N   1      33.024  14.806   6.803  1.00  0.00     0.186 HD
HETATM   10  N   UNK N   1      35.226  13.679   7.562  0.00  0.00    -0.234 N 
HETATM   11  N   UNK N   1      35.206  17.230  10.773  0.00  0.00    -0.234 N 
HETATM   12  H   UNK N   1      34.769  13.168   6.854  0.00  0.00     0.174 HD
HETATM   13  H   UNK N   1      36.105  13.382   7.892  0.00  0.00     0.174 HD
HETATM   14  H   UNK N   1      36.078  16.928  11.116  0.00  0.00     0.174 HD
HETATM   15  H   UNK N   1      34.749  17.992  11.195  0.00  0.00     0.174 HD
ENDROOT
BRANCH   1  16
HETATM   16  C   UNK N   1      31.537  16.831   7.582  0.00  0.00     0.032 A 
HETATM   17  C   UNK N   1      31.276  17.056   6.201  0.00  0.00     0.048 A 
HETATM   18  C   UNK N   1      30.017  17.518   5.801  0.00  0.00     0.026 A 
HETATM   19 Cl   UNK N   1      32.469  16.805   4.932  0.00  0.00    -0.083 Cl
HETATM   20  C   UNK N   1      29.013  17.758   6.738  0.00  0.00     0.025 A 
HETATM   21  C   UNK N   1      29.257  17.531   8.090  0.00  0.00     0.035 A 
HETATM   22  C   UNK N   1      30.507  17.075   8.506  0.00  0.00     0.041 A 
HETATM   23 Cl   UNK N   1      28.001  17.835   9.271  0.00  0.00    -0.084 Cl
ENDBRANCH   1  16
TORSDOF 1
ENDMDL
MODEL 8
REMARK VINA RESULT:      -5.7      2.556      4.176
REMARK  1 active torsions:
REMARK  status: ('A' for Active; 'I' for Inactive)
REMARK    1  A    between atoms: C_4  and  C_8 
REMARK       I    between atoms: C_11  and  N_18 
REMARK       I    between atoms: C_14  and  N_17 
ROOT
HETATM    1  C   UNK N   1      35.569  11.954  14.454  0.00  0.00     0.148 A 
HETATM    2  N   UNK N   1      34.600  11.344  13.722  0.00  0.00    -0.175 N 
ATOM      3  HN  UNK N   1      33.807  10.910  14.194  1.00  0.00     0.186 HD
HETATM    4  C   UNK N   1      34.681  11.307  12.369  0.00  0.00     0.692 A 
HETATM    5  N   UNK N   1      35.730  11.888  11.736  0.00  0.00    -0.023 N 
ATOM      6  HN  UNK N   1      35.787  11.867  10.718  1.00  0.00     0.203 HD
HETATM    7  C   UNK N   1      36.703  12.495  12.457  0.00  0.00     0.692 A 
HETATM    8  N   UNK N   1      36.623  12.526  13.811  0.00  0.00    -0.175 N 
ATOM      9  HN  UNK N   1      37.357  12.984  14.351  1.00  0.00     0.186 HD
HETATM   10  N   UNK N   1      37.785  13.113  11.803  0.00  0.00    -0.234 N 
HETATM   11  N   UNK N   1      33.663  10.686  11.620  0.00  0.00    -0.234 N 
HETATM   12  H   UNK N   1      38.452  13.622  12.320  0.00  0.00     0.174 HD
HETATM   13  H   UNK N   1      37.876  13.036  10.826  0.00  0.00     0.174 HD
HETATM   14  H   UNK N   1      33.742  10.620  10.641  0.00  0.00     0.174 HD
HETATM   15  H   UNK N   1      32.872  10.318  12.075  0.00  0.00     0.174 HD
ENDROOT
BRANCH   1  16
HETATM   16  C   UNK N   1      35.472  12.061  15.936  0.00  0.00     0.032 A 
HETATM   17  C   UNK N   1      35.419  10.941  16.815  0.00  0.00     0.048 A 
HETATM   18  C   UNK N   1      35.279  11.148  18.191  0.00  0.00     0.026 A 
HETATM   19 Cl   UNK N   1      35.499   9.271  16.268  0.00  0.00    -0.083 Cl
HETATM   20  C   UNK N   1      35.195  12.438  18.715  0.00  0.00     0.025 A 
HETATM   21  C   UNK N   1      35.255  13.538  17.865  0.00  0.00     0.035 A 
HETATM   22  C   UNK N   1      35.390  13.350  16.490  0.00  0.00     0.041 A 
HETATM   23 Cl   UNK N   1      35.145  15.159  18.517  0.00  0.00    -0.084 Cl
ENDBRANCH   1  16
TORSDOF 1
ENDMDL
MODEL 9
REMARK VINA RESULT:      -5.6     16.276     17.861
REMARK  1 active torsions:
REMARK  status: ('A' for Active; 'I' for Inactive)
REMARK    1  A    between atoms: C_4  and  C_8 
REMARK       I    between atoms: C_11  and  N_18 
REMARK       I    between atoms: C_14  and  N_17 
ROOT
HETATM    1  C   UNK N   1      20.998  17.741   3.801  0.00  0.00     0.148 A 
HETATM    2  N   UNK N   1      21.199  19.084   3.746  0.00  0.00    -0.175 N 
ATOM      3  HN  UNK N   1      21.695  19.553   4.503  1.00  0.00     0.186 HD
HETATM    4  C   UNK N   1      20.744  19.804   2.690  0.00  0.00     0.692 A 
HETATM    5  N   UNK N   1      20.089  19.184   1.677  0.00  0.00    -0.023 N 
ATOM      6  HN  UNK N   1      19.754  19.724   0.880  1.00  0.00     0.203 HD
HETATM    7  C   UNK N   1      19.881  17.846   1.726  0.00  0.00     0.692 A 
HETATM    8  N   UNK N   1      20.333  17.128   2.785  0.00  0.00    -0.175 N 
ATOM      9  HN  UNK N   1      20.175  16.121   2.818  1.00  0.00     0.186 HD
HETATM   10  N   UNK N   1      19.216  17.196   0.669  0.00  0.00    -0.234 N 
HETATM   11  N   UNK N   1      20.971  21.193   2.636  0.00  0.00    -0.234 N 
HETATM   12  H   UNK N   1      19.133  16.215   0.664  0.00  0.00     0.174 HD
HETATM   13  H   UNK N   1      18.833  17.725  -0.068  0.00  0.00     0.174 HD
HETATM   14  H   UNK N   1      20.603  21.724   1.893  0.00  0.00     0.174 HD
HETATM   15  H   UNK N   1      21.498  21.633   3.341  0.00  0.00     0.174 HD
ENDROOT
BRANCH   1  16
HETATM   16  C   UNK N   1      21.542  16.919   4.918  0.00  0.00     0.032 A 
HETATM   17  C   UNK N   1      22.667  16.055   4.796  0.00  0.00     0.048 A 
HETATM   18  C   UNK N   1      23.072  15.287   5.894  0.00  0.00     0.026 A 
HETATM   19 Cl   UNK N   1      23.595  15.868   3.313  0.00  0.00    -0.083 Cl
HETATM   20  C   UNK N   1      22.389  15.361   7.108  0.00  0.00     0.025 A 
HETATM   21  C   UNK N   1      21.294  16.210   7.238  0.00  0.00     0.035 A 
HETATM   22  C   UNK N   1      20.875  16.979   6.153  0.00  0.00     0.041 A 
HETATM   23 Cl   UNK N   1      20.431  16.302   8.758  0.00  0.00    -0.084 Cl
ENDBRANCH   1  16
TORSDOF 1
ENDMDL
