MODEL 1
REMARK VINA RESULT:      -7.1      0.000      0.000
REMARK  4 active torsions:
REMARK  status: ('A' for Active; 'I' for Inactive)
REMARK    1  A    between atoms: N_5  and  C_9 
REMARK    2  A    between atoms: C_12  and  N_16 
REMARK    3  A    between atoms: C_18  and  C_22 
REMARK    4  A    between atoms: C_22  and  O_23 
ROOT
HETATM    1  C   UNK N   1      21.006  16.215   6.529  0.00  0.00     0.074 A 
HETATM    2  C   UNK N   1      21.744  15.047   6.295  0.00  0.00     0.035 A 
HETATM    3  C   UNK N   1      22.007  14.144   7.311  0.00  0.00     0.032 A 
HETATM    4  C   UNK N   1      21.557  14.377   8.611  0.00  0.00     0.042 A 
HETATM    5  C   UNK N   1      20.828  15.548   8.879  0.00  0.00     0.074 A 
HETATM    6  C   UNK N   1      20.544  16.464   7.851  0.00  0.00     0.145 A 
HETATM    7  F   UNK N   1      19.818  17.569   8.154  0.00  0.00    -0.204 F 
ENDROOT
BRANCH   4   8
HETATM    8  N   UNK N   1      21.815  13.388   9.611  0.00  0.00    -0.291 N 
HETATM    9  C   UNK N   1      23.121  12.836   9.832  0.00  0.00     0.169 A 
HETATM   10  C   UNK N   1      22.861  11.779  10.935  0.00  0.00     0.175 A 
HETATM   11  O   UNK N   1      21.515  11.911  11.246  0.00  0.00    -0.294 OA
HETATM   12  C   UNK N   1      20.944  12.821  10.450  0.00  0.00     0.368 A 
HETATM   13  O   UNK N   1      19.757  13.096  10.497  0.00  0.00    -0.238 OA
BRANCH  10  14
HETATM   14  C   UNK N   1      23.738  12.067  12.141  0.00  0.00     0.198 C 
BRANCH  14  15
HETATM   15  O   UNK N   1      25.032  12.378  11.717  0.00  0.00    -0.398 OA
HETATM   16  H   UNK N   1      25.502  11.834  11.066  0.00  0.00     0.209 HD
ENDBRANCH  14  15
ENDBRANCH  10  14
ENDBRANCH   4   8
BRANCH   1  17
HETATM   17  N   UNK N   1      20.744  17.094   5.421  0.00  0.00    -0.338 N 
HETATM   18  C   UNK N   1      21.482  18.345   5.347  0.00  0.00     0.151 A 
HETATM   19  C   UNK N   1      21.173  19.243   4.155  0.00  0.00     0.162 A 
HETATM   20  N   UNK N   1      20.200  18.720   3.225  0.00  0.00    -0.330 N 
HETATM   21  C   UNK N   1      19.868  19.510   2.074  0.00  0.00     0.171 C 
HETATM   22  N   UNK N   1      19.575  17.506   3.404  0.00  0.00    -0.298 N 
HETATM   23  C   UNK N   1      19.809  16.742   4.411  0.00  0.00     0.200 A 
ATOM     24  HN  UNK N   1      18.897  17.199   2.707  1.00  0.00     0.187 HD
ENDBRANCH   1  17
TORSDOF 4
ENDMDL
MODEL 2
REMARK VINA RESULT:      -6.9      7.607     10.058
REMARK  4 active torsions:
REMARK  status: ('A' for Active; 'I' for Inactive)
REMARK    1  A    between atoms: N_5  and  C_9 
REMARK    2  A    between atoms: C_12  and  N_16 
REMARK    3  A    between atoms: C_18  and  C_22 
REMARK    4  A    between atoms: C_22  and  O_23 
ROOT
HETATM    1  C   UNK N   1      27.588  18.561   5.936  0.00  0.00     0.074 A 
HETATM    2  C   UNK N   1      26.799  17.586   5.311  0.00  0.00     0.035 A 
HETATM    3  C   UNK N   1      25.645  17.923   4.625  0.00  0.00     0.032 A 
HETATM    4  C   UNK N   1      25.218  19.250   4.547  0.00  0.00     0.042 A 
HETATM    5  C   UNK N   1      25.981  20.247   5.178  0.00  0.00     0.074 A 
HETATM    6  C   UNK N   1      27.162  19.917   5.865  0.00  0.00     0.145 A 
HETATM    7  F   UNK N   1      27.877  20.918   6.438  0.00  0.00    -0.204 F 
ENDROOT
BRANCH   4   8
HETATM    8  N   UNK N   1      24.045  19.547   3.785  0.00  0.00    -0.291 N 
HETATM    9  C   UNK N   1      22.787  18.899   4.021  0.00  0.00     0.169 A 
HETATM   10  C   UNK N   1      21.884  19.495   2.911  0.00  0.00     0.175 A 
HETATM   11  O   UNK N   1      22.684  20.425   2.262  0.00  0.00    -0.294 OA
HETATM   12  C   UNK N   1      23.920  20.407   2.771  0.00  0.00     0.368 A 
HETATM   13  O   UNK N   1      24.825  21.106   2.348  0.00  0.00    -0.238 OA
BRANCH  10  14
HETATM   14  C   UNK N   1      20.667  20.154   3.537  0.00  0.00     0.198 C 
BRANCH  14  15
HETATM   15  O   UNK N   1      20.623  21.502   3.172  0.00  0.00    -0.398 OA
HETATM   16  H   UNK N   1      19.839  21.893   2.755  0.00  0.00     0.209 HD
ENDBRANCH  14  15
ENDBRANCH  10  14
ENDBRANCH   4   8
BRANCH   1  17
HETATM   17  N   UNK N   1      28.791  18.145   6.605  0.00  0.00    -0.338 N 
HETATM   18  C   UNK N   1      28.909  18.406   8.031  0.00  0.00     0.151 A 
HETATM   19  C   UNK N   1      30.200  17.945   8.698  0.00  0.00     0.162 A 
HETATM   20  N   UNK N   1      31.138  17.274   7.829  0.00  0.00    -0.330 N 
HETATM   21  C   UNK N   1      32.371  16.805   8.393  0.00  0.00     0.171 C 
HETATM   22  N   UNK N   1      30.901  17.077   6.486  0.00  0.00    -0.298 N 
HETATM   23  C   UNK N   1      29.827  17.473   5.901  0.00  0.00     0.200 A 
ATOM     24  HN  UNK N   1      31.609  16.597   5.931  1.00  0.00     0.187 HD
ENDBRANCH   1  17
TORSDOF 4
ENDMDL
MODEL 3
REMARK VINA RESULT:      -6.9      9.775     10.749
REMARK  4 active torsions:
REMARK  status: ('A' for Active; 'I' for Inactive)
REMARK    1  A    between atoms: N_5  and  C_9 
REMARK    2  A    between atoms: C_12  and  N_16 
REMARK    3  A    between atoms: C_18  and  C_22 
REMARK    4  A    between atoms: C_22  and  O_23 
ROOT
HETATM    1  C   UNK N   1      29.729  17.483   6.692  0.00  0.00     0.074 A 
HETATM    2  C   UNK N   1      29.869  17.866   8.033  0.00  0.00     0.035 A 
HETATM    3  C   UNK N   1      31.076  17.733   8.698  0.00  0.00     0.032 A 
HETATM    4  C   UNK N   1      32.193  17.196   8.057  0.00  0.00     0.042 A 
HETATM    5  C   UNK N   1      32.077  16.788   6.717  0.00  0.00     0.074 A 
HETATM    6  C   UNK N   1      30.860  16.932   6.029  0.00  0.00     0.145 A 
HETATM    7  F   UNK N   1      30.804  16.545   4.730  0.00  0.00    -0.204 F 
ENDROOT
BRANCH   4   8
HETATM    8  N   UNK N   1      33.427  17.126   8.777  0.00  0.00    -0.291 N 
HETATM    9  C   UNK N   1      33.695  16.109   9.752  0.00  0.00     0.169 A 
HETATM   10  C   UNK N   1      35.093  16.511  10.287  0.00  0.00     0.175 A 
HETATM   11  O   UNK N   1      35.462  17.612   9.527  0.00  0.00    -0.294 OA
HETATM   12  C   UNK N   1      34.474  17.951   8.694  0.00  0.00     0.368 A 
HETATM   13  O   UNK N   1      34.535  18.910   7.943  0.00  0.00    -0.238 OA
BRANCH  10  14
HETATM   14  C   UNK N   1      36.066  15.360  10.102  0.00  0.00     0.198 C 
BRANCH  14  15
HETATM   15  O   UNK N   1      37.289  15.678  10.698  0.00  0.00    -0.398 OA
HETATM   16  H   UNK N   1      37.946  14.997  10.911  0.00  0.00     0.209 HD
ENDBRANCH  14  15
ENDBRANCH  10  14
ENDBRANCH   4   8
BRANCH   1  17
HETATM   17  N   UNK N   1      28.455  17.677   6.054  0.00  0.00    -0.338 N 
HETATM   18  C   UNK N   1      28.341  18.728   5.055  0.00  0.00     0.151 A 
HETATM   19  C   UNK N   1      26.973  18.896   4.403  0.00  0.00     0.162 A 
HETATM   20  N   UNK N   1      25.963  17.961   4.840  0.00  0.00    -0.330 N 
HETATM   21  C   UNK N   1      24.654  18.056   4.260  0.00  0.00     0.171 C 
HETATM   22  N   UNK N   1      26.202  16.996   5.793  0.00  0.00    -0.298 N 
HETATM   23  C   UNK N   1      27.343  16.850   6.367  0.00  0.00     0.200 A 
ATOM     24  HN  UNK N   1      25.442  16.370   6.055  1.00  0.00     0.187 HD
ENDBRANCH   1  17
TORSDOF 4
ENDMDL
MODEL 4
REMARK VINA RESULT:      -6.8      8.908      9.782
REMARK  4 active torsions:
REMARK  status: ('A' for Active; 'I' for Inactive)
REMARK    1  A    between atoms: N_5  and  C_9 
REMARK    2  A    between atoms: C_12  and  N_16 
REMARK    3  A    between atoms: C_18  and  C_22 
REMARK    4  A    between atoms: C_22  and  O_23 
ROOT
HETATM    1  C   UNK N   1      29.103  17.790   6.931  0.00  0.00     0.074 A 
HETATM    2  C   UNK N   1      30.094  17.155   6.170  0.00  0.00     0.035 A 
HETATM    3  C   UNK N   1      31.276  16.720   6.745  0.00  0.00     0.032 A 
HETATM    4  C   UNK N   1      31.527  16.915   8.104  0.00  0.00     0.042 A 
HETATM    5  C   UNK N   1      30.558  17.563   8.888  0.00  0.00     0.074 A 
HETATM    6  C   UNK N   1      29.348  17.996   8.316  0.00  0.00     0.145 A 
HETATM    7  F   UNK N   1      28.434  18.596   9.119  0.00  0.00    -0.204 F 
ENDROOT
BRANCH   4   8
HETATM    8  N   UNK N   1      32.744  16.404   8.654  0.00  0.00    -0.291 N 
HETATM    9  C   UNK N   1      33.902  17.224   8.863  0.00  0.00     0.169 A 
HETATM   10  C   UNK N   1      34.948  16.207   9.388  0.00  0.00     0.175 A 
HETATM   11  O   UNK N   1      34.261  15.006   9.483  0.00  0.00    -0.294 OA
HETATM   12  C   UNK N   1      33.012  15.149   9.029  0.00  0.00     0.368 A 
HETATM   13  O   UNK N   1      32.214  14.230   8.971  0.00  0.00    -0.238 OA
BRANCH  10  14
HETATM   14  C   UNK N   1      35.467  16.656  10.742  0.00  0.00     0.198 C 
BRANCH  14  15
HETATM   15  O   UNK N   1      36.781  16.215  10.912  0.00  0.00    -0.398 OA
HETATM   16  H   UNK N   1      37.541  16.763  10.660  0.00  0.00     0.209 HD
ENDBRANCH  14  15
ENDBRANCH  10  14
ENDBRANCH   4   8
BRANCH   1  17
HETATM   17  N   UNK N   1      27.886  18.188   6.276  0.00  0.00    -0.338 N 
HETATM   18  C   UNK N   1      27.683  19.602   6.005  0.00  0.00     0.151 A 
HETATM   19  C   UNK N   1      26.381  19.977   5.308  0.00  0.00     0.162 A 
HETATM   20  N   UNK N   1      25.519  18.868   4.973  0.00  0.00    -0.330 N 
HETATM   21  C   UNK N   1      24.280  19.149   4.306  0.00  0.00     0.171 C 
HETATM   22  N   UNK N   1      25.833  17.562   5.276  0.00  0.00    -0.298 N 
HETATM   23  C   UNK N   1      26.918  17.227   5.879  0.00  0.00     0.200 A 
ATOM     24  HN  UNK N   1      25.177  16.828   5.011  1.00  0.00     0.187 HD
ENDBRANCH   1  17
TORSDOF 4
ENDMDL
MODEL 5
REMARK VINA RESULT:      -6.6     14.689     17.793
REMARK  4 active torsions:
REMARK  status: ('A' for Active; 'I' for Inactive)
REMARK    1  A    between atoms: N_5  and  C_9 
REMARK    2  A    between atoms: C_12  and  N_16 
REMARK    3  A    between atoms: C_18  and  C_22 
REMARK    4  A    between atoms: C_22  and  O_23 
ROOT
HETATM    1  C   UNK N   1      35.727  12.698  15.327  0.00  0.00     0.074 A 
HETATM    2  C   UNK N   1      34.937  12.156  14.304  0.00  0.00     0.035 A 
HETATM    3  C   UNK N   1      34.880  12.741  13.050  0.00  0.00     0.032 A 
HETATM    4  C   UNK N   1      35.599  13.904  12.768  0.00  0.00     0.042 A 
HETATM    5  C   UNK N   1      36.387  14.478  13.780  0.00  0.00     0.074 A 
HETATM    6  C   UNK N   1      36.462  13.884  15.052  0.00  0.00     0.145 A 
HETATM    7  F   UNK N   1      37.255  14.464  15.988  0.00  0.00    -0.204 F 
ENDROOT
BRANCH   4   8
HETATM    8  N   UNK N   1      35.541  14.438  11.443  0.00  0.00    -0.291 N 
HETATM    9  C   UNK N   1      34.411  15.176  10.956  0.00  0.00     0.169 A 
HETATM   10  C   UNK N   1      34.797  15.455   9.481  0.00  0.00     0.175 A 
HETATM   11  O   UNK N   1      36.075  14.934   9.342  0.00  0.00    -0.294 OA
HETATM   12  C   UNK N   1      36.457  14.336  10.475  0.00  0.00     0.368 A 
HETATM   13  O   UNK N   1      37.527  13.765  10.600  0.00  0.00    -0.238 OA
BRANCH  10  14
HETATM   14  C   UNK N   1      34.779  16.951   9.219  0.00  0.00     0.198 C 
BRANCH  14  15
HETATM   15  O   UNK N   1      35.517  17.610  10.205  0.00  0.00    -0.398 OA
HETATM   16  H   UNK N   1      36.324  17.225  10.583  0.00  0.00     0.209 HD
ENDBRANCH  14  15
ENDBRANCH  10  14
ENDBRANCH   4   8
BRANCH   1  17
HETATM   17  N   UNK N   1      35.764  12.023  16.596  0.00  0.00    -0.338 N 
HETATM   18  C   UNK N   1      36.398  10.715  16.659  0.00  0.00     0.151 A 
HETATM   19  C   UNK N   1      36.416  10.038  18.025  0.00  0.00     0.162 A 
HETATM   20  N   UNK N   1      35.824  10.800  19.099  0.00  0.00    -0.330 N 
HETATM   21  C   UNK N   1      35.816  10.226  20.414  0.00  0.00     0.171 C 
HETATM   22  N   UNK N   1      35.262  12.043  18.910  0.00  0.00    -0.298 N 
HETATM   23  C   UNK N   1      35.222  12.624  17.763  0.00  0.00     0.200 A 
ATOM     24  HN  UNK N   1      34.860  12.525  19.714  1.00  0.00     0.187 HD
ENDBRANCH   1  17
TORSDOF 4
ENDMDL
MODEL 6
REMARK VINA RESULT:      -6.6      9.200     11.451
REMARK  4 active torsions:
REMARK  status: ('A' for Active; 'I' for Inactive)
REMARK    1  A    between atoms: N_5  and  C_9 
REMARK    2  A    between atoms: C_12  and  N_16 
REMARK    3  A    between atoms: C_18  and  C_22 
REMARK    4  A    between atoms: C_22  and  O_23 
ROOT
HETATM    1  C   UNK N   1      30.589  17.489   7.715  0.00  0.00     0.074 A 
HETATM    2  C   UNK N   1      30.400  17.151   6.368  0.00  0.00     0.035 A 
HETATM    3  C   UNK N   1      29.283  17.576   5.668  0.00  0.00     0.032 A 
HETATM    4  C   UNK N   1      28.297  18.344   6.289  0.00  0.00     0.042 A 
HETATM    5  C   UNK N   1      28.453  18.685   7.643  0.00  0.00     0.074 A 
HETATM    6  C   UNK N   1      29.590  18.270   8.358  0.00  0.00     0.145 A 
HETATM    7  F   UNK N   1      29.706  18.643   9.658  0.00  0.00    -0.204 F 
ENDROOT
BRANCH   4   8
HETATM    8  N   UNK N   1      27.189  18.795   5.507  0.00  0.00    -0.291 N 
HETATM    9  C   UNK N   1      27.093  20.135   5.003  0.00  0.00     0.169 A 
HETATM   10  C   UNK N   1      25.708  20.140   4.309  0.00  0.00     0.175 A 
HETATM   11  O   UNK N   1      25.244  18.838   4.430  0.00  0.00    -0.294 OA
HETATM   12  C   UNK N   1      26.103  18.105   5.144  0.00  0.00     0.368 A 
HETATM   13  O   UNK N   1      25.908  16.935   5.425  0.00  0.00    -0.238 OA
BRANCH  10  14
HETATM   14  C   UNK N   1      25.864  20.538   2.852  0.00  0.00     0.198 C 
BRANCH  14  15
HETATM   15  O   UNK N   1      24.628  20.939   2.339  0.00  0.00    -0.398 OA
HETATM   16  H   UNK N   1      24.411  21.874   2.200  0.00  0.00     0.209 HD
ENDBRANCH  14  15
ENDBRANCH  10  14
ENDBRANCH   4   8
BRANCH   1  17
HETATM   17  N   UNK N   1      31.787  17.041   8.372  0.00  0.00    -0.338 N 
HETATM   18  C   UNK N   1      31.855  15.654   8.803  0.00  0.00     0.151 A 
HETATM   19  C   UNK N   1      33.145  15.222   9.493  0.00  0.00     0.162 A 
HETATM   20  N   UNK N   1      34.157  16.246   9.604  0.00  0.00    -0.330 N 
HETATM   21  C   UNK N   1      35.400  15.906  10.234  0.00  0.00     0.171 C 
HETATM   22  N   UNK N   1      33.972  17.531   9.141  0.00  0.00    -0.298 N 
HETATM   23  C   UNK N   1      32.887  17.918   8.572  0.00  0.00     0.200 A 
ATOM     24  HN  UNK N   1      34.730  18.203   9.254  1.00  0.00     0.187 HD
ENDBRANCH   1  17
TORSDOF 4
ENDMDL
MODEL 7
REMARK VINA RESULT:      -6.6     10.952     12.019
REMARK  4 active torsions:
REMARK  status: ('A' for Active; 'I' for Inactive)
REMARK    1  A    between atoms: N_5  and  C_9 
REMARK    2  A    between atoms: C_12  and  N_16 
REMARK    3  A    between atoms: C_18  and  C_22 
REMARK    4  A    between atoms: C_22  and  O_23 
ROOT
HETATM    1  C   UNK N   1      31.514  16.984   6.857  0.00  0.00     0.074 A 
HETATM    2  C   UNK N   1      31.366  16.293   8.068  0.00  0.00     0.035 A 
HETATM    3  C   UNK N   1      32.466  15.888   8.805  0.00  0.00     0.032 A 
HETATM    4  C   UNK N   1      33.763  16.141   8.357  0.00  0.00     0.042 A 
HETATM    5  C   UNK N   1      33.941  16.819   7.139  0.00  0.00     0.074 A 
HETATM    6  C   UNK N   1      32.831  17.246   6.390  0.00  0.00     0.145 A 
HETATM    7  F   UNK N   1      33.055  17.916   5.231  0.00  0.00    -0.204 F 
ENDROOT
BRANCH   4   8
HETATM    8  N   UNK N   1      34.861  15.743   9.182  0.00  0.00    -0.291 N 
HETATM    9  C   UNK N   1      35.342  14.392   9.228  0.00  0.00     0.169 A 
HETATM   10  C   UNK N   1      36.457  14.465  10.302  0.00  0.00     0.175 A 
HETATM   11  O   UNK N   1      36.522  15.804  10.659  0.00  0.00    -0.294 OA
HETATM   12  C   UNK N   1      35.576  16.499  10.019  0.00  0.00     0.368 A 
HETATM   13  O   UNK N   1      35.398  17.694  10.188  0.00  0.00    -0.238 OA
BRANCH  10  14
HETATM   14  C   UNK N   1      37.772  13.986   9.711  0.00  0.00     0.198 C 
BRANCH  14  15
HETATM   15  O   UNK N   1      38.768  14.936   9.951  0.00  0.00    -0.398 OA
HETATM   16  H   UNK N   1      39.027  15.189  10.851  0.00  0.00     0.209 HD
ENDBRANCH  14  15
ENDBRANCH  10  14
ENDBRANCH   4   8
BRANCH   1  17
HETATM   17  N   UNK N   1      30.329  17.403   6.158  0.00  0.00    -0.338 N 
HETATM   18  C   UNK N   1      29.198  17.870   6.943  0.00  0.00     0.151 A 
HETATM   19  C   UNK N   1      27.965  18.306   6.159  0.00  0.00     0.162 A 
HETATM   20  N   UNK N   1      28.088  18.229   4.722  0.00  0.00    -0.330 N 
HETATM   21  C   UNK N   1      26.968  18.633   3.922  0.00  0.00     0.171 C 
HETATM   22  N   UNK N   1      29.228  17.775   4.095  0.00  0.00    -0.298 N 
HETATM   23  C   UNK N   1      30.271  17.387   4.738  0.00  0.00     0.200 A 
ATOM     24  HN  UNK N   1      29.245  17.745   3.076  1.00  0.00     0.187 HD
ENDBRANCH   1  17
TORSDOF 4
ENDMDL
MODEL 8
REMARK VINA RESULT:      -6.4      4.398      8.441
REMARK  4 active torsions:
REMARK  status: ('A' for Active; 'I' for Inactive)
REMARK    1  A    between atoms: N_5  and  C_9 
REMARK    2  A    between atoms: C_12  and  N_16 
REMARK    3  A    between atoms: C_18  and  C_22 
REMARK    4  A    between atoms: C_22  and  O_23 
ROOT
HETATM    1  C   UNK N   1      21.132  15.234   6.679  0.00  0.00     0.074 A 
HETATM    2  C   UNK N   1      19.876  15.367   6.073  0.00  0.00     0.035 A 
HETATM    3  C   UNK N   1      19.699  16.150   4.944  0.00  0.00     0.032 A 
HETATM    4  C   UNK N   1      20.768  16.849   4.382  0.00  0.00     0.042 A 
HETATM    5  C   UNK N   1      22.036  16.747   4.978  0.00  0.00     0.074 A 
HETATM    6  C   UNK N   1      22.229  15.943   6.115  0.00  0.00     0.145 A 
HETATM    7  F   UNK N   1      23.476  15.859   6.641  0.00  0.00    -0.204 F 
ENDROOT
BRANCH   4   8
HETATM    8  N   UNK N   1      20.538  17.603   3.189  0.00  0.00    -0.291 N 
HETATM    9  C   UNK N   1      20.280  19.014   3.206  0.00  0.00     0.169 A 
HETATM   10  C   UNK N   1      20.026  19.331   1.710  0.00  0.00     0.175 A 
HETATM   11  O   UNK N   1      20.239  18.130   1.050  0.00  0.00    -0.294 OA
HETATM   12  C   UNK N   1      20.502  17.159   1.929  0.00  0.00     0.368 A 
HETATM   13  O   UNK N   1      20.691  15.999   1.605  0.00  0.00    -0.238 OA
BRANCH  10  14
HETATM   14  C   UNK N   1      20.996  20.401   1.239  0.00  0.00     0.198 C 
BRANCH  14  15
HETATM   15  O   UNK N   1      20.714  20.738  -0.087  0.00  0.00    -0.398 OA
HETATM   16  H   UNK N   1      20.761  20.084  -0.803  0.00  0.00     0.209 HD
ENDBRANCH  14  15
ENDBRANCH  10  14
ENDBRANCH   4   8
BRANCH   1  17
HETATM   17  N   UNK N   1      21.251  14.380   7.830  0.00  0.00    -0.338 N 
HETATM   18  C   UNK N   1      22.083  13.193   7.721  0.00  0.00     0.151 A 
HETATM   19  C   UNK N   1      22.182  12.319   8.966  0.00  0.00     0.162 A 
HETATM   20  N   UNK N   1      21.456  12.802  10.117  0.00  0.00    -0.330 N 
HETATM   21  C   UNK N   1      21.513  12.033  11.328  0.00  0.00     0.171 C 
HETATM   22  N   UNK N   1      20.707  13.958  10.096  0.00  0.00    -0.298 N 
HETATM   23  C   UNK N   1      20.597  14.699   9.051  0.00  0.00     0.200 A 
ATOM     24  HN  UNK N   1      20.218  14.239  10.945  1.00  0.00     0.187 HD
ENDBRANCH   1  17
TORSDOF 4
ENDMDL
MODEL 9
REMARK VINA RESULT:      -6.4      7.299      8.517
REMARK  4 active torsions:
REMARK  status: ('A' for Active; 'I' for Inactive)
REMARK    1  A    between atoms: N_5  and  C_9 
REMARK    2  A    between atoms: C_12  and  N_16 
REMARK    3  A    between atoms: C_18  and  C_22 
REMARK    4  A    between atoms: C_22  and  O_23 
ROOT
HETATM    1  C   UNK N   1      26.109  18.866   4.232  0.00  0.00     0.074 A 
HETATM    2  C   UNK N   1      26.607  17.625   3.813  0.00  0.00     0.035 A 
HETATM    3  C   UNK N   1      27.886  17.211   4.146  0.00  0.00     0.032 A 
HETATM    4  C   UNK N   1      28.730  18.028   4.900  0.00  0.00     0.042 A 
HETATM    5  C   UNK N   1      28.263  19.285   5.320  0.00  0.00     0.074 A 
HETATM    6  C   UNK N   1      26.961  19.708   4.998  0.00  0.00     0.145 A 
HETATM    7  F   UNK N   1      26.548  20.920   5.446  0.00  0.00    -0.204 F 
ENDROOT
BRANCH   4   8
HETATM    8  N   UNK N   1      30.022  17.531   5.256  0.00  0.00    -0.291 N 
HETATM    9  C   UNK N   1      31.035  17.244   4.281  0.00  0.00     0.169 A 
HETATM   10  C   UNK N   1      32.187  16.670   5.145  0.00  0.00     0.175 A 
HETATM   11  O   UNK N   1      31.735  16.771   6.453  0.00  0.00    -0.294 OA
HETATM   12  C   UNK N   1      30.484  17.241   6.476  0.00  0.00     0.368 A 
HETATM   13  O   UNK N   1      29.846  17.389   7.504  0.00  0.00    -0.238 OA
BRANCH  10  14
HETATM   14  C   UNK N   1      33.448  17.488   4.930  0.00  0.00     0.198 C 
BRANCH  14  15
HETATM   15  O   UNK N   1      33.988  17.851   6.166  0.00  0.00    -0.398 OA
HETATM   16  H   UNK N   1      33.433  18.175   6.892  0.00  0.00     0.209 HD
ENDBRANCH  14  15
ENDBRANCH  10  14
ENDBRANCH   4   8
BRANCH   1  17
HETATM   17  N   UNK N   1      24.761  19.219   3.876  0.00  0.00    -0.338 N 
HETATM   18  C   UNK N   1      23.675  18.424   4.425  0.00  0.00     0.151 A 
HETATM   19  C   UNK N   1      22.264  18.836   4.023  0.00  0.00     0.162 A 
HETATM   20  N   UNK N   1      22.181  19.995   3.165  0.00  0.00    -0.330 N 
HETATM   21  C   UNK N   1      20.881  20.445   2.755  0.00  0.00     0.171 C 
HETATM   22  N   UNK N   1      23.294  20.674   2.719  0.00  0.00    -0.298 N 
HETATM   23  C   UNK N   1      24.492  20.331   3.033  0.00  0.00     0.200 A 
ATOM     24  HN  UNK N   1      23.161  21.483   2.114  1.00  0.00     0.187 HD
ENDBRANCH   1  17
TORSDOF 4
ENDMDL
