MODEL 1
REMARK VINA RESULT:      -9.0      0.000      0.000
REMARK  4 active torsions:
REMARK  status: ('A' for Active; 'I' for Inactive)
REMARK    1  A    between atoms: C_24  and  C_13 
REMARK    2  A    between atoms: N_33  and  C_16 
REMARK    3  A    between atoms: C_23  and  C_21 
REMARK    4  A    between atoms: O_36  and  C_24 
REMARK       I    between atoms: N_33  and  C_25 
ROOT
HETATM    1  C   UNK N   1      27.205  15.256   2.421  0.00  0.00     0.025 A 
HETATM    2  C   UNK N   1      27.881  15.828   3.482  0.00  0.00     0.016 A 
HETATM    3  C   UNK N   1      25.369  16.728   2.859  0.00  0.00     0.038 A 
HETATM    4  C   UNK N   1      27.107  19.483   5.829  0.00  0.00     0.162 C 
HETATM    5  C   UNK N   1      28.780  18.547   7.341  0.00  0.00     0.117 A 
HETATM    6  C   UNK N   1      27.960  18.359   6.232  0.00  0.00     0.004 A 
HETATM    7  C   UNK N   1      25.934  15.695   2.122  0.00  0.00     0.035 A 
HETATM    8  C   UNK N   1      27.336  16.875   4.255  0.00  0.00     0.004 A 
HETATM    9  C   UNK N   1      26.035  17.389   3.907  0.00  0.00     0.005 A 
HETATM   10  C   UNK N   1      28.146  17.219   5.445  0.00  0.00     0.069 A 
HETATM   11  C   UNK N   1      25.228  18.448   4.662  0.00  0.00     0.056 C 
HETATM   12  C   UNK N   1      29.942  16.549   6.851  0.00  0.00     0.683 A 
HETATM   13 Cl   UNK N   1      25.026  14.933   0.838  0.00  0.00    -0.084 Cl
HETATM   14  N   UNK N   1      25.724  19.231   5.561  0.00  0.00    -0.384 N 
ATOM     15  HN  UNK N   1      25.052  19.727   6.148  1.00  0.00     0.160 HD
HETATM   16  N   UNK N   1      29.744  17.647   7.633  0.00  0.00    -0.201 N 
ATOM     17  HN  UNK N   1      30.333  17.792   8.454  1.00  0.00     0.183 HD
HETATM   18  N   UNK N   1      31.042  15.687   7.092  0.00  0.00    -0.192 N 
HETATM   19  N   UNK N   1      29.143  16.350   5.783  0.00  0.00    -0.190 N 
ATOM     20  HN  UNK N   1      29.289  15.521   5.207  1.00  0.00     0.184 HD
HETATM   21  H   UNK N   1      31.171  14.866   6.563  0.00  0.00     0.184 HD
ENDROOT
BRANCH  18  22
HETATM   22  C   UNK N   1      31.942  16.048   8.111  0.00  0.00     0.049 A 
HETATM   23  C   UNK N   1      32.241  15.111   9.104  0.00  0.00     0.031 A 
HETATM   24  C   UNK N   1      33.401  15.253   9.866  0.00  0.00     0.020 A 
HETATM   25  C   UNK N   1      34.277  16.320   9.618  0.00  0.00     0.037 A 
HETATM   26  C   UNK N   1      33.943  17.284   8.661  0.00  0.00     0.020 A 
HETATM   27  C   UNK N   1      32.788  17.140   7.903  0.00  0.00     0.031 A 
BRANCH  25  28
HETATM   28  C   UNK N   1      35.585  16.377  10.285  0.00  0.00     0.176 C 
HETATM   29  O   UNK N   1      36.072  17.455  10.589  0.00  0.00    -0.646 OA
BRANCH  28  30
HETATM   30  O   UNK N   1      36.290  15.248  10.491  0.00  0.00    -0.773 OA
HETATM   31  H   UNK N   1      37.052  14.735  10.304  0.00  0.00     0.167 HD
ENDBRANCH  28  30
ENDBRANCH  25  28
ENDBRANCH  18  22
BRANCH  11  32
HETATM   32  C   UNK N   1      23.774  18.705   4.330  0.00  0.00     0.068 A 
HETATM   33  C   UNK N   1      22.761  18.034   5.057  0.00  0.00     0.132 A 
HETATM   34  C   UNK N   1      21.412  18.274   4.785  0.00  0.00     0.043 A 
HETATM   35  F   UNK N   1      23.076  17.131   6.020  0.00  0.00    -0.205 F 
HETATM   36  C   UNK N   1      21.040  19.195   3.808  0.00  0.00     0.006 A 
HETATM   37  C   UNK N   1      22.017  19.906   3.121  0.00  0.00     0.043 A 
HETATM   38  C   UNK N   1      23.371  19.678   3.372  0.00  0.00     0.132 A 
HETATM   39  F   UNK N   1      24.261  20.488   2.750  0.00  0.00    -0.205 F 
ENDBRANCH  11  32
TORSDOF 4
ENDMDL
MODEL 2
REMARK VINA RESULT:      -8.9      1.876      2.503
REMARK  4 active torsions:
REMARK  status: ('A' for Active; 'I' for Inactive)
REMARK    1  A    between atoms: C_24  and  C_13 
REMARK    2  A    between atoms: N_33  and  C_16 
REMARK    3  A    between atoms: C_23  and  C_21 
REMARK    4  A    between atoms: O_36  and  C_24 
REMARK       I    between atoms: N_33  and  C_25 
ROOT
HETATM    1  C   UNK N   1      25.894  14.245   1.892  0.00  0.00     0.025 A 
HETATM    2  C   UNK N   1      26.576  15.137   2.698  0.00  0.00     0.016 A 
HETATM    3  C   UNK N   1      23.836  15.151   2.711  0.00  0.00     0.038 A 
HETATM    4  C   UNK N   1      25.227  18.691   4.938  0.00  0.00     0.162 C 
HETATM    5  C   UNK N   1      27.417  18.521   6.005  0.00  0.00     0.117 A 
HETATM    6  C   UNK N   1      26.468  17.941   5.168  0.00  0.00     0.004 A 
HETATM    7  C   UNK N   1      24.517  14.239   1.915  0.00  0.00     0.035 A 
HETATM    8  C   UNK N   1      25.916  16.073   3.522  0.00  0.00     0.004 A 
HETATM    9  C   UNK N   1      24.476  16.122   3.502  0.00  0.00     0.005 A 
HETATM   10  C   UNK N   1      26.824  16.808   4.431  0.00  0.00     0.069 A 
HETATM   11  C   UNK N   1      23.568  16.989   4.379  0.00  0.00     0.056 C 
HETATM   12  C   UNK N   1      29.016  16.911   5.347  0.00  0.00     0.683 A 
HETATM   13 Cl   UNK N   1      23.633  13.067   0.968  0.00  0.00    -0.084 Cl
HETATM   14  N   UNK N   1      23.978  18.004   5.064  0.00  0.00    -0.384 N 
ATOM     15  HN  UNK N   1      23.338  18.355   5.776  1.00  0.00     0.160 HD
HETATM   16  N   UNK N   1      28.660  18.000   6.085  0.00  0.00    -0.201 N 
ATOM     17  HN  UNK N   1      29.344  18.429   6.709  1.00  0.00     0.183 HD
HETATM   18  N   UNK N   1      30.360  16.458   5.338  0.00  0.00    -0.192 N 
HETATM   19  N   UNK N   1      28.099  16.333   4.543  0.00  0.00    -0.190 N 
ATOM     20  HN  UNK N   1      28.367  15.512   4.001  1.00  0.00     0.184 HD
HETATM   21  H   UNK N   1      30.621  15.647   4.846  0.00  0.00     0.184 HD
ENDROOT
BRANCH  18  22
HETATM   22  C   UNK N   1      31.306  17.212   6.058  0.00  0.00     0.049 A 
HETATM   23  C   UNK N   1      31.090  17.434   7.420  0.00  0.00     0.031 A 
HETATM   24  C   UNK N   1      32.158  17.792   8.244  0.00  0.00     0.020 A 
HETATM   25  C   UNK N   1      33.449  17.905   7.707  0.00  0.00     0.037 A 
HETATM   26  C   UNK N   1      33.647  17.737   6.333  0.00  0.00     0.020 A 
HETATM   27  C   UNK N   1      32.583  17.378   5.515  0.00  0.00     0.031 A 
BRANCH  25  28
HETATM   28  C   UNK N   1      34.606  18.101   8.592  0.00  0.00     0.176 C 
HETATM   29  O   UNK N   1      34.877  17.267   9.442  0.00  0.00    -0.646 OA
BRANCH  28  30
HETATM   30  O   UNK N   1      35.326  19.237   8.524  0.00  0.00    -0.773 OA
HETATM   31  H   UNK N   1      35.831  19.892   8.965  0.00  0.00     0.167 HD
ENDBRANCH  28  30
ENDBRANCH  25  28
ENDBRANCH  18  22
BRANCH  11  32
HETATM   32  C   UNK N   1      22.074  16.751   4.430  0.00  0.00     0.068 A 
HETATM   33  C   UNK N   1      21.538  15.875   5.405  0.00  0.00     0.132 A 
HETATM   34  C   UNK N   1      20.160  15.660   5.487  0.00  0.00     0.043 A 
HETATM   35  F   UNK N   1      22.350  15.214   6.268  0.00  0.00    -0.205 F 
HETATM   36  C   UNK N   1      19.289  16.321   4.625  0.00  0.00     0.006 A 
HETATM   37  C   UNK N   1      19.788  17.228   3.697  0.00  0.00     0.043 A 
HETATM   38  C   UNK N   1      21.161  17.453   3.593  0.00  0.00     0.132 A 
HETATM   39  F   UNK N   1      21.566  18.433   2.749  0.00  0.00    -0.205 F 
ENDBRANCH  11  32
TORSDOF 4
ENDMDL
MODEL 3
REMARK VINA RESULT:      -8.4      7.023     10.159
REMARK  4 active torsions:
REMARK  status: ('A' for Active; 'I' for Inactive)
REMARK    1  A    between atoms: C_24  and  C_13 
REMARK    2  A    between atoms: N_33  and  C_16 
REMARK    3  A    between atoms: C_23  and  C_21 
REMARK    4  A    between atoms: O_36  and  C_24 
REMARK       I    between atoms: N_33  and  C_25 
ROOT
HETATM    1  C   UNK N   1      33.758  10.695   8.224  0.00  0.00     0.025 A 
HETATM    2  C   UNK N   1      34.240  11.281   9.379  0.00  0.00     0.016 A 
HETATM    3  C   UNK N   1      33.609  12.870   7.238  0.00  0.00     0.038 A 
HETATM    4  C   UNK N   1      35.716  15.356  10.206  0.00  0.00     0.162 C 
HETATM    5  C   UNK N   1      35.536  14.661  12.540  0.00  0.00     0.117 A 
HETATM    6  C   UNK N   1      35.266  14.378  11.204  0.00  0.00     0.004 A 
HETATM    7  C   UNK N   1      33.422  11.497   7.155  0.00  0.00     0.035 A 
HETATM    8  C   UNK N   1      34.438  12.673   9.498  0.00  0.00     0.004 A 
HETATM    9  C   UNK N   1      34.155  13.514   8.363  0.00  0.00     0.005 A 
HETATM   10  C   UNK N   1      34.790  13.107  10.869  0.00  0.00     0.069 A 
HETATM   11  C   UNK N   1      34.211  15.043   8.309  0.00  0.00     0.056 C 
HETATM   12  C   UNK N   1      34.913  12.466  13.155  0.00  0.00     0.683 A 
HETATM   13 Cl   UNK N   1      32.733  10.788   5.715  0.00  0.00    -0.084 Cl
HETATM   14  N   UNK N   1      34.794  15.778   9.196  0.00  0.00    -0.384 N 
ATOM     15  HN  UNK N   1      34.571  16.773   9.175  1.00  0.00     0.160 HD
HETATM   16  N   UNK N   1      35.353  13.713  13.484  0.00  0.00    -0.201 N 
ATOM     17  HN  UNK N   1      35.546  13.936  14.461  1.00  0.00     0.183 HD
HETATM   18  N   UNK N   1      34.855  11.444  14.136  0.00  0.00    -0.192 N 
HETATM   19  N   UNK N   1      34.635  12.187  11.865  0.00  0.00    -0.190 N 
ATOM     20  HN  UNK N   1      34.297  11.255  11.625  1.00  0.00     0.184 HD
HETATM   21  H   UNK N   1      34.497  10.552  13.922  0.00  0.00     0.184 HD
ENDROOT
BRANCH  18  22
HETATM   22  C   UNK N   1      35.328  11.751  15.425  0.00  0.00     0.049 A 
HETATM   23  C   UNK N   1      34.832  12.888  16.069  0.00  0.00     0.031 A 
HETATM   24  C   UNK N   1      34.938  13.002  17.456  0.00  0.00     0.020 A 
HETATM   25  C   UNK N   1      35.518  11.967  18.202  0.00  0.00     0.037 A 
HETATM   26  C   UNK N   1      36.062  10.858  17.546  0.00  0.00     0.020 A 
HETATM   27  C   UNK N   1      35.956  10.745  16.166  0.00  0.00     0.031 A 
BRANCH  25  28
HETATM   28  C   UNK N   1      35.469  11.993  19.671  0.00  0.00     0.176 C 
HETATM   29  O   UNK N   1      35.824  11.018  20.315  0.00  0.00    -0.646 OA
BRANCH  28  30
HETATM   30  O   UNK N   1      34.960  13.063  20.313  0.00  0.00    -0.773 OA
HETATM   31  H   UNK N   1      34.854  13.993  20.358  0.00  0.00     0.167 HD
ENDBRANCH  28  30
ENDBRANCH  25  28
ENDBRANCH  18  22
BRANCH  11  32
HETATM   32  C   UNK N   1      33.642  15.804   7.131  0.00  0.00     0.068 A 
HETATM   33  C   UNK N   1      32.393  16.459   7.258  0.00  0.00     0.132 A 
HETATM   34  C   UNK N   1      31.860  17.187   6.192  0.00  0.00     0.043 A 
HETATM   35  F   UNK N   1      31.679  16.379   8.409  0.00  0.00    -0.205 F 
HETATM   36  C   UNK N   1      32.559  17.301   4.993  0.00  0.00     0.006 A 
HETATM   37  C   UNK N   1      33.812  16.713   4.864  0.00  0.00     0.043 A 
HETATM   38  C   UNK N   1      34.361  15.975   5.914  0.00  0.00     0.132 A 
HETATM   39  F   UNK N   1      35.633  15.530   5.760  0.00  0.00    -0.205 F 
ENDBRANCH  11  32
TORSDOF 4
ENDMDL
MODEL 4
REMARK VINA RESULT:      -8.4      6.493     10.694
REMARK  4 active torsions:
REMARK  status: ('A' for Active; 'I' for Inactive)
REMARK    1  A    between atoms: C_24  and  C_13 
REMARK    2  A    between atoms: N_33  and  C_16 
REMARK    3  A    between atoms: C_23  and  C_21 
REMARK    4  A    between atoms: O_36  and  C_24 
REMARK       I    between atoms: N_33  and  C_25 
ROOT
HETATM    1  C   UNK N   1      25.994  20.364   5.034  0.00  0.00     0.025 A 
HETATM    2  C   UNK N   1      25.532  19.226   4.401  0.00  0.00     0.016 A 
HETATM    3  C   UNK N   1      28.136  19.318   5.250  0.00  0.00     0.038 A 
HETATM    4  C   UNK N   1      27.647  15.727   2.740  0.00  0.00     0.162 C 
HETATM    5  C   UNK N   1      25.411  14.752   2.651  0.00  0.00     0.117 A 
HETATM    6  C   UNK N   1      26.223  15.794   3.088  0.00  0.00     0.004 A 
HETATM    7  C   UNK N   1      27.298  20.401   5.478  0.00  0.00     0.035 A 
HETATM    8  C   UNK N   1      26.355  18.105   4.157  0.00  0.00     0.004 A 
HETATM    9  C   UNK N   1      27.738  18.160   4.556  0.00  0.00     0.005 A 
HETATM   10  C   UNK N   1      25.620  16.933   3.631  0.00  0.00     0.069 A 
HETATM   11  C   UNK N   1      28.770  17.033   4.471  0.00  0.00     0.056 C 
HETATM   12  C   UNK N   1      23.478  15.975   3.246  0.00  0.00     0.683 A 
HETATM   13 Cl   UNK N   1      27.882  21.796   6.353  0.00  0.00    -0.084 Cl
HETATM   14  N   UNK N   1      28.615  15.961   3.768  0.00  0.00    -0.384 N 
ATOM     15  HN  UNK N   1      29.256  15.193   3.968  1.00  0.00     0.160 HD
HETATM   16  N   UNK N   1      24.067  14.855   2.740  0.00  0.00    -0.201 N 
ATOM     17  HN  UNK N   1      23.483  14.080   2.424  1.00  0.00     0.183 HD
HETATM   18  N   UNK N   1      22.069  16.124   3.208  0.00  0.00    -0.192 N 
HETATM   19  N   UNK N   1      24.258  16.985   3.685  0.00  0.00    -0.190 N 
ATOM     20  HN  UNK N   1      23.813  17.818   4.072  1.00  0.00     0.184 HD
HETATM   21  H   UNK N   1      21.628  16.908   3.610  0.00  0.00     0.184 HD
ENDROOT
BRANCH  18  22
HETATM   22  C   UNK N   1      21.324  15.113   2.574  0.00  0.00     0.049 A 
HETATM   23  C   UNK N   1      20.367  14.419   3.319  0.00  0.00     0.031 A 
HETATM   24  C   UNK N   1      19.343  13.731   2.666  0.00  0.00     0.020 A 
HETATM   25  C   UNK N   1      19.263  13.757   1.266  0.00  0.00     0.037 A 
HETATM   26  C   UNK N   1      20.256  14.407   0.526  0.00  0.00     0.020 A 
HETATM   27  C   UNK N   1      21.273  15.092   1.177  0.00  0.00     0.031 A 
BRANCH  25  28
HETATM   28  C   UNK N   1      18.093  13.193   0.579  0.00  0.00     0.176 C 
HETATM   29  O   UNK N   1      18.102  12.030   0.206  0.00  0.00    -0.646 OA
BRANCH  28  30
HETATM   30  O   UNK N   1      17.037  13.976   0.286  0.00  0.00    -0.773 OA
HETATM   31  H   UNK N   1      16.522  14.732   0.488  0.00  0.00     0.167 HD
ENDBRANCH  28  30
ENDBRANCH  25  28
ENDBRANCH  18  22
BRANCH  11  32
HETATM   32  C   UNK N   1      30.113  17.148   5.161  0.00  0.00     0.068 A 
HETATM   33  C   UNK N   1      30.197  16.966   6.563  0.00  0.00     0.132 A 
HETATM   34  C   UNK N   1      31.428  17.043   7.217  0.00  0.00     0.043 A 
HETATM   35  F   UNK N   1      29.084  16.728   7.302  0.00  0.00    -0.205 F 
HETATM   36  C   UNK N   1      32.598  17.280   6.499  0.00  0.00     0.006 A 
HETATM   37  C   UNK N   1      32.546  17.408   5.116  0.00  0.00     0.043 A 
HETATM   38  C   UNK N   1      31.326  17.341   4.442  0.00  0.00     0.132 A 
HETATM   39  F   UNK N   1      31.365  17.357   3.087  0.00  0.00    -0.205 F 
ENDBRANCH  11  32
TORSDOF 4
ENDMDL
MODEL 5
REMARK VINA RESULT:      -8.3      3.511      4.954
REMARK  4 active torsions:
REMARK  status: ('A' for Active; 'I' for Inactive)
REMARK    1  A    between atoms: C_24  and  C_13 
REMARK    2  A    between atoms: N_33  and  C_16 
REMARK    3  A    between atoms: C_23  and  C_21 
REMARK    4  A    between atoms: O_36  and  C_24 
REMARK       I    between atoms: N_33  and  C_25 
ROOT
HETATM    1  C   UNK N   1      23.090  19.431   3.887  0.00  0.00     0.025 A 
HETATM    2  C   UNK N   1      24.178  18.649   4.227  0.00  0.00     0.016 A 
HETATM    3  C   UNK N   1      21.890  17.436   3.330  0.00  0.00     0.038 A 
HETATM    4  C   UNK N   1      24.586  14.302   4.863  0.00  0.00     0.162 C 
HETATM    5  C   UNK N   1      26.978  14.784   4.786  0.00  0.00     0.117 A 
HETATM    6  C   UNK N   1      25.678  15.245   4.598  0.00  0.00     0.004 A 
HETATM    7  C   UNK N   1      21.947  18.820   3.417  0.00  0.00     0.035 A 
HETATM    8  C   UNK N   1      24.156  17.241   4.146  0.00  0.00     0.004 A 
HETATM    9  C   UNK N   1      22.943  16.588   3.722  0.00  0.00     0.005 A 
HETATM   10  C   UNK N   1      25.474  16.612   4.385  0.00  0.00     0.069 A 
HETATM   11  C   UNK N   1      22.735  15.091   3.479  0.00  0.00     0.056 C 
HETATM   12  C   UNK N   1      27.813  16.986   4.596  0.00  0.00     0.683 A 
HETATM   13 Cl   UNK N   1      20.588  19.790   2.903  0.00  0.00    -0.084 Cl
HETATM   14  N   UNK N   1      23.542  14.172   3.892  0.00  0.00    -0.384 N 
ATOM     15  HN  UNK N   1      23.422  13.247   3.479  1.00  0.00     0.160 HD
HETATM   16  N   UNK N   1      28.014  15.651   4.777  0.00  0.00    -0.201 N 
ATOM     17  HN  UNK N   1      28.963  15.299   4.908  1.00  0.00     0.183 HD
HETATM   18  N   UNK N   1      28.892  17.898   4.724  0.00  0.00    -0.192 N 
HETATM   19  N   UNK N   1      26.558  17.441   4.398  0.00  0.00    -0.190 N 
ATOM     20  HN  UNK N   1      26.415  18.441   4.252  1.00  0.00     0.184 HD
HETATM   21  H   UNK N   1      28.770  18.859   4.551  0.00  0.00     0.184 HD
ENDROOT
BRANCH  18  22
HETATM   22  C   UNK N   1      30.142  17.378   5.108  0.00  0.00     0.049 A 
HETATM   23  C   UNK N   1      31.189  17.399   4.183  0.00  0.00     0.031 A 
HETATM   24  C   UNK N   1      32.509  17.296   4.626  0.00  0.00     0.020 A 
HETATM   25  C   UNK N   1      32.782  17.196   5.998  0.00  0.00     0.037 A 
HETATM   26  C   UNK N   1      31.726  17.118   6.912  0.00  0.00     0.020 A 
HETATM   27  C   UNK N   1      30.414  17.223   6.470  0.00  0.00     0.031 A 
BRANCH  25  28
HETATM   28  C   UNK N   1      34.166  17.271   6.487  0.00  0.00     0.176 C 
HETATM   29  O   UNK N   1      34.944  16.355   6.270  0.00  0.00    -0.646 OA
BRANCH  28  30
HETATM   30  O   UNK N   1      34.560  18.312   7.245  0.00  0.00    -0.773 OA
HETATM   31  H   UNK N   1      35.192  18.682   7.830  0.00  0.00     0.167 HD
ENDBRANCH  28  30
ENDBRANCH  25  28
ENDBRANCH  18  22
BRANCH  11  32
HETATM   32  C   UNK N   1      21.489  14.577   2.790  0.00  0.00     0.068 A 
HETATM   33  C   UNK N   1      21.508  14.343   1.394  0.00  0.00     0.132 A 
HETATM   34  C   UNK N   1      20.377  13.846   0.741  0.00  0.00     0.043 A 
HETATM   35  F   UNK N   1      22.615  14.611   0.657  0.00  0.00    -0.205 F 
HETATM   36  C   UNK N   1      19.219  13.551   1.457  0.00  0.00     0.006 A 
HETATM   37  C   UNK N   1      19.197  13.721   2.836  0.00  0.00     0.043 A 
HETATM   38  C   UNK N   1      20.312  14.223   3.508  0.00  0.00     0.132 A 
HETATM   39  F   UNK N   1      20.259  14.252   4.862  0.00  0.00    -0.205 F 
ENDBRANCH  11  32
TORSDOF 4
ENDMDL
MODEL 6
REMARK VINA RESULT:      -8.2      8.835     14.904
REMARK  4 active torsions:
REMARK  status: ('A' for Active; 'I' for Inactive)
REMARK    1  A    between atoms: C_24  and  C_13 
REMARK    2  A    between atoms: N_33  and  C_16 
REMARK    3  A    between atoms: C_23  and  C_21 
REMARK    4  A    between atoms: O_36  and  C_24 
REMARK       I    between atoms: N_33  and  C_25 
ROOT
HETATM    1  C   UNK N   1      35.023  13.060  16.581  0.00  0.00     0.025 A 
HETATM    2  C   UNK N   1      35.183  13.224  15.218  0.00  0.00     0.016 A 
HETATM    3  C   UNK N   1      36.281  11.029  16.436  0.00  0.00     0.038 A 
HETATM    4  C   UNK N   1      37.812  11.204  12.306  0.00  0.00     0.162 C 
HETATM    5  C   UNK N   1      36.386  12.303  10.657  0.00  0.00     0.117 A 
HETATM    6  C   UNK N   1      36.605  11.979  11.992  0.00  0.00     0.004 A 
HETATM    7  C   UNK N   1      35.559  11.946  17.189  0.00  0.00     0.035 A 
HETATM    8  C   UNK N   1      35.906  12.310  14.422  0.00  0.00     0.004 A 
HETATM    9  C   UNK N   1      36.529  11.177  15.059  0.00  0.00     0.005 A 
HETATM   10  C   UNK N   1      35.805  12.577  12.970  0.00  0.00     0.069 A 
HETATM   11  C   UNK N   1      37.274  10.027  14.376  0.00  0.00     0.056 C 
HETATM   12  C   UNK N   1      34.663  13.796  11.278  0.00  0.00     0.683 A 
HETATM   13 Cl   UNK N   1      35.301  11.674  18.895  0.00  0.00    -0.084 Cl
HETATM   14  N   UNK N   1      37.690  10.058  13.155  0.00  0.00    -0.384 N 
ATOM     15  HN  UNK N   1      37.962   9.163  12.747  1.00  0.00     0.160 HD
HETATM   16  N   UNK N   1      35.426  13.193  10.324  0.00  0.00    -0.201 N 
ATOM     17  HN  UNK N   1      35.269  13.416   9.341  1.00  0.00     0.183 HD
HETATM   18  N   UNK N   1      33.754  14.826  10.925  0.00  0.00    -0.192 N 
HETATM   19  N   UNK N   1      34.858  13.477  12.574  0.00  0.00    -0.190 N 
ATOM     20  HN  UNK N   1      34.277  13.924  13.284  1.00  0.00     0.184 HD
HETATM   21  H   UNK N   1      33.164  15.238  11.597  0.00  0.00     0.184 HD
ENDROOT
BRANCH  18  22
HETATM   22  C   UNK N   1      33.726  15.237   9.579  0.00  0.00     0.049 A 
HETATM   23  C   UNK N   1      32.770  14.677   8.727  0.00  0.00     0.031 A 
HETATM   24  C   UNK N   1      32.430  15.330   7.542  0.00  0.00     0.020 A 
HETATM   25  C   UNK N   1      33.028  16.557   7.220  0.00  0.00     0.037 A 
HETATM   26  C   UNK N   1      34.024  17.082   8.050  0.00  0.00     0.020 A 
HETATM   27  C   UNK N   1      34.361  16.432   9.230  0.00  0.00     0.031 A 
BRANCH  25  28
HETATM   28  C   UNK N   1      32.547  17.340   6.073  0.00  0.00     0.176 C 
HETATM   29  O   UNK N   1      31.349  17.459   5.871  0.00  0.00    -0.646 OA
BRANCH  28  30
HETATM   30  O   UNK N   1      33.424  17.862   5.195  0.00  0.00    -0.773 OA
HETATM   31  H   UNK N   1      33.834  17.821   4.353  0.00  0.00     0.167 HD
ENDBRANCH  28  30
ENDBRANCH  25  28
ENDBRANCH  18  22
BRANCH  11  32
HETATM   32  C   UNK N   1      37.652   8.777  15.142  0.00  0.00     0.068 A 
HETATM   33  C   UNK N   1      36.657   7.818  15.450  0.00  0.00     0.132 A 
HETATM   34  C   UNK N   1      36.988   6.645  16.135  0.00  0.00     0.043 A 
HETATM   35  F   UNK N   1      35.361   8.021  15.103  0.00  0.00    -0.205 F 
HETATM   36  C   UNK N   1      38.306   6.391  16.507  0.00  0.00     0.006 A 
HETATM   37  C   UNK N   1      39.307   7.293  16.166  0.00  0.00     0.043 A 
HETATM   38  C   UNK N   1      38.999   8.474  15.489  0.00  0.00     0.132 A 
HETATM   39  F   UNK N   1      40.037   9.248  15.089  0.00  0.00    -0.205 F 
ENDBRANCH  11  32
TORSDOF 4
ENDMDL
MODEL 7
REMARK VINA RESULT:      -8.1      2.989      3.966
REMARK  4 active torsions:
REMARK  status: ('A' for Active; 'I' for Inactive)
REMARK    1  A    between atoms: C_24  and  C_13 
REMARK    2  A    between atoms: N_33  and  C_16 
REMARK    3  A    between atoms: C_23  and  C_21 
REMARK    4  A    between atoms: O_36  and  C_24 
REMARK       I    between atoms: N_33  and  C_25 
ROOT
HETATM    1  C   UNK N   1      26.020  20.303   3.452  0.00  0.00     0.025 A 
HETATM    2  C   UNK N   1      27.021  19.468   3.913  0.00  0.00     0.016 A 
HETATM    3  C   UNK N   1      24.438  18.553   3.855  0.00  0.00     0.038 A 
HETATM    4  C   UNK N   1      26.872  15.627   6.080  0.00  0.00     0.162 C 
HETATM    5  C   UNK N   1      29.243  15.517   5.507  0.00  0.00     0.117 A 
HETATM    6  C   UNK N   1      28.020  16.158   5.335  0.00  0.00     0.004 A 
HETATM    7  C   UNK N   1      24.726  19.835   3.405  0.00  0.00     0.035 A 
HETATM    8  C   UNK N   1      26.765  18.159   4.373  0.00  0.00     0.004 A 
HETATM    9  C   UNK N   1      25.405  17.683   4.392  0.00  0.00     0.005 A 
HETATM   10  C   UNK N   1      27.991  17.378   4.652  0.00  0.00     0.069 A 
HETATM   11  C   UNK N   1      24.922  16.278   4.761  0.00  0.00     0.056 C 
HETATM   12  C   UNK N   1      30.352  17.279   4.391  0.00  0.00     0.683 A 
HETATM   13 Cl   UNK N   1      23.457  20.842   2.750  0.00  0.00    -0.084 Cl
HETATM   14  N   UNK N   1      25.644  15.404   5.379  0.00  0.00    -0.384 N 
ATOM     15  HN  UNK N   1      25.300  14.443   5.365  1.00  0.00     0.160 HD
HETATM   16  N   UNK N   1      30.376  16.077   5.034  0.00  0.00    -0.201 N 
ATOM     17  HN  UNK N   1      31.265  15.593   5.159  1.00  0.00     0.183 HD
HETATM   18  N   UNK N   1      31.562  17.918   4.020  0.00  0.00    -0.192 N 
HETATM   19  N   UNK N   1      29.169  17.901   4.206  0.00  0.00    -0.190 N 
ATOM     20  HN  UNK N   1      29.156  18.796   3.715  1.00  0.00     0.184 HD
HETATM   21  H   UNK N   1      31.558  18.764   3.516  0.00  0.00     0.184 HD
ENDROOT
BRANCH  18  22
HETATM   22  C   UNK N   1      32.768  17.301   4.401  0.00  0.00     0.049 A 
HETATM   23  C   UNK N   1      33.276  17.553   5.678  0.00  0.00     0.031 A 
HETATM   24  C   UNK N   1      34.201  16.674   6.244  0.00  0.00     0.020 A 
HETATM   25  C   UNK N   1      34.599  15.529   5.540  0.00  0.00     0.037 A 
HETATM   26  C   UNK N   1      34.130  15.313   4.240  0.00  0.00     0.020 A 
HETATM   27  C   UNK N   1      33.209  16.188   3.679  0.00  0.00     0.031 A 
BRANCH  25  28
HETATM   28  C   UNK N   1      35.427  14.506   6.195  0.00  0.00     0.176 C 
HETATM   29  O   UNK N   1      35.830  13.543   5.560  0.00  0.00    -0.646 OA
BRANCH  28  30
HETATM   30  O   UNK N   1      35.679  14.583   7.516  0.00  0.00    -0.773 OA
HETATM   31  H   UNK N   1      36.042  14.190   8.285  0.00  0.00     0.167 HD
ENDBRANCH  28  30
ENDBRANCH  25  28
ENDBRANCH  18  22
BRANCH  11  32
HETATM   32  C   UNK N   1      23.497  15.845   4.491  0.00  0.00     0.068 A 
HETATM   33  C   UNK N   1      23.159  15.302   3.228  0.00  0.00     0.132 A 
HETATM   34  C   UNK N   1      21.855  14.874   2.964  0.00  0.00     0.043 A 
HETATM   35  F   UNK N   1      24.085  15.202   2.241  0.00  0.00    -0.205 F 
HETATM   36  C   UNK N   1      20.872  14.953   3.947  0.00  0.00     0.006 A 
HETATM   37  C   UNK N   1      21.195  15.431   5.212  0.00  0.00     0.043 A 
HETATM   38  C   UNK N   1      22.489  15.871   5.495  0.00  0.00     0.132 A 
HETATM   39  F   UNK N   1      22.759  16.214   6.779  0.00  0.00    -0.205 F 
ENDBRANCH  11  32
TORSDOF 4
ENDMDL
MODEL 8
REMARK VINA RESULT:      -7.9     13.065     15.726
REMARK  4 active torsions:
REMARK  status: ('A' for Active; 'I' for Inactive)
REMARK    1  A    between atoms: C_24  and  C_13 
REMARK    2  A    between atoms: N_33  and  C_16 
REMARK    3  A    between atoms: C_23  and  C_21 
REMARK    4  A    between atoms: O_36  and  C_24 
REMARK       I    between atoms: N_33  and  C_25 
ROOT
HETATM    1  C   UNK N   1      28.981  19.721  -8.088  0.00  0.00     0.025 A 
HETATM    2  C   UNK N   1      28.824  20.860  -7.322  0.00  0.00     0.016 A 
HETATM    3  C   UNK N   1      31.203  19.505  -7.227  0.00  0.00     0.038 A 
HETATM    4  C   UNK N   1      31.232  22.537  -4.028  0.00  0.00     0.162 C 
HETATM    5  C   UNK N   1      29.863  24.525  -4.393  0.00  0.00     0.117 A 
HETATM    6  C   UNK N   1      30.246  23.263  -4.837  0.00  0.00     0.004 A 
HETATM    7  C   UNK N   1      30.185  19.052  -8.055  0.00  0.00     0.035 A 
HETATM    8  C   UNK N   1      29.839  21.351  -6.473  0.00  0.00     0.004 A 
HETATM    9  C   UNK N   1      31.077  20.620  -6.379  0.00  0.00     0.005 A 
HETATM   10  C   UNK N   1      29.531  22.672  -5.883  0.00  0.00     0.069 A 
HETATM   11  C   UNK N   1      32.331  21.024  -5.597  0.00  0.00     0.056 C 
HETATM   12  C   UNK N   1      28.094  24.565  -5.959  0.00  0.00     0.683 A 
HETATM   13 Cl   UNK N   1      30.437  17.657  -9.076  0.00  0.00    -0.084 Cl
HETATM   14  N   UNK N   1      32.353  21.938  -4.687  0.00  0.00    -0.384 N 
ATOM     15  HN  UNK N   1      33.275  22.273  -4.405  1.00  0.00     0.160 HD
HETATM   16  N   UNK N   1      28.808  25.151  -4.957  0.00  0.00    -0.201 N 
ATOM     17  HN  UNK N   1      28.542  26.080  -4.628  1.00  0.00     0.183 HD
HETATM   18  N   UNK N   1      26.910  25.174  -6.448  0.00  0.00    -0.192 N 
HETATM   19  N   UNK N   1      28.467  23.348  -6.406  0.00  0.00    -0.190 N 
ATOM     20  HN  UNK N   1      27.936  22.918  -7.163  1.00  0.00     0.184 HD
HETATM   21  H   UNK N   1      26.410  24.784  -7.201  0.00  0.00     0.184 HD
ENDROOT
BRANCH  18  22
HETATM   22  C   UNK N   1      26.476  26.354  -5.816  0.00  0.00     0.049 A 
HETATM   23  C   UNK N   1      25.969  26.271  -4.517  0.00  0.00     0.031 A 
HETATM   24  C   UNK N   1      25.924  27.413  -3.715  0.00  0.00     0.020 A 
HETATM   25  C   UNK N   1      26.410  28.633  -4.205  0.00  0.00     0.037 A 
HETATM   26  C   UNK N   1      26.864  28.720  -5.525  0.00  0.00     0.020 A 
HETATM   27  C   UNK N   1      26.910  27.584  -6.322  0.00  0.00     0.031 A 
BRANCH  25  28
HETATM   28  C   UNK N   1      26.537  29.794  -3.312  0.00  0.00     0.176 C 
HETATM   29  O   UNK N   1      27.126  29.688  -2.248  0.00  0.00    -0.646 OA
BRANCH  28  30
HETATM   30  O   UNK N   1      25.937  30.958  -3.627  0.00  0.00    -0.773 OA
HETATM   31  H   UNK N   1      26.011  31.832  -3.957  0.00  0.00     0.167 HD
ENDBRANCH  28  30
ENDBRANCH  25  28
ENDBRANCH  18  22
BRANCH  11  32
HETATM   32  C   UNK N   1      33.642  20.294  -5.794  0.00  0.00     0.068 A 
HETATM   33  C   UNK N   1      33.928  19.148  -5.013  0.00  0.00     0.132 A 
HETATM   34  C   UNK N   1      35.122  18.444  -5.194  0.00  0.00     0.043 A 
HETATM   35  F   UNK N   1      33.061  18.718  -4.062  0.00  0.00    -0.205 F 
HETATM   36  C   UNK N   1      36.040  18.845  -6.162  0.00  0.00     0.006 A 
HETATM   37  C   UNK N   1      35.754  19.934  -6.977  0.00  0.00     0.043 A 
HETATM   38  C   UNK N   1      34.572  20.656  -6.810  0.00  0.00     0.132 A 
HETATM   39  F   UNK N   1      34.307  21.630  -7.714  0.00  0.00    -0.205 F 
ENDBRANCH  11  32
TORSDOF 4
ENDMDL
MODEL 9
REMARK VINA RESULT:      -7.8      2.582      3.847
REMARK  4 active torsions:
REMARK  status: ('A' for Active; 'I' for Inactive)
REMARK    1  A    between atoms: C_24  and  C_13 
REMARK    2  A    between atoms: N_33  and  C_16 
REMARK    3  A    between atoms: C_23  and  C_21 
REMARK    4  A    between atoms: O_36  and  C_24 
REMARK       I    between atoms: N_33  and  C_25 
ROOT
HETATM    1  C   UNK N   1      24.611  14.064   0.992  0.00  0.00     0.025 A 
HETATM    2  C   UNK N   1      25.539  14.689   1.804  0.00  0.00     0.016 A 
HETATM    3  C   UNK N   1      22.876  14.891   2.418  0.00  0.00     0.038 A 
HETATM    4  C   UNK N   1      25.087  17.694   5.003  0.00  0.00     0.162 C 
HETATM    5  C   UNK N   1      27.408  17.122   5.502  0.00  0.00     0.117 A 
HETATM    6  C   UNK N   1      26.251  16.826   4.787  0.00  0.00     0.004 A 
HETATM    7  C   UNK N   1      23.274  14.149   1.314  0.00  0.00     0.035 A 
HETATM    8  C   UNK N   1      25.169  15.446   2.936  0.00  0.00     0.004 A 
HETATM    9  C   UNK N   1      23.770  15.599   3.242  0.00  0.00     0.005 A 
HETATM   10  C   UNK N   1      26.319  15.878   3.761  0.00  0.00     0.069 A 
HETATM   11  C   UNK N   1      23.161  16.294   4.463  0.00  0.00     0.056 C 
HETATM   12  C   UNK N   1      28.644  15.606   4.176  0.00  0.00     0.683 A 
HETATM   13 Cl   UNK N   1      22.089  13.300   0.351  0.00  0.00    -0.084 Cl
HETATM   14  N   UNK N   1      23.815  17.086   5.245  0.00  0.00    -0.384 N 
ATOM     15  HN  UNK N   1      23.374  17.302   6.140  1.00  0.00     0.160 HD
HETATM   16  N   UNK N   1      28.572  16.511   5.193  0.00  0.00    -0.201 N 
ATOM     17  HN  UNK N   1      29.411  16.731   5.730  1.00  0.00     0.183 HD
HETATM   18  N   UNK N   1      29.897  15.076   3.776  0.00  0.00    -0.192 N 
HETATM   19  N   UNK N   1      27.525  15.302   3.487  0.00  0.00    -0.190 N 
ATOM     20  HN  UNK N   1      27.583  14.617   2.734  1.00  0.00     0.184 HD
HETATM   21  H   UNK N   1      29.958  14.388   3.074  0.00  0.00     0.184 HD
ENDROOT
BRANCH  18  22
HETATM   22  C   UNK N   1      31.048  15.569   4.418  0.00  0.00     0.049 A 
HETATM   23  C   UNK N   1      31.572  16.796   4.004  0.00  0.00     0.031 A 
HETATM   24  C   UNK N   1      32.421  17.510   4.851  0.00  0.00     0.020 A 
HETATM   25  C   UNK N   1      32.727  17.006   6.124  0.00  0.00     0.037 A 
HETATM   26  C   UNK N   1      32.245  15.751   6.508  0.00  0.00     0.020 A 
HETATM   27  C   UNK N   1      31.398  15.043   5.665  0.00  0.00     0.031 A 
BRANCH  25  28
HETATM   28  C   UNK N   1      33.468  17.830   7.090  0.00  0.00     0.176 C 
HETATM   29  O   UNK N   1      34.658  18.048   6.925  0.00  0.00    -0.646 OA
BRANCH  28  30
HETATM   30  O   UNK N   1      32.858  18.281   8.202  0.00  0.00    -0.773 OA
HETATM   31  H   UNK N   1      32.064  18.528   8.635  0.00  0.00     0.167 HD
ENDBRANCH  28  30
ENDBRANCH  25  28
ENDBRANCH  18  22
BRANCH  11  32
HETATM   32  C   UNK N   1      21.689  16.156   4.787  0.00  0.00     0.068 A 
HETATM   33  C   UNK N   1      20.736  16.891   4.040  0.00  0.00     0.132 A 
HETATM   34  C   UNK N   1      19.371  16.761   4.305  0.00  0.00     0.043 A 
HETATM   35  F   UNK N   1      21.127  17.749   3.064  0.00  0.00    -0.205 F 
HETATM   36  C   UNK N   1      18.922  15.889   5.294  0.00  0.00     0.006 A 
HETATM   37  C   UNK N   1      19.836  15.117   6.002  0.00  0.00     0.043 A 
HETATM   38  C   UNK N   1      21.205  15.235   5.758  0.00  0.00     0.132 A 
HETATM   39  F   UNK N   1      22.026  14.370   6.402  0.00  0.00    -0.205 F 
ENDBRANCH  11  32
TORSDOF 4
ENDMDL
