MODEL 1
REMARK VINA RESULT:      -1.3      0.000      0.000
REMARK  1 active torsions:
REMARK  status: ('A' for Active; 'I' for Inactive)
REMARK    1  A    between atoms: F_1  and  F_1 
ROOT
HETATM    1  F   UNK N   1      38.904  20.787  20.697  0.00  0.00     0.000 F 
ENDROOT
TORSDOF 1
ENDMDL
MODEL 2
REMARK VINA RESULT:      -1.0     21.979     21.979
REMARK  1 active torsions:
REMARK  status: ('A' for Active; 'I' for Inactive)
REMARK    1  A    between atoms: F_1  and  F_1 
ROOT
HETATM    1  F   UNK N   1      17.017  19.406  19.241  0.00  0.00     0.000 F 
ENDROOT
TORSDOF 1
ENDMDL
MODEL 3
REMARK VINA RESULT:      -1.0     20.294     20.294
REMARK  1 active torsions:
REMARK  status: ('A' for Active; 'I' for Inactive)
REMARK    1  A    between atoms: F_1  and  F_1 
ROOT
HETATM    1  F   UNK N   1      18.723  18.719  21.224  0.00  0.00     0.000 F 
ENDROOT
TORSDOF 1
ENDMDL
MODEL 4
REMARK VINA RESULT:      -0.9     18.651     18.651
REMARK  1 active torsions:
REMARK  status: ('A' for Active; 'I' for Inactive)
REMARK    1  A    between atoms: F_1  and  F_1 
ROOT
HETATM    1  F   UNK N   1      23.536  12.323  14.366  0.00  0.00     0.000 F 
ENDROOT
TORSDOF 1
ENDMDL
MODEL 5
REMARK VINA RESULT:      -0.8     17.695     17.695
REMARK  1 active torsions:
REMARK  status: ('A' for Active; 'I' for Inactive)
REMARK    1  A    between atoms: F_1  and  F_1 
ROOT
HETATM    1  F   UNK N   1      25.503  22.690   9.299  0.00  0.00     0.000 F 
ENDROOT
TORSDOF 1
ENDMDL
MODEL 6
REMARK VINA RESULT:      -0.8     31.033     31.033
REMARK  1 active torsions:
REMARK  status: ('A' for Active; 'I' for Inactive)
REMARK    1  A    between atoms: F_1  and  F_1 
ROOT
HETATM    1  F   UNK N   1      24.058  27.346  -5.754  0.00  0.00     0.000 F 
ENDROOT
TORSDOF 1
ENDMDL
MODEL 7
REMARK VINA RESULT:      -0.8     26.183     26.183
REMARK  1 active torsions:
REMARK  status: ('A' for Active; 'I' for Inactive)
REMARK    1  A    between atoms: F_1  and  F_1 
ROOT
HETATM    1  F   UNK N   1      17.566  26.822   6.775  0.00  0.00     0.000 F 
ENDROOT
TORSDOF 1
ENDMDL
MODEL 8
REMARK VINA RESULT:      -0.8     28.103     28.103
REMARK  1 active torsions:
REMARK  status: ('A' for Active; 'I' for Inactive)
REMARK    1  A    between atoms: F_1  and  F_1 
ROOT
HETATM    1  F   UNK N   1      20.398  24.554  -0.115  0.00  0.00     0.000 F 
ENDROOT
TORSDOF 1
ENDMDL
MODEL 9
REMARK VINA RESULT:      -0.8     13.174     13.174
REMARK  1 active torsions:
REMARK  status: ('A' for Active; 'I' for Inactive)
REMARK    1  A    between atoms: F_1  and  F_1 
ROOT
HETATM    1  F   UNK N   1      32.995  10.643  14.717  0.00  0.00     0.000 F 
ENDROOT
TORSDOF 1
ENDMDL
