MODEL 1
REMARK VINA RESULT:      -6.0      0.000      0.000
REMARK  20 active torsions:
REMARK  status: ('A' for Active; 'I' for Inactive)
REMARK    1  A    between atoms: C_2  and  C_3 
REMARK    2  A    between atoms: C_3  and  C_4 
REMARK    3  A    between atoms: C_4  and  N_5 
REMARK    4  A    between atoms: C_7  and  O_30 
REMARK    5  A    between atoms: C_8  and  O_24 
REMARK    6  A    between atoms: C_9  and  O_18 
REMARK    7  A    between atoms: C_10  and  C_11 
REMARK    8  A    between atoms: C_11  and  O_12 
REMARK    9  A    between atoms: O_12  and  C_13 
REMARK   10  A    between atoms: C_13  and  C_15 
REMARK   11  A    between atoms: C_15  and  C_16 
REMARK   12  A    between atoms: O_18  and  C_19 
REMARK   13  A    between atoms: C_19  and  C_21 
REMARK   14  A    between atoms: C_21  and  C_22 
REMARK   15  A    between atoms: O_24  and  C_25 
REMARK   16  A    between atoms: C_25  and  C_27 
REMARK   17  A    between atoms: C_27  and  C_28 
REMARK   18  A    between atoms: O_30  and  C_31 
REMARK   19  A    between atoms: C_31  and  C_33 
REMARK   20  A    between atoms: C_33  and  C_34 
ROOT
HETATM    1  N   UNK N   1      21.368  17.702   4.987  0.00  0.00     0.100 N 
HETATM    2  C   UNK N   1      21.259  18.031   6.417  0.00  0.00     0.308 C 
HETATM    3  C   UNK N   1      20.952  16.809   7.302  0.00  0.00     0.192 C 
HETATM    4  C   UNK N   1      21.621  15.516   6.838  0.00  0.00     0.195 C 
HETATM    5  C   UNK N   1      22.799  15.841   5.932  0.00  0.00     0.199 C 
HETATM    6  C   UNK N   1      22.340  16.630   4.692  0.00  0.00     0.279 C 
ENDROOT
BRANCH   6   7
HETATM    7  C   UNK N   1      23.571  17.227   4.025  0.00  0.00     0.217 C 
BRANCH   7   8
HETATM    8  O   UNK N   1      23.805  18.506   4.477  0.00  0.00    -0.319 OA
BRANCH   8   9
HETATM    9  C   UNK N   1      23.835  19.571   3.637  0.00  0.00     0.258 C 
HETATM   10  O   UNK N   1      22.791  20.123   3.333  0.00  0.00    -0.265 OA
BRANCH   9  11
HETATM   11  C   UNK N   1      25.135  20.107   3.104  0.00  0.00     0.111 C 
BRANCH  11  12
HETATM   12  C   UNK N   1      26.167  20.213   4.210  0.00  0.00     0.005 C 
HETATM   13  C   UNK N   1      27.296  19.242   3.938  0.00  0.00     0.005 C 
ENDBRANCH  11  12
ENDBRANCH   9  11
ENDBRANCH   8   9
ENDBRANCH   7   8
ENDBRANCH   6   7
BRANCH   5  14
HETATM   14  O   UNK N   1      23.458  14.695   5.546  0.00  0.00    -0.311 OA
BRANCH  14  15
HETATM   15  C   UNK N   1      24.785  14.529   5.746  0.00  0.00     0.259 C 
HETATM   16  O   UNK N   1      25.539  14.372   4.785  0.00  0.00    -0.265 OA
BRANCH  15  17
HETATM   17  C   UNK N   1      25.328  14.543   7.141  0.00  0.00     0.111 C 
BRANCH  17  18
HETATM   18  C   UNK N   1      25.033  13.257   7.897  0.00  0.00     0.005 C 
HETATM   19  C   UNK N   1      25.219  13.481   9.381  0.00  0.00     0.005 C 
ENDBRANCH  17  18
ENDBRANCH  15  17
ENDBRANCH  14  15
ENDBRANCH   5  14
BRANCH   1  20
HETATM   20  C   UNK N   1      20.062  17.354   4.437  0.00  0.00     0.273 C 
BRANCH  20  21
HETATM   21  C   UNK N   1      20.218  16.733   3.053  0.00  0.00     0.030 C 
BRANCH  21  22
HETATM   22  C   UNK N   1      20.133  17.786   1.962  0.00  0.00    -0.003 C 
HETATM   23  C   UNK N   1      20.078  17.116   0.605  0.00  0.00     0.005 C 
ENDBRANCH  21  22
ENDBRANCH  20  21
ENDBRANCH   1  20
BRANCH   4  24
HETATM   24  O   UNK N   1      22.075  14.843   7.954  0.00  0.00    -0.311 OA
BRANCH  24  25
HETATM   25  C   UNK N   1      21.433  13.778   8.494  0.00  0.00     0.259 C 
HETATM   26  O   UNK N   1      20.803  13.005   7.788  0.00  0.00    -0.265 OA
BRANCH  25  27
HETATM   27  C   UNK N   1      21.512  13.530   9.965  0.00  0.00     0.111 C 
BRANCH  27  28
HETATM   28  C   UNK N   1      21.946  12.105  10.256  0.00  0.00     0.005 C 
HETATM   29  C   UNK N   1      22.626  12.056  11.609  0.00  0.00     0.005 C 
ENDBRANCH  27  28
ENDBRANCH  25  27
ENDBRANCH  24  25
ENDBRANCH   4  24
BRANCH   3  30
HETATM   30  O   UNK N   1      19.596  16.618   7.418  0.00  0.00    -0.311 OA
BRANCH  30  31
HETATM   31  C   UNK N   1      18.967  16.630   8.616  0.00  0.00     0.259 C 
HETATM   32  O   UNK N   1      18.602  15.587   9.143  0.00  0.00    -0.265 OA
BRANCH  31  33
HETATM   33  C   UNK N   1      18.718  17.935   9.300  0.00  0.00     0.111 C 
BRANCH  33  34
HETATM   34  C   UNK N   1      17.399  17.902  10.058  0.00  0.00     0.005 C 
HETATM   35  C   UNK N   1      17.421  18.885  11.215  0.00  0.00     0.005 C 
ENDBRANCH  33  34
ENDBRANCH  31  33
ENDBRANCH  30  31
ENDBRANCH   3  30
TORSDOF 20
ENDMDL
MODEL 2
REMARK VINA RESULT:      -5.8      1.719      6.953
REMARK  20 active torsions:
REMARK  status: ('A' for Active; 'I' for Inactive)
REMARK    1  A    between atoms: C_2  and  C_3 
REMARK    2  A    between atoms: C_3  and  C_4 
REMARK    3  A    between atoms: C_4  and  N_5 
REMARK    4  A    between atoms: C_7  and  O_30 
REMARK    5  A    between atoms: C_8  and  O_24 
REMARK    6  A    between atoms: C_9  and  O_18 
REMARK    7  A    between atoms: C_10  and  C_11 
REMARK    8  A    between atoms: C_11  and  O_12 
REMARK    9  A    between atoms: O_12  and  C_13 
REMARK   10  A    between atoms: C_13  and  C_15 
REMARK   11  A    between atoms: C_15  and  C_16 
REMARK   12  A    between atoms: O_18  and  C_19 
REMARK   13  A    between atoms: C_19  and  C_21 
REMARK   14  A    between atoms: C_21  and  C_22 
REMARK   15  A    between atoms: O_24  and  C_25 
REMARK   16  A    between atoms: C_25  and  C_27 
REMARK   17  A    between atoms: C_27  and  C_28 
REMARK   18  A    between atoms: O_30  and  C_31 
REMARK   19  A    between atoms: C_31  and  C_33 
REMARK   20  A    between atoms: C_33  and  C_34 
ROOT
HETATM    1  N   UNK N   1      21.355  15.827   6.152  0.00  0.00     0.100 N 
HETATM    2  C   UNK N   1      21.160  16.245   4.754  0.00  0.00     0.308 C 
HETATM    3  C   UNK N   1      22.003  17.472   4.361  0.00  0.00     0.192 C 
HETATM    4  C   UNK N   1      23.383  17.519   5.015  0.00  0.00     0.195 C 
HETATM    5  C   UNK N   1      23.778  16.128   5.487  0.00  0.00     0.199 C 
HETATM    6  C   UNK N   1      22.767  15.586   6.513  0.00  0.00     0.279 C 
ENDROOT
BRANCH   6   7
HETATM    7  C   UNK N   1      23.004  14.091   6.671  0.00  0.00     0.217 C 
BRANCH   7   8
HETATM    8  O   UNK N   1      23.065  13.739   8.000  0.00  0.00    -0.319 OA
BRANCH   8   9
HETATM    9  C   UNK N   1      21.976  13.298   8.679  0.00  0.00     0.258 C 
HETATM   10  O   UNK N   1      20.991  12.934   8.058  0.00  0.00    -0.265 OA
BRANCH   9  11
HETATM   11  C   UNK N   1      21.973  13.216  10.180  0.00  0.00     0.111 C 
BRANCH  11  12
HETATM   12  C   UNK N   1      23.060  12.278  10.668  0.00  0.00     0.005 C 
HETATM   13  C   UNK N   1      22.841  11.977  12.136  0.00  0.00     0.005 C 
ENDBRANCH  11  12
ENDBRANCH   9  11
ENDBRANCH   8   9
ENDBRANCH   7   8
ENDBRANCH   6   7
BRANCH   5  14
HETATM   14  O   UNK N   1      25.045  16.129   6.027  0.00  0.00    -0.311 OA
BRANCH  14  15
HETATM   15  C   UNK N   1      26.102  15.591   5.377  0.00  0.00     0.259 C 
HETATM   16  O   UNK N   1      25.931  14.670   4.577  0.00  0.00    -0.265 OA
BRANCH  15  17
HETATM   17  C   UNK N   1      27.476  16.126   5.634  0.00  0.00     0.111 C 
BRANCH  17  18
HETATM   18  C   UNK N   1      27.594  16.814   6.985  0.00  0.00     0.005 C 
HETATM   19  C   UNK N   1      28.765  17.772   6.972  0.00  0.00     0.005 C 
ENDBRANCH  17  18
ENDBRANCH  15  17
ENDBRANCH  14  15
ENDBRANCH   5  14
BRANCH   1  20
HETATM   20  C   UNK N   1      20.768  16.800   7.067  0.00  0.00     0.273 C 
BRANCH  20  21
HETATM   21  C   UNK N   1      19.372  16.355   7.491  0.00  0.00     0.030 C 
BRANCH  21  22
HETATM   22  C   UNK N   1      19.079  16.750   8.928  0.00  0.00    -0.003 C 
HETATM   23  C   UNK N   1      19.490  18.189   9.159  0.00  0.00     0.005 C 
ENDBRANCH  21  22
ENDBRANCH  20  21
ENDBRANCH   1  20
BRANCH   4  24
HETATM   24  O   UNK N   1      24.290  17.956   4.070  0.00  0.00    -0.311 OA
BRANCH  24  25
HETATM   25  C   UNK N   1      24.885  19.172   4.117  0.00  0.00     0.259 C 
HETATM   26  O   UNK N   1      24.743  19.973   3.204  0.00  0.00    -0.265 OA
BRANCH  25  27
HETATM   27  C   UNK N   1      25.707  19.553   5.305  0.00  0.00     0.111 C 
BRANCH  27  28
HETATM   28  C   UNK N   1      26.961  20.299   4.886  0.00  0.00     0.005 C 
HETATM   29  C   UNK N   1      27.300  21.338   5.936  0.00  0.00     0.005 C 
ENDBRANCH  27  28
ENDBRANCH  25  27
ENDBRANCH  24  25
ENDBRANCH   4  24
BRANCH   3  30
HETATM   30  O   UNK N   1      21.321  18.636   4.625  0.00  0.00    -0.311 OA
BRANCH  30  31
HETATM   31  C   UNK N   1      20.897  19.461   3.640  0.00  0.00     0.259 C 
HETATM   32  O   UNK N   1      21.428  20.549   3.461  0.00  0.00    -0.265 OA
BRANCH  31  33
HETATM   33  C   UNK N   1      19.767  19.033   2.762  0.00  0.00     0.111 C 
BRANCH  33  34
HETATM   34  C   UNK N   1      20.283  18.568   1.408  0.00  0.00     0.005 C 
HETATM   35  C   UNK N   1      20.022  17.084   1.215  0.00  0.00     0.005 C 
ENDBRANCH  33  34
ENDBRANCH  31  33
ENDBRANCH  30  31
ENDBRANCH   3  30
TORSDOF 20
ENDMDL
MODEL 3
REMARK VINA RESULT:      -5.7      1.843      2.612
REMARK  20 active torsions:
REMARK  status: ('A' for Active; 'I' for Inactive)
REMARK    1  A    between atoms: C_2  and  C_3 
REMARK    2  A    between atoms: C_3  and  C_4 
REMARK    3  A    between atoms: C_4  and  N_5 
REMARK    4  A    between atoms: C_7  and  O_30 
REMARK    5  A    between atoms: C_8  and  O_24 
REMARK    6  A    between atoms: C_9  and  O_18 
REMARK    7  A    between atoms: C_10  and  C_11 
REMARK    8  A    between atoms: C_11  and  O_12 
REMARK    9  A    between atoms: O_12  and  C_13 
REMARK   10  A    between atoms: C_13  and  C_15 
REMARK   11  A    between atoms: C_15  and  C_16 
REMARK   12  A    between atoms: O_18  and  C_19 
REMARK   13  A    between atoms: C_19  and  C_21 
REMARK   14  A    between atoms: C_21  and  C_22 
REMARK   15  A    between atoms: O_24  and  C_25 
REMARK   16  A    between atoms: C_25  and  C_27 
REMARK   17  A    between atoms: C_27  and  C_28 
REMARK   18  A    between atoms: O_30  and  C_31 
REMARK   19  A    between atoms: C_31  and  C_33 
REMARK   20  A    between atoms: C_33  and  C_34 
ROOT
HETATM    1  N   UNK N   1      22.901  17.092   4.230  0.00  0.00     0.100 N 
HETATM    2  C   UNK N   1      22.508  17.353   5.624  0.00  0.00     0.308 C 
HETATM    3  C   UNK N   1      22.538  16.095   6.511  0.00  0.00     0.192 C 
HETATM    4  C   UNK N   1      23.666  15.120   6.177  0.00  0.00     0.195 C 
HETATM    5  C   UNK N   1      24.760  15.841   5.405  0.00  0.00     0.199 C 
HETATM    6  C   UNK N   1      24.213  16.428   4.092  0.00  0.00     0.279 C 
ENDROOT
BRANCH   6   7
HETATM    7  C   UNK N   1      25.233  17.421   3.553  0.00  0.00     0.217 C 
BRANCH   7   8
HETATM    8  O   UNK N   1      25.511  18.396   4.484  0.00  0.00    -0.319 OA
BRANCH   8   9
HETATM    9  C   UNK N   1      25.643  19.702   4.140  0.00  0.00     0.258 C 
HETATM   10  O   UNK N   1      24.658  20.332   3.791  0.00  0.00    -0.265 OA
BRANCH   9  11
HETATM   11  C   UNK N   1      26.974  20.398   4.217  0.00  0.00     0.111 C 
BRANCH  11  12
HETATM   12  C   UNK N   1      27.518  20.361   5.631  0.00  0.00     0.005 C 
HETATM   13  C   UNK N   1      26.803  21.398   6.472  0.00  0.00     0.005 C 
ENDBRANCH  11  12
ENDBRANCH   9  11
ENDBRANCH   8   9
ENDBRANCH   7   8
ENDBRANCH   6   7
BRANCH   5  14
HETATM   14  O   UNK N   1      25.819  14.999   5.143  0.00  0.00    -0.311 OA
BRANCH  14  15
HETATM   15  C   UNK N   1      27.041  15.194   5.687  0.00  0.00     0.259 C 
HETATM   16  O   UNK N   1      27.976  14.451   5.384  0.00  0.00    -0.265 OA
BRANCH  15  17
HETATM   17  C   UNK N   1      27.249  16.319   6.652  0.00  0.00     0.111 C 
BRANCH  17  18
HETATM   18  C   UNK N   1      28.653  16.900   6.579  0.00  0.00     0.005 C 
HETATM   19  C   UNK N   1      28.953  17.674   7.844  0.00  0.00     0.005 C 
ENDBRANCH  17  18
ENDBRANCH  15  17
ENDBRANCH  14  15
ENDBRANCH   5  14
BRANCH   1  20
HETATM   20  C   UNK N   1      21.876  16.314   3.543  0.00  0.00     0.273 C 
BRANCH  20  21
HETATM   21  C   UNK N   1      20.571  17.099   3.471  0.00  0.00     0.030 C 
BRANCH  21  22
HETATM   22  C   UNK N   1      20.658  18.225   2.456  0.00  0.00    -0.003 C 
HETATM   23  C   UNK N   1      20.386  19.551   3.135  0.00  0.00     0.005 C 
ENDBRANCH  21  22
ENDBRANCH  20  21
ENDBRANCH   1  20
BRANCH   4  24
HETATM   24  O   UNK N   1      24.183  14.640   7.364  0.00  0.00    -0.311 OA
BRANCH  24  25
HETATM   25  C   UNK N   1      23.955  13.385   7.822  0.00  0.00     0.259 C 
HETATM   26  O   UNK N   1      23.632  12.489   7.057  0.00  0.00    -0.265 OA
BRANCH  25  27
HETATM   27  C   UNK N   1      24.120  13.084   9.277  0.00  0.00     0.111 C 
BRANCH  27  28
HETATM   28  C   UNK N   1      23.111  12.049   9.738  0.00  0.00     0.005 C 
HETATM   29  C   UNK N   1      21.982  12.744  10.472  0.00  0.00     0.005 C 
ENDBRANCH  27  28
ENDBRANCH  25  27
ENDBRANCH  24  25
ENDBRANCH   4  24
BRANCH   3  30
HETATM   30  O   UNK N   1      21.329  15.442   6.473  0.00  0.00    -0.311 OA
BRANCH  30  31
HETATM   31  C   UNK N   1      20.713  15.002   7.594  0.00  0.00     0.259 C 
HETATM   32  O   UNK N   1      20.209  13.886   7.636  0.00  0.00    -0.265 OA
BRANCH  31  33
HETATM   33  C   UNK N   1      20.651  15.890   8.793  0.00  0.00     0.111 C 
BRANCH  33  34
HETATM   34  C   UNK N   1      19.720  17.067   8.544  0.00  0.00     0.005 C 
HETATM   35  C   UNK N   1      18.346  16.800   9.134  0.00  0.00     0.005 C 
ENDBRANCH  33  34
ENDBRANCH  31  33
ENDBRANCH  30  31
ENDBRANCH   3  30
TORSDOF 20
ENDMDL
MODEL 4
REMARK VINA RESULT:      -5.6      7.595     11.282
REMARK  20 active torsions:
REMARK  status: ('A' for Active; 'I' for Inactive)
REMARK    1  A    between atoms: C_2  and  C_3 
REMARK    2  A    between atoms: C_3  and  C_4 
REMARK    3  A    between atoms: C_4  and  N_5 
REMARK    4  A    between atoms: C_7  and  O_30 
REMARK    5  A    between atoms: C_8  and  O_24 
REMARK    6  A    between atoms: C_9  and  O_18 
REMARK    7  A    between atoms: C_10  and  C_11 
REMARK    8  A    between atoms: C_11  and  O_12 
REMARK    9  A    between atoms: O_12  and  C_13 
REMARK   10  A    between atoms: C_13  and  C_15 
REMARK   11  A    between atoms: C_15  and  C_16 
REMARK   12  A    between atoms: O_18  and  C_19 
REMARK   13  A    between atoms: C_19  and  C_21 
REMARK   14  A    between atoms: C_21  and  C_22 
REMARK   15  A    between atoms: O_24  and  C_25 
REMARK   16  A    between atoms: C_25  and  C_27 
REMARK   17  A    between atoms: C_27  and  C_28 
REMARK   18  A    between atoms: O_30  and  C_31 
REMARK   19  A    between atoms: C_31  and  C_33 
REMARK   20  A    between atoms: C_33  and  C_34 
ROOT
HETATM    1  N   UNK N   1      31.362  17.538   7.512  0.00  0.00     0.100 N 
HETATM    2  C   UNK N   1      32.833  17.577   7.508  0.00  0.00     0.308 C 
HETATM    3  C   UNK N   1      33.478  16.305   8.089  0.00  0.00     0.192 C 
HETATM    4  C   UNK N   1      32.721  15.017   7.770  0.00  0.00     0.195 C 
HETATM    5  C   UNK N   1      31.816  15.235   6.567  0.00  0.00     0.199 C 
HETATM    6  C   UNK N   1      30.793  16.351   6.842  0.00  0.00     0.279 C 
ENDROOT
BRANCH   6   7
HETATM    7  C   UNK N   1      30.172  16.765   5.515  0.00  0.00     0.217 C 
BRANCH   7   8
HETATM    8  O   UNK N   1      29.275  17.794   5.690  0.00  0.00    -0.319 OA
BRANCH   8   9
HETATM    9  C   UNK N   1      28.339  18.099   4.756  0.00  0.00     0.258 C 
HETATM   10  O   UNK N   1      28.328  17.490   3.699  0.00  0.00    -0.265 OA
BRANCH   9  11
HETATM   11  C   UNK N   1      27.292  19.146   5.015  0.00  0.00     0.111 C 
BRANCH  11  12
HETATM   12  C   UNK N   1      27.867  20.292   5.824  0.00  0.00     0.005 C 
HETATM   13  C   UNK N   1      26.778  21.308   6.100  0.00  0.00     0.005 C 
ENDBRANCH  11  12
ENDBRANCH   9  11
ENDBRANCH   8   9
ENDBRANCH   7   8
ENDBRANCH   6   7
BRANCH   5  14
HETATM   14  O   UNK N   1      31.165  14.072   6.219  0.00  0.00    -0.311 OA
BRANCH  14  15
HETATM   15  C   UNK N   1      31.567  13.309   5.177  0.00  0.00     0.259 C 
HETATM   16  O   UNK N   1      31.500  12.081   5.250  0.00  0.00    -0.265 OA
BRANCH  15  17
HETATM   17  C   UNK N   1      32.087  13.968   3.938  0.00  0.00     0.111 C 
BRANCH  17  18
HETATM   18  C   UNK N   1      31.283  13.602   2.700  0.00  0.00     0.005 C 
HETATM   19  C   UNK N   1      29.898  14.203   2.792  0.00  0.00     0.005 C 
ENDBRANCH  17  18
ENDBRANCH  15  17
ENDBRANCH  14  15
ENDBRANCH   5  14
BRANCH   1  20
HETATM   20  C   UNK N   1      30.848  17.632   8.875  0.00  0.00     0.273 C 
BRANCH  20  21
HETATM   21  C   UNK N   1      30.021  18.902   9.044  0.00  0.00     0.030 C 
BRANCH  21  22
HETATM   22  C   UNK N   1      28.533  18.605   8.981  0.00  0.00    -0.003 C 
HETATM   23  C   UNK N   1      28.269  17.197   9.472  0.00  0.00     0.005 C 
ENDBRANCH  21  22
ENDBRANCH  20  21
ENDBRANCH   1  20
BRANCH   4  24
HETATM   24  O   UNK N   1      33.647  14.037   7.474  0.00  0.00    -0.311 OA
BRANCH  24  25
HETATM   25  C   UNK N   1      33.745  12.873   8.161  0.00  0.00     0.259 C 
HETATM   26  O   UNK N   1      32.787  12.427   8.776  0.00  0.00    -0.265 OA
BRANCH  25  27
HETATM   27  C   UNK N   1      35.030  12.110   8.152  0.00  0.00     0.111 C 
BRANCH  27  28
HETATM   28  C   UNK N   1      36.222  13.049   8.118  0.00  0.00     0.005 C 
HETATM   29  C   UNK N   1      37.212  12.639   9.190  0.00  0.00     0.005 C 
ENDBRANCH  27  28
ENDBRANCH  25  27
ENDBRANCH  24  25
ENDBRANCH   4  24
BRANCH   3  30
HETATM   30  O   UNK N   1      33.650  16.421   9.448  0.00  0.00    -0.311 OA
BRANCH  30  31
HETATM   31  C   UNK N   1      34.860  16.663  10.003  0.00  0.00     0.259 C 
HETATM   32  O   UNK N   1      35.403  17.753   9.872  0.00  0.00    -0.265 OA
BRANCH  31  33
HETATM   33  C   UNK N   1      35.536  15.585  10.785  0.00  0.00     0.111 C 
BRANCH  33  34
HETATM   34  C   UNK N   1      34.524  14.564  11.281  0.00  0.00     0.005 C 
HETATM   35  C   UNK N   1      35.175  13.585  12.242  0.00  0.00     0.005 C 
ENDBRANCH  33  34
ENDBRANCH  31  33
ENDBRANCH  30  31
ENDBRANCH   3  30
TORSDOF 20
ENDMDL
MODEL 5
REMARK VINA RESULT:      -5.6      1.987      6.004
REMARK  20 active torsions:
REMARK  status: ('A' for Active; 'I' for Inactive)
REMARK    1  A    between atoms: C_2  and  C_3 
REMARK    2  A    between atoms: C_3  and  C_4 
REMARK    3  A    between atoms: C_4  and  N_5 
REMARK    4  A    between atoms: C_7  and  O_30 
REMARK    5  A    between atoms: C_8  and  O_24 
REMARK    6  A    between atoms: C_9  and  O_18 
REMARK    7  A    between atoms: C_10  and  C_11 
REMARK    8  A    between atoms: C_11  and  O_12 
REMARK    9  A    between atoms: O_12  and  C_13 
REMARK   10  A    between atoms: C_13  and  C_15 
REMARK   11  A    between atoms: C_15  and  C_16 
REMARK   12  A    between atoms: O_18  and  C_19 
REMARK   13  A    between atoms: C_19  and  C_21 
REMARK   14  A    between atoms: C_21  and  C_22 
REMARK   15  A    between atoms: O_24  and  C_25 
REMARK   16  A    between atoms: C_25  and  C_27 
REMARK   17  A    between atoms: C_27  and  C_28 
REMARK   18  A    between atoms: O_30  and  C_31 
REMARK   19  A    between atoms: C_31  and  C_33 
REMARK   20  A    between atoms: C_33  and  C_34 
ROOT
HETATM    1  N   UNK N   1      23.458  17.532   4.481  0.00  0.00     0.100 N 
HETATM    2  C   UNK N   1      23.601  16.172   3.939  0.00  0.00     0.308 C 
HETATM    3  C   UNK N   1      24.004  15.131   5.000  0.00  0.00     0.192 C 
HETATM    4  C   UNK N   1      23.389  15.372   6.378  0.00  0.00     0.195 C 
HETATM    5  C   UNK N   1      22.164  16.264   6.248  0.00  0.00     0.199 C 
HETATM    6  C   UNK N   1      22.536  17.625   5.631  0.00  0.00     0.279 C 
ENDROOT
BRANCH   6   7
HETATM    7  C   UNK N   1      21.251  18.318   5.199  0.00  0.00     0.217 C 
BRANCH   7   8
HETATM    8  O   UNK N   1      20.408  17.439   4.557  0.00  0.00    -0.319 OA
BRANCH   8   9
HETATM    9  C   UNK N   1      20.085  17.578   3.247  0.00  0.00     0.258 C 
HETATM   10  O   UNK N   1      20.174  16.615   2.503  0.00  0.00    -0.265 OA
BRANCH   9  11
HETATM   11  C   UNK N   1      19.584  18.887   2.702  0.00  0.00     0.111 C 
BRANCH  11  12
HETATM   12  C   UNK N   1      20.628  19.534   1.813  0.00  0.00     0.005 C 
HETATM   13  C   UNK N   1      21.056  20.853   2.420  0.00  0.00     0.005 C 
ENDBRANCH  11  12
ENDBRANCH   9  11
ENDBRANCH   8   9
ENDBRANCH   7   8
ENDBRANCH   6   7
BRANCH   5  14
HETATM   14  O   UNK N   1      21.554  16.449   7.469  0.00  0.00    -0.311 OA
BRANCH  14  15
HETATM   15  C   UNK N   1      20.343  15.919   7.752  0.00  0.00     0.259 C 
HETATM   16  O   UNK N   1      19.798  15.160   6.950  0.00  0.00    -0.265 OA
BRANCH  15  17
HETATM   17  C   UNK N   1      19.675  16.258   9.048  0.00  0.00     0.111 C 
BRANCH  17  18
HETATM   18  C   UNK N   1      18.852  17.535   8.967  0.00  0.00     0.005 C 
HETATM   19  C   UNK N   1      17.379  17.201   9.047  0.00  0.00     0.005 C 
ENDBRANCH  17  18
ENDBRANCH  15  17
ENDBRANCH  14  15
ENDBRANCH   5  14
BRANCH   1  20
HETATM   20  C   UNK N   1      24.760  18.082   4.845  0.00  0.00     0.273 C 
BRANCH  20  21
HETATM   21  C   UNK N   1      25.597  18.337   3.596  0.00  0.00     0.030 C 
BRANCH  21  22
HETATM   22  C   UNK N   1      25.923  19.812   3.440  0.00  0.00    -0.003 C 
HETATM   23  C   UNK N   1      24.735  20.540   2.845  0.00  0.00     0.005 C 
ENDBRANCH  21  22
ENDBRANCH  20  21
ENDBRANCH   1  20
BRANCH   4  24
HETATM   24  O   UNK N   1      23.013  14.151   6.899  0.00  0.00    -0.311 OA
BRANCH  24  25
HETATM   25  C   UNK N   1      23.464  13.676   8.085  0.00  0.00     0.259 C 
HETATM   26  O   UNK N   1      24.662  13.617   8.320  0.00  0.00    -0.265 OA
BRANCH  25  27
HETATM   27  C   UNK N   1      22.489  13.240   9.131  0.00  0.00     0.111 C 
BRANCH  27  28
HETATM   28  C   UNK N   1      22.849  11.869   9.674  0.00  0.00     0.005 C 
HETATM   29  C   UNK N   1      23.039  11.960  11.175  0.00  0.00     0.005 C 
ENDBRANCH  27  28
ENDBRANCH  25  27
ENDBRANCH  24  25
ENDBRANCH   4  24
BRANCH   3  30
HETATM   30  O   UNK N   1      25.372  15.048   5.107  0.00  0.00    -0.311 OA
BRANCH  30  31
HETATM   31  C   UNK N   1      26.055  13.933   4.758  0.00  0.00     0.259 C 
HETATM   32  O   UNK N   1      26.408  13.123   5.606  0.00  0.00    -0.265 OA
BRANCH  31  33
HETATM   33  C   UNK N   1      26.378  13.691   3.320  0.00  0.00     0.111 C 
BRANCH  33  34
HETATM   34  C   UNK N   1      26.955  14.944   2.679  0.00  0.00     0.005 C 
HETATM   35  C   UNK N   1      26.111  15.379   1.494  0.00  0.00     0.005 C 
ENDBRANCH  33  34
ENDBRANCH  31  33
ENDBRANCH  30  31
ENDBRANCH   3  30
TORSDOF 20
ENDMDL
MODEL 6
REMARK VINA RESULT:      -5.5     12.321     17.145
REMARK  20 active torsions:
REMARK  status: ('A' for Active; 'I' for Inactive)
REMARK    1  A    between atoms: C_2  and  C_3 
REMARK    2  A    between atoms: C_3  and  C_4 
REMARK    3  A    between atoms: C_4  and  N_5 
REMARK    4  A    between atoms: C_7  and  O_30 
REMARK    5  A    between atoms: C_8  and  O_24 
REMARK    6  A    between atoms: C_9  and  O_18 
REMARK    7  A    between atoms: C_10  and  C_11 
REMARK    8  A    between atoms: C_11  and  O_12 
REMARK    9  A    between atoms: O_12  and  C_13 
REMARK   10  A    between atoms: C_13  and  C_15 
REMARK   11  A    between atoms: C_15  and  C_16 
REMARK   12  A    between atoms: O_18  and  C_19 
REMARK   13  A    between atoms: C_19  and  C_21 
REMARK   14  A    between atoms: C_21  and  C_22 
REMARK   15  A    between atoms: O_24  and  C_25 
REMARK   16  A    between atoms: C_25  and  C_27 
REMARK   17  A    between atoms: C_27  and  C_28 
REMARK   18  A    between atoms: O_30  and  C_31 
REMARK   19  A    between atoms: C_31  and  C_33 
REMARK   20  A    between atoms: C_33  and  C_34 
ROOT
HETATM    1  N   UNK N   1      37.306  12.571  11.504  0.00  0.00     0.100 N 
HETATM    2  C   UNK N   1      38.394  12.922  10.577  0.00  0.00     0.308 C 
HETATM    3  C   UNK N   1      37.920  13.103   9.123  0.00  0.00     0.192 C 
HETATM    4  C   UNK N   1      36.534  13.731   8.989  0.00  0.00     0.195 C 
HETATM    5  C   UNK N   1      36.177  14.470  10.270  0.00  0.00     0.199 C 
HETATM    6  C   UNK N   1      36.167  13.511  11.474  0.00  0.00     0.279 C 
ENDROOT
BRANCH   6   7
HETATM    7  C   UNK N   1      36.163  14.347  12.747  0.00  0.00     0.217 C 
BRANCH   7   8
HETATM    8  O   UNK N   1      35.264  13.848  13.662  0.00  0.00    -0.319 OA
BRANCH   8   9
HETATM    9  C   UNK N   1      35.616  13.585  14.946  0.00  0.00     0.258 C 
HETATM   10  O   UNK N   1      36.715  13.930  15.348  0.00  0.00    -0.265 OA
BRANCH   9  11
HETATM   11  C   UNK N   1      34.662  12.911  15.893  0.00  0.00     0.111 C 
BRANCH  11  12
HETATM   12  C   UNK N   1      35.240  12.863  17.294  0.00  0.00     0.005 C 
HETATM   13  C   UNK N   1      35.400  11.419  17.721  0.00  0.00     0.005 C 
ENDBRANCH  11  12
ENDBRANCH   9  11
ENDBRANCH   8   9
ENDBRANCH   7   8
ENDBRANCH   6   7
BRANCH   5  14
HETATM   14  O   UNK N   1      34.956  15.098  10.156  0.00  0.00    -0.311 OA
BRANCH  14  15
HETATM   15  C   UNK N   1      34.852  16.432   9.958  0.00  0.00     0.259 C 
HETATM   16  O   UNK N   1      35.634  17.201  10.518  0.00  0.00    -0.265 OA
BRANCH  15  17
HETATM   17  C   UNK N   1      33.785  16.962   9.052  0.00  0.00     0.111 C 
BRANCH  17  18
HETATM   18  C   UNK N   1      34.340  17.866   7.962  0.00  0.00     0.005 C 
HETATM   19  C   UNK N   1      33.528  17.701   6.696  0.00  0.00     0.005 C 
ENDBRANCH  17  18
ENDBRANCH  15  17
ENDBRANCH  14  15
ENDBRANCH   5  14
BRANCH   1  20
HETATM   20  C   UNK N   1      36.834  11.213  11.255  0.00  0.00     0.273 C 
BRANCH  20  21
HETATM   21  C   UNK N   1      37.386  10.257  12.308  0.00  0.00     0.030 C 
BRANCH  21  22
HETATM   22  C   UNK N   1      37.851  11.006  13.545  0.00  0.00    -0.003 C 
HETATM   23  C   UNK N   1      37.450  10.241  14.789  0.00  0.00     0.005 C 
ENDBRANCH  21  22
ENDBRANCH  20  21
ENDBRANCH   1  20
BRANCH   4  24
HETATM   24  O   UNK N   1      36.569  14.627   7.939  0.00  0.00    -0.311 OA
BRANCH  24  25
HETATM   25  C   UNK N   1      35.790  14.512   6.836  0.00  0.00     0.259 C 
HETATM   26  O   UNK N   1      35.937  15.268   5.886  0.00  0.00    -0.265 OA
BRANCH  25  27
HETATM   27  C   UNK N   1      34.754  13.438   6.766  0.00  0.00     0.111 C 
BRANCH  27  28
HETATM   28  C   UNK N   1      33.385  13.974   7.141  0.00  0.00     0.005 C 
HETATM   29  C   UNK N   1      32.545  14.120   5.888  0.00  0.00     0.005 C 
ENDBRANCH  27  28
ENDBRANCH  25  27
ENDBRANCH  24  25
ENDBRANCH   4  24
BRANCH   3  30
HETATM   30  O   UNK N   1      37.958  11.907   8.445  0.00  0.00    -0.311 OA
BRANCH  30  31
HETATM   31  C   UNK N   1      38.492  11.798   7.206  0.00  0.00     0.259 C 
HETATM   32  O   UNK N   1      37.774  11.753   6.216  0.00  0.00    -0.265 OA
BRANCH  31  33
HETATM   33  C   UNK N   1      39.977  11.735   7.051  0.00  0.00     0.111 C 
BRANCH  33  34
HETATM   34  C   UNK N   1      40.595  10.872   8.141  0.00  0.00     0.005 C 
HETATM   35  C   UNK N   1      41.824  11.544   8.726  0.00  0.00     0.005 C 
ENDBRANCH  33  34
ENDBRANCH  31  33
ENDBRANCH  30  31
ENDBRANCH   3  30
TORSDOF 20
ENDMDL
MODEL 7
REMARK VINA RESULT:      -5.5      2.056      5.813
REMARK  20 active torsions:
REMARK  status: ('A' for Active; 'I' for Inactive)
REMARK    1  A    between atoms: C_2  and  C_3 
REMARK    2  A    between atoms: C_3  and  C_4 
REMARK    3  A    between atoms: C_4  and  N_5 
REMARK    4  A    between atoms: C_7  and  O_30 
REMARK    5  A    between atoms: C_8  and  O_24 
REMARK    6  A    between atoms: C_9  and  O_18 
REMARK    7  A    between atoms: C_10  and  C_11 
REMARK    8  A    between atoms: C_11  and  O_12 
REMARK    9  A    between atoms: O_12  and  C_13 
REMARK   10  A    between atoms: C_13  and  C_15 
REMARK   11  A    between atoms: C_15  and  C_16 
REMARK   12  A    between atoms: O_18  and  C_19 
REMARK   13  A    between atoms: C_19  and  C_21 
REMARK   14  A    between atoms: C_21  and  C_22 
REMARK   15  A    between atoms: O_24  and  C_25 
REMARK   16  A    between atoms: C_25  and  C_27 
REMARK   17  A    between atoms: C_27  and  C_28 
REMARK   18  A    between atoms: O_30  and  C_31 
REMARK   19  A    between atoms: C_31  and  C_33 
REMARK   20  A    between atoms: C_33  and  C_34 
ROOT
HETATM    1  N   UNK N   1      25.661  16.129   5.079  0.00  0.00     0.100 N 
HETATM    2  C   UNK N   1      25.038  14.800   4.980  0.00  0.00     0.308 C 
HETATM    3  C   UNK N   1      23.788  14.645   5.865  0.00  0.00     0.192 C 
HETATM    4  C   UNK N   1      22.938  15.910   5.975  0.00  0.00     0.195 C 
HETATM    5  C   UNK N   1      23.247  16.842   4.815  0.00  0.00     0.199 C 
HETATM    6  C   UNK N   1      24.732  17.247   4.814  0.00  0.00     0.279 C 
ENDROOT
BRANCH   6   7
HETATM    7  C   UNK N   1      25.056  17.868   3.462  0.00  0.00     0.217 C 
BRANCH   7   8
HETATM    8  O   UNK N   1      24.889  19.234   3.493  0.00  0.00    -0.319 OA
BRANCH   8   9
HETATM    9  C   UNK N   1      25.911  20.089   3.241  0.00  0.00     0.258 C 
HETATM   10  O   UNK N   1      25.810  20.888   2.324  0.00  0.00    -0.265 OA
BRANCH   9  11
HETATM   11  C   UNK N   1      27.150  20.096   4.092  0.00  0.00     0.111 C 
BRANCH  11  12
HETATM   12  C   UNK N   1      26.926  20.895   5.361  0.00  0.00     0.005 C 
HETATM   13  C   UNK N   1      27.374  20.078   6.554  0.00  0.00     0.005 C 
ENDBRANCH  11  12
ENDBRANCH   9  11
ENDBRANCH   8   9
ENDBRANCH   7   8
ENDBRANCH   6   7
BRANCH   5  14
HETATM   14  O   UNK N   1      22.451  17.966   4.855  0.00  0.00    -0.311 OA
BRANCH  14  15
HETATM   15  C   UNK N   1      21.548  18.240   3.887  0.00  0.00     0.259 C 
HETATM   16  O   UNK N   1      21.185  17.354   3.113  0.00  0.00    -0.265 OA
BRANCH  15  17
HETATM   17  C   UNK N   1      20.991  19.624   3.769  0.00  0.00     0.111 C 
BRANCH  17  18
HETATM   18  C   UNK N   1      21.694  20.450   2.703  0.00  0.00     0.005 C 
HETATM   19  C   UNK N   1      20.846  20.498   1.451  0.00  0.00     0.005 C 
ENDBRANCH  17  18
ENDBRANCH  15  17
ENDBRANCH  14  15
ENDBRANCH   5  14
BRANCH   1  20
HETATM   20  C   UNK N   1      26.291  16.307   6.383  0.00  0.00     0.273 C 
BRANCH  20  21
HETATM   21  C   UNK N   1      27.797  16.094   6.279  0.00  0.00     0.030 C 
BRANCH  21  22
HETATM   22  C   UNK N   1      28.336  16.595   4.950  0.00  0.00    -0.003 C 
HETATM   23  C   UNK N   1      29.569  17.443   5.183  0.00  0.00     0.005 C 
ENDBRANCH  21  22
ENDBRANCH  20  21
ENDBRANCH   1  20
BRANCH   4  24
HETATM   24  O   UNK N   1      21.609  15.539   5.923  0.00  0.00    -0.311 OA
BRANCH  24  25
HETATM   25  C   UNK N   1      20.757  15.672   6.968  0.00  0.00     0.259 C 
HETATM   26  O   UNK N   1      20.220  14.692   7.465  0.00  0.00    -0.265 OA
BRANCH  25  27
HETATM   27  C   UNK N   1      20.484  17.026   7.538  0.00  0.00     0.111 C 
BRANCH  27  28
HETATM   28  C   UNK N   1      19.429  16.957   8.626  0.00  0.00     0.005 C 
HETATM   29  C   UNK N   1      19.367  18.289   9.348  0.00  0.00     0.005 C 
ENDBRANCH  27  28
ENDBRANCH  25  27
ENDBRANCH  24  25
ENDBRANCH   4  24
BRANCH   3  30
HETATM   30  O   UNK N   1      24.131  14.201   7.120  0.00  0.00    -0.311 OA
BRANCH  30  31
HETATM   31  C   UNK N   1      23.729  12.999   7.594  0.00  0.00     0.259 C 
HETATM   32  O   UNK N   1      22.876  12.347   7.006  0.00  0.00    -0.265 OA
BRANCH  31  33
HETATM   33  C   UNK N   1      24.338  12.465   8.849  0.00  0.00     0.111 C 
BRANCH  33  34
HETATM   34  C   UNK N   1      23.492  12.836  10.058  0.00  0.00     0.005 C 
HETATM   35  C   UNK N   1      22.818  11.606  10.640  0.00  0.00     0.005 C 
ENDBRANCH  33  34
ENDBRANCH  31  33
ENDBRANCH  30  31
ENDBRANCH   3  30
TORSDOF 20
ENDMDL
MODEL 8
REMARK VINA RESULT:      -5.5     14.659     16.796
REMARK  20 active torsions:
REMARK  status: ('A' for Active; 'I' for Inactive)
REMARK    1  A    between atoms: C_2  and  C_3 
REMARK    2  A    between atoms: C_3  and  C_4 
REMARK    3  A    between atoms: C_4  and  N_5 
REMARK    4  A    between atoms: C_7  and  O_30 
REMARK    5  A    between atoms: C_8  and  O_24 
REMARK    6  A    between atoms: C_9  and  O_18 
REMARK    7  A    between atoms: C_10  and  C_11 
REMARK    8  A    between atoms: C_11  and  O_12 
REMARK    9  A    between atoms: O_12  and  C_13 
REMARK   10  A    between atoms: C_13  and  C_15 
REMARK   11  A    between atoms: C_15  and  C_16 
REMARK   12  A    between atoms: O_18  and  C_19 
REMARK   13  A    between atoms: C_19  and  C_21 
REMARK   14  A    between atoms: C_21  and  C_22 
REMARK   15  A    between atoms: O_24  and  C_25 
REMARK   16  A    between atoms: C_25  and  C_27 
REMARK   17  A    between atoms: C_27  and  C_28 
REMARK   18  A    between atoms: O_30  and  C_31 
REMARK   19  A    between atoms: C_31  and  C_33 
REMARK   20  A    between atoms: C_33  and  C_34 
ROOT
HETATM    1  N   UNK N   1      28.113  25.167  -6.199  0.00  0.00     0.100 N 
HETATM    2  C   UNK N   1      27.228  24.001  -6.354  0.00  0.00     0.308 C 
HETATM    3  C   UNK N   1      27.974  22.722  -6.779  0.00  0.00     0.192 C 
HETATM    4  C   UNK N   1      29.370  22.581  -6.173  0.00  0.00     0.195 C 
HETATM    5  C   UNK N   1      29.487  23.458  -4.937  0.00  0.00     0.199 C 
HETATM    6  C   UNK N   1      29.251  24.938  -5.286  0.00  0.00     0.279 C 
ENDROOT
BRANCH   6   7
HETATM    7  C   UNK N   1      29.024  25.703  -3.989  0.00  0.00     0.217 C 
BRANCH   7   8
HETATM    8  O   UNK N   1      27.976  26.586  -4.113  0.00  0.00    -0.319 OA
BRANCH   8   9
HETATM    9  C   UNK N   1      26.782  26.374  -3.505  0.00  0.00     0.258 C 
HETATM   10  O   UNK N   1      26.539  25.279  -3.027  0.00  0.00    -0.265 OA
BRANCH   9  11
HETATM   11  C   UNK N   1      25.767  27.476  -3.376  0.00  0.00     0.111 C 
BRANCH  11  12
HETATM   12  C   UNK N   1      25.445  28.072  -4.733  0.00  0.00     0.005 C 
HETATM   13  C   UNK N   1      24.836  27.005  -5.618  0.00  0.00     0.005 C 
ENDBRANCH  11  12
ENDBRANCH   9  11
ENDBRANCH   8   9
ENDBRANCH   7   8
ENDBRANCH   6   7
BRANCH   5  14
HETATM   14  O   UNK N   1      30.716  23.304  -4.334  0.00  0.00    -0.311 OA
BRANCH  14  15
HETATM   15  C   UNK N   1      30.847  22.783  -3.094  0.00  0.00     0.259 C 
HETATM   16  O   UNK N   1      30.190  23.243  -2.159  0.00  0.00    -0.265 OA
BRANCH  15  17
HETATM   17  C   UNK N   1      31.790  21.643  -2.868  0.00  0.00     0.111 C 
BRANCH  17  18
HETATM   18  C   UNK N   1      32.998  21.691  -3.791  0.00  0.00     0.005 C 
HETATM   19  C   UNK N   1      33.896  20.504  -3.521  0.00  0.00     0.005 C 
ENDBRANCH  17  18
ENDBRANCH  15  17
ENDBRANCH  14  15
ENDBRANCH   5  14
BRANCH   1  20
HETATM   20  C   UNK N   1      28.603  25.618  -7.498  0.00  0.00     0.273 C 
BRANCH  20  21
HETATM   21  C   UNK N   1      29.107  27.055  -7.405  0.00  0.00     0.030 C 
BRANCH  21  22
HETATM   22  C   UNK N   1      27.958  28.048  -7.440  0.00  0.00    -0.003 C 
HETATM   23  C   UNK N   1      28.328  29.288  -6.654  0.00  0.00     0.005 C 
ENDBRANCH  21  22
ENDBRANCH  20  21
ENDBRANCH   1  20
BRANCH   4  24
HETATM   24  O   UNK N   1      29.550  21.260  -5.816  0.00  0.00    -0.311 OA
BRANCH  24  25
HETATM   25  C   UNK N   1      30.249  20.374  -6.567  0.00  0.00     0.259 C 
HETATM   26  O   UNK N   1      31.471  20.359  -6.540  0.00  0.00    -0.265 OA
BRANCH  25  27
HETATM   27  C   UNK N   1      29.523  19.387  -7.422  0.00  0.00     0.111 C 
BRANCH  27  28
HETATM   28  C   UNK N   1      30.120  19.329  -8.816  0.00  0.00     0.005 C 
HETATM   29  C   UNK N   1      30.571  17.913  -9.109  0.00  0.00     0.005 C 
ENDBRANCH  27  28
ENDBRANCH  25  27
ENDBRANCH  24  25
ENDBRANCH   4  24
BRANCH   3  30
HETATM   30  O   UNK N   1      28.048  22.633  -8.149  0.00  0.00    -0.311 OA
BRANCH  30  31
HETATM   31  C   UNK N   1      27.022  22.163  -8.896  0.00  0.00     0.259 C 
HETATM   32  O   UNK N   1      27.028  21.013  -9.316  0.00  0.00    -0.265 OA
BRANCH  31  33
HETATM   33  C   UNK N   1      25.870  23.062  -9.207  0.00  0.00     0.111 C 
BRANCH  33  34
HETATM   34  C   UNK N   1      26.337  24.288  -9.979  0.00  0.00     0.005 C 
HETATM   35  C   UNK N   1      25.542  25.515  -9.569  0.00  0.00     0.005 C 
ENDBRANCH  33  34
ENDBRANCH  31  33
ENDBRANCH  30  31
ENDBRANCH   3  30
TORSDOF 20
ENDMDL
MODEL 9
REMARK VINA RESULT:      -5.4      6.019      9.651
REMARK  20 active torsions:
REMARK  status: ('A' for Active; 'I' for Inactive)
REMARK    1  A    between atoms: C_2  and  C_3 
REMARK    2  A    between atoms: C_3  and  C_4 
REMARK    3  A    between atoms: C_4  and  N_5 
REMARK    4  A    between atoms: C_7  and  O_30 
REMARK    5  A    between atoms: C_8  and  O_24 
REMARK    6  A    between atoms: C_9  and  O_18 
REMARK    7  A    between atoms: C_10  and  C_11 
REMARK    8  A    between atoms: C_11  and  O_12 
REMARK    9  A    between atoms: O_12  and  C_13 
REMARK   10  A    between atoms: C_13  and  C_15 
REMARK   11  A    between atoms: C_15  and  C_16 
REMARK   12  A    between atoms: O_18  and  C_19 
REMARK   13  A    between atoms: C_19  and  C_21 
REMARK   14  A    between atoms: C_21  and  C_22 
REMARK   15  A    between atoms: O_24  and  C_25 
REMARK   16  A    between atoms: C_25  and  C_27 
REMARK   17  A    between atoms: C_27  and  C_28 
REMARK   18  A    between atoms: O_30  and  C_31 
REMARK   19  A    between atoms: C_31  and  C_33 
REMARK   20  A    between atoms: C_33  and  C_34 
ROOT
HETATM    1  N   UNK N   1      28.265  17.204   5.253  0.00  0.00     0.100 N 
HETATM    2  C   UNK N   1      29.309  17.503   4.260  0.00  0.00     0.308 C 
HETATM    3  C   UNK N   1      29.898  16.244   3.597  0.00  0.00     0.192 C 
HETATM    4  C   UNK N   1      28.883  15.125   3.365  0.00  0.00     0.195 C 
HETATM    5  C   UNK N   1      27.473  15.696   3.381  0.00  0.00     0.199 C 
HETATM    6  C   UNK N   1      27.165  16.367   4.732  0.00  0.00     0.279 C 
ENDROOT
BRANCH   6   7
HETATM    7  C   UNK N   1      25.912  17.215   4.568  0.00  0.00     0.217 C 
BRANCH   7   8
HETATM    8  O   UNK N   1      26.007  18.025   3.459  0.00  0.00    -0.319 OA
BRANCH   8   9
HETATM    9  C   UNK N   1      25.778  19.361   3.522  0.00  0.00     0.258 C 
HETATM   10  O   UNK N   1      24.694  19.800   3.176  0.00  0.00    -0.265 OA
BRANCH   9  11
HETATM   11  C   UNK N   1      26.823  20.306   4.046  0.00  0.00     0.111 C 
BRANCH  11  12
HETATM   12  C   UNK N   1      26.465  20.786   5.439  0.00  0.00     0.005 C 
HETATM   13  C   UNK N   1      27.724  20.888   6.274  0.00  0.00     0.005 C 
ENDBRANCH  11  12
ENDBRANCH   9  11
ENDBRANCH   8   9
ENDBRANCH   7   8
ENDBRANCH   6   7
BRANCH   5  14
HETATM   14  O   UNK N   1      26.539  14.719   3.114  0.00  0.00    -0.311 OA
BRANCH  14  15
HETATM   15  C   UNK N   1      25.781  14.739   1.995  0.00  0.00     0.259 C 
HETATM   16  O   UNK N   1      25.952  15.618   1.149  0.00  0.00    -0.265 OA
BRANCH  15  17
HETATM   17  C   UNK N   1      24.740  13.683   1.791  0.00  0.00     0.111 C 
BRANCH  17  18
HETATM   18  C   UNK N   1      23.828  13.980   0.611  0.00  0.00     0.005 C 
HETATM   19  C   UNK N   1      23.571  12.711  -0.171  0.00  0.00     0.005 C 
ENDBRANCH  17  18
ENDBRANCH  15  17
ENDBRANCH  14  15
ENDBRANCH   5  14
BRANCH   1  20
HETATM   20  C   UNK N   1      28.844  16.582   6.439  0.00  0.00     0.273 C 
BRANCH  20  21
HETATM   21  C   UNK N   1      29.862  17.515   7.085  0.00  0.00     0.030 C 
BRANCH  21  22
HETATM   22  C   UNK N   1      29.935  17.298   8.587  0.00  0.00    -0.003 C 
HETATM   23  C   UNK N   1      29.276  18.456   9.305  0.00  0.00     0.005 C 
ENDBRANCH  21  22
ENDBRANCH  20  21
ENDBRANCH   1  20
BRANCH   4  24
HETATM   24  O   UNK N   1      29.136  14.567   2.128  0.00  0.00    -0.311 OA
BRANCH  24  25
HETATM   25  C   UNK N   1      29.562  13.291   1.961  0.00  0.00     0.259 C 
HETATM   26  O   UNK N   1      30.626  12.920   2.437  0.00  0.00    -0.265 OA
BRANCH  25  27
HETATM   27  C   UNK N   1      28.717  12.317   1.206  0.00  0.00     0.111 C 
BRANCH  27  28
HETATM   28  C   UNK N   1      29.574  11.285   0.498  0.00  0.00     0.005 C 
HETATM   29  C   UNK N   1      29.947  11.802  -0.877  0.00  0.00     0.005 C 
ENDBRANCH  27  28
ENDBRANCH  25  27
ENDBRANCH  24  25
ENDBRANCH   4  24
BRANCH   3  30
HETATM   30  O   UNK N   1      30.964  15.764   4.321  0.00  0.00    -0.311 OA
BRANCH  30  31
HETATM   31  C   UNK N   1      32.237  15.859   3.875  0.00  0.00     0.259 C 
HETATM   32  O   UNK N   1      32.498  15.712   2.688  0.00  0.00    -0.265 OA
BRANCH  31  33
HETATM   33  C   UNK N   1      33.335  16.146   4.847  0.00  0.00     0.111 C 
BRANCH  33  34
HETATM   34  C   UNK N   1      33.235  17.573   5.365  0.00  0.00     0.005 C 
HETATM   35  C   UNK N   1      33.662  17.647   6.820  0.00  0.00     0.005 C 
ENDBRANCH  33  34
ENDBRANCH  31  33
ENDBRANCH  30  31
ENDBRANCH   3  30
TORSDOF 20
ENDMDL
