MODEL 1
REMARK VINA RESULT:      -7.6      0.000      0.000
REMARK  6 active torsions:
REMARK  status: ('A' for Active; 'I' for Inactive)
REMARK    1  A    between atoms: C_4  and  O_38 
REMARK    2  A    between atoms: C_5  and  O_37 
REMARK    3  A    between atoms: C_9  and  O_31 
REMARK    4  A    between atoms: C_10  and  O_29 
REMARK    5  A    between atoms: C_22  and  N_27 
REMARK    6  A    between atoms: O_31  and  C_32 
REMARK       I    between atoms: C_32  and  N_34 
ROOT
HETATM    1  C   UNK N   1      26.428  26.886  -5.193  0.00  0.00     0.010 C 
HETATM    2  C   UNK N   1      26.875  27.812  -6.315  0.00  0.00    -0.012 C 
HETATM    3  C   UNK N   1      28.020  28.763  -5.925  0.00  0.00     0.039 C 
HETATM    4  C   UNK N   1      29.213  28.140  -5.170  0.00  0.00     0.150 C 
HETATM    5  C   UNK N   1      29.808  26.878  -5.839  0.00  0.00     0.154 C 
HETATM    6  C   UNK N   1      30.760  26.014  -4.986  0.00  0.00     0.035 C 
HETATM    7  C   UNK N   1      29.995  25.145  -4.020  0.00  0.00    -0.015 C 
HETATM    8  C   UNK N   1      30.249  23.848  -3.728  0.00  0.00    -0.055 C 
HETATM    9  C   UNK N   1      31.412  23.042  -4.324  0.00  0.00     0.194 C 
HETATM   10  C   UNK N   1      31.562  21.615  -3.708  0.00  0.00     0.177 C 
HETATM   11  C   UNK N   1      32.073  20.483  -4.582  0.00  0.00     0.008 C 
HETATM   12  C   UNK N   1      31.468  20.057  -5.694  0.00  0.00    -0.001 C 
HETATM   13  C   UNK N   1      30.271  20.713  -6.238  0.00  0.00     0.012 C 
HETATM   14  C   UNK N   1      29.607  20.254  -7.311  0.00  0.00     0.006 C 
HETATM   15  C   UNK N   1      28.496  21.057  -7.865  0.00  0.00     0.251 C 
HETATM   16  O   UNK N   1      27.942  20.695  -8.895  0.00  0.00    -0.268 OA
HETATM   17  N   UNK N   1      28.187  22.247  -7.288  0.00  0.00    -0.320 N 
HETATM   18  C   UNK N   1      27.294  23.236  -7.793  0.00  0.00     0.090 C 
HETATM   19  C   UNK N   1      26.438  22.991  -8.800  0.00  0.00     0.090 C 
HETATM   20  C   UNK N   1      25.648  24.092  -9.390  0.00  0.00     0.201 C 
HETATM   21  O   UNK N   1      24.844  23.850 -10.277  0.00  0.00    -0.286 OA
HETATM   22  C   UNK N   1      25.919  25.495  -8.983  0.00  0.00     0.086 C 
HETATM   23  C   UNK N   1      26.783  25.749  -7.975  0.00  0.00     0.025 C 
HETATM   24  C   UNK N   1      27.191  27.171  -7.666  0.00  0.00     0.049 C 
HETATM   25  C   UNK N   1      27.436  24.608  -7.279  0.00  0.00     0.207 C 
HETATM   26  O   UNK N   1      28.155  24.802  -6.317  0.00  0.00    -0.285 OA
HETATM   27  C   UNK N   1      30.046  19.004  -8.012  0.00  0.00     0.054 C 
HETATM   28  C   UNK N   1      29.327  23.186  -2.754  0.00  0.00     0.046 C 
HETATM   29  C   UNK N   1      31.773  26.885  -4.262  0.00  0.00     0.017 C 
HETATM   30  H   UNK N   1      28.625  22.446  -6.428  0.00  0.00     0.169 HD
ENDROOT
BRANCH   9  31
HETATM   31  O   UNK N   1      32.613  23.737  -4.351  0.00  0.00    -0.291 OA
BRANCH  31  32
HETATM   32  C   UNK N   1      33.569  23.655  -5.318  0.00  0.00     0.359 C 
HETATM   33  O   UNK N   1      34.605  23.057  -5.084  0.00  0.00    -0.239 OA
HETATM   34  N   UNK N   1      33.373  24.184  -6.545  0.00  0.00    -0.346 N 
HETATM   35  H   UNK N   1      33.283  24.885  -7.231  0.00  0.00     0.161 HD
HETATM   36  H   UNK N   1      33.234  23.372  -7.084  0.00  0.00     0.161 HD
ENDBRANCH  31  32
ENDBRANCH   9  31
BRANCH  10  37
HETATM   37  O   UNK N   1      32.063  21.585  -2.384  0.00  0.00    -0.384 OA
HETATM   38  C   UNK N   1      33.366  21.053  -2.382  0.00  0.00     0.202 C 
ENDBRANCH  10  37
BRANCH   5  39
HETATM   39  O   UNK N   1      30.428  27.230  -7.039  0.00  0.00    -0.392 OA
HETATM   40  H   UNK N   1      30.811  27.224  -7.929  0.00  0.00     0.210 HD
ENDBRANCH   5  39
BRANCH   4  41
HETATM   41  O   UNK N   1      28.886  27.948  -3.826  0.00  0.00    -0.388 OA
HETATM   42  C   UNK N   1      28.915  29.235  -3.276  0.00  0.00     0.202 C 
ENDBRANCH   4  41
BRANCH  22  43
HETATM   43  N   UNK N   1      25.307  26.559  -9.689  0.00  0.00    -0.395 N 
HETATM   44  H   UNK N   1      25.404  27.496  -9.404  0.00  0.00     0.156 HD
HETATM   45  H   UNK N   1      24.770  26.355 -10.489  0.00  0.00     0.156 HD
ENDBRANCH  22  43
TORSDOF 6
ENDMDL
MODEL 2
REMARK VINA RESULT:      -7.1     14.102     16.294
REMARK  6 active torsions:
REMARK  status: ('A' for Active; 'I' for Inactive)
REMARK    1  A    between atoms: C_4  and  O_38 
REMARK    2  A    between atoms: C_5  and  O_37 
REMARK    3  A    between atoms: C_9  and  O_31 
REMARK    4  A    between atoms: C_10  and  O_29 
REMARK    5  A    between atoms: C_22  and  N_27 
REMARK    6  A    between atoms: O_31  and  C_32 
REMARK       I    between atoms: C_32  and  N_34 
ROOT
HETATM    1  C   UNK N   1      30.818  12.904   1.694  0.00  0.00     0.010 C 
HETATM    2  C   UNK N   1      30.459  11.516   2.206  0.00  0.00    -0.012 C 
HETATM    3  C   UNK N   1      31.670  10.678   2.650  0.00  0.00     0.039 C 
HETATM    4  C   UNK N   1      32.710  11.383   3.546  0.00  0.00     0.150 C 
HETATM    5  C   UNK N   1      32.114  12.102   4.779  0.00  0.00     0.154 C 
HETATM    6  C   UNK N   1      33.028  13.100   5.521  0.00  0.00     0.035 C 
HETATM    7  C   UNK N   1      33.112  14.416   4.789  0.00  0.00    -0.015 C 
HETATM    8  C   UNK N   1      33.078  15.650   5.344  0.00  0.00    -0.055 C 
HETATM    9  C   UNK N   1      32.981  15.914   6.854  0.00  0.00     0.194 C 
HETATM   10  C   UNK N   1      33.108  17.424   7.232  0.00  0.00     0.177 C 
HETATM   11  C   UNK N   1      32.344  17.950   8.435  0.00  0.00     0.008 C 
HETATM   12  C   UNK N   1      31.014  17.919   8.556  0.00  0.00    -0.001 C 
HETATM   13  C   UNK N   1      30.148  17.280   7.555  0.00  0.00     0.012 C 
HETATM   14  C   UNK N   1      28.808  17.305   7.623  0.00  0.00     0.006 C 
HETATM   15  C   UNK N   1      28.025  16.521   6.645  0.00  0.00     0.251 C 
HETATM   16  O   UNK N   1      26.806  16.462   6.751  0.00  0.00    -0.268 OA
HETATM   17  N   UNK N   1      28.680  15.779   5.715  0.00  0.00    -0.320 N 
HETATM   18  C   UNK N   1      28.110  14.818   4.830  0.00  0.00     0.090 C 
HETATM   19  C   UNK N   1      26.784  14.714   4.633  0.00  0.00     0.090 C 
HETATM   20  C   UNK N   1      26.237  13.601   3.830  0.00  0.00     0.201 C 
HETATM   21  O   UNK N   1      25.035  13.539   3.624  0.00  0.00    -0.286 OA
HETATM   22  C   UNK N   1      27.134  12.506   3.377  0.00  0.00     0.086 C 
HETATM   23  C   UNK N   1      28.467  12.603   3.576  0.00  0.00     0.025 C 
HETATM   24  C   UNK N   1      29.367  11.426   3.272  0.00  0.00     0.049 C 
HETATM   25  C   UNK N   1      29.013  13.819   4.235  0.00  0.00     0.207 C 
HETATM   26  O   UNK N   1      30.215  13.969   4.356  0.00  0.00    -0.285 OA
HETATM   27  C   UNK N   1      28.106  18.025   8.735  0.00  0.00     0.054 C 
HETATM   28  C   UNK N   1      33.147  16.811   4.405  0.00  0.00     0.046 C 
HETATM   29  C   UNK N   1      34.407  12.502   5.743  0.00  0.00     0.017 C 
HETATM   30  H   UNK N   1      29.652  15.922   5.643  0.00  0.00     0.169 HD
ENDROOT
BRANCH   9  31
HETATM   31  O   UNK N   1      33.816  15.105   7.613  0.00  0.00    -0.291 OA
BRANCH  31  32
HETATM   32  C   UNK N   1      33.546  14.609   8.852  0.00  0.00     0.359 C 
HETATM   33  O   UNK N   1      34.148  15.049   9.816  0.00  0.00    -0.239 OA
HETATM   34  N   UNK N   1      32.594  13.669   9.039  0.00  0.00    -0.346 N 
HETATM   35  H   UNK N   1      32.176  12.778   9.010  0.00  0.00     0.161 HD
HETATM   36  H   UNK N   1      31.882  14.200   9.464  0.00  0.00     0.161 HD
ENDBRANCH  31  32
ENDBRANCH   9  31
BRANCH  10  37
HETATM   37  O   UNK N   1      34.408  17.967   7.098  0.00  0.00    -0.384 OA
HETATM   38  C   UNK N   1      34.793  18.579   8.307  0.00  0.00     0.202 C 
ENDBRANCH  10  37
BRANCH   5  39
HETATM   39  O   UNK N   1      31.609  11.160   5.676  0.00  0.00    -0.392 OA
HETATM   40  H   UNK N   1      31.472  10.375   6.228  0.00  0.00     0.210 HD
ENDBRANCH   5  39
BRANCH   4  41
HETATM   41  O   UNK N   1      33.534  12.204   2.775  0.00  0.00    -0.388 OA
HETATM   42  C   UNK N   1      34.385  11.315   2.111  0.00  0.00     0.202 C 
ENDBRANCH   4  41
BRANCH  22  43
HETATM   43  N   UNK N   1      26.579  11.347   2.784  0.00  0.00    -0.395 N 
HETATM   44  H   UNK N   1      27.096  10.779   2.169  0.00  0.00     0.156 HD
HETATM   45  H   UNK N   1      25.648  11.102   2.993  0.00  0.00     0.156 HD
ENDBRANCH  22  43
TORSDOF 6
ENDMDL
MODEL 3
REMARK VINA RESULT:      -7.0     15.866     20.383
REMARK  6 active torsions:
REMARK  status: ('A' for Active; 'I' for Inactive)
REMARK    1  A    between atoms: C_4  and  O_38 
REMARK    2  A    between atoms: C_5  and  O_37 
REMARK    3  A    between atoms: C_9  and  O_31 
REMARK    4  A    between atoms: C_10  and  O_29 
REMARK    5  A    between atoms: C_22  and  N_27 
REMARK    6  A    between atoms: O_31  and  C_32 
REMARK       I    between atoms: C_32  and  N_34 
ROOT
HETATM    1  C   UNK N   1      36.183  14.602   5.908  0.00  0.00     0.010 C 
HETATM    2  C   UNK N   1      34.932  15.440   5.689  0.00  0.00    -0.012 C 
HETATM    3  C   UNK N   1      34.002  14.902   4.588  0.00  0.00     0.039 C 
HETATM    4  C   UNK N   1      33.696  13.390   4.615  0.00  0.00     0.150 C 
HETATM    5  C   UNK N   1      33.219  12.855   5.986  0.00  0.00     0.154 C 
HETATM    6  C   UNK N   1      33.224  11.325   6.184  0.00  0.00     0.035 C 
HETATM    7  C   UNK N   1      34.614  10.813   6.464  0.00  0.00    -0.015 C 
HETATM    8  C   UNK N   1      34.959   9.879   7.381  0.00  0.00    -0.055 C 
HETATM    9  C   UNK N   1      33.957   9.146   8.285  0.00  0.00     0.194 C 
HETATM   10  C   UNK N   1      34.605   8.017   9.148  0.00  0.00     0.177 C 
HETATM   11  C   UNK N   1      34.038   7.723  10.526  0.00  0.00     0.008 C 
HETATM   12  C   UNK N   1      33.989   8.608  11.525  0.00  0.00    -0.001 C 
HETATM   13  C   UNK N   1      34.409  10.007  11.358  0.00  0.00     0.012 C 
HETATM   14  C   UNK N   1      34.438  10.889  12.369  0.00  0.00     0.006 C 
HETATM   15  C   UNK N   1      34.744  12.305  12.077  0.00  0.00     0.251 C 
HETATM   16  O   UNK N   1      34.685  13.136  12.975  0.00  0.00    -0.268 OA
HETATM   17  N   UNK N   1      34.969  12.683  10.792  0.00  0.00    -0.320 N 
HETATM   18  C   UNK N   1      35.082  14.015  10.298  0.00  0.00     0.090 C 
HETATM   19  C   UNK N   1      35.235  15.076  11.110  0.00  0.00     0.090 C 
HETATM   20  C   UNK N   1      35.187  16.447  10.560  0.00  0.00     0.201 C 
HETATM   21  O   UNK N   1      35.367  17.401  11.300  0.00  0.00    -0.286 OA
HETATM   22  C   UNK N   1      34.808  16.659   9.139  0.00  0.00     0.086 C 
HETATM   23  C   UNK N   1      34.647  15.596   8.319  0.00  0.00     0.025 C 
HETATM   24  C   UNK N   1      34.101  15.791   6.923  0.00  0.00     0.049 C 
HETATM   25  C   UNK N   1      34.872  14.229   8.857  0.00  0.00     0.207 C 
HETATM   26  O   UNK N   1      34.813  13.259   8.123  0.00  0.00    -0.285 OA
HETATM   27  C   UNK N   1      34.060  10.479  13.760  0.00  0.00     0.054 C 
HETATM   28  C   UNK N   1      36.415   9.555   7.496  0.00  0.00     0.046 C 
HETATM   29  C   UNK N   1      32.609  10.626   4.984  0.00  0.00     0.017 C 
HETATM   30  H   UNK N   1      35.067  11.959  10.131  0.00  0.00     0.169 HD
ENDROOT
BRANCH   9  31
HETATM   31  O   UNK N   1      32.818   8.717   7.617  0.00  0.00    -0.291 OA
BRANCH  31  32
HETATM   32  C   UNK N   1      31.530   8.939   7.998  0.00  0.00     0.359 C 
HETATM   33  O   UNK N   1      31.304   9.387   9.109  0.00  0.00    -0.239 OA
HETATM   34  N   UNK N   1      30.500   8.714   7.153  0.00  0.00    -0.346 N 
HETATM   35  H   UNK N   1      29.851   8.193   6.627  0.00  0.00     0.161 HD
HETATM   36  H   UNK N   1      30.237   9.635   6.923  0.00  0.00     0.161 HD
ENDBRANCH  31  32
ENDBRANCH   9  31
BRANCH  10  37
HETATM   37  O   UNK N   1      34.985   6.858   8.428  0.00  0.00    -0.384 OA
HETATM   38  C   UNK N   1      35.987   6.168   9.137  0.00  0.00     0.202 C 
ENDBRANCH  10  37
BRANCH   5  39
HETATM   39  O   UNK N   1      31.956  13.371   6.279  0.00  0.00    -0.392 OA
HETATM   40  H   UNK N   1      31.098  13.568   6.686  0.00  0.00     0.210 HD
ENDBRANCH   5  39
BRANCH   4  41
HETATM   41  O   UNK N   1      34.771  12.671   4.088  0.00  0.00    -0.388 OA
HETATM   42  C   UNK N   1      34.744  12.964   2.720  0.00  0.00     0.202 C 
ENDBRANCH   4  41
BRANCH  22  43
HETATM   43  N   UNK N   1      34.568  17.972   8.667  0.00  0.00    -0.395 N 
HETATM   44  H   UNK N   1      35.186  18.714   8.858  0.00  0.00     0.156 HD
HETATM   45  H   UNK N   1      33.759  18.149   8.133  0.00  0.00     0.156 HD
ENDBRANCH  22  43
TORSDOF 6
ENDMDL
MODEL 4
REMARK VINA RESULT:      -7.0     13.118     16.002
REMARK  6 active torsions:
REMARK  status: ('A' for Active; 'I' for Inactive)
REMARK    1  A    between atoms: C_4  and  O_38 
REMARK    2  A    between atoms: C_5  and  O_37 
REMARK    3  A    between atoms: C_9  and  O_31 
REMARK    4  A    between atoms: C_10  and  O_29 
REMARK    5  A    between atoms: C_22  and  N_27 
REMARK    6  A    between atoms: O_31  and  C_32 
REMARK       I    between atoms: C_32  and  N_34 
ROOT
HETATM    1  C   UNK N   1      32.746  14.938   9.503  0.00  0.00     0.010 C 
HETATM    2  C   UNK N   1      33.348  16.334   9.420  0.00  0.00    -0.012 C 
HETATM    3  C   UNK N   1      34.840  16.352   9.046  0.00  0.00     0.039 C 
HETATM    4  C   UNK N   1      35.270  15.458   7.864  0.00  0.00     0.150 C 
HETATM    5  C   UNK N   1      34.424  15.637   6.581  0.00  0.00     0.154 C 
HETATM    6  C   UNK N   1      34.566  14.556   5.489  0.00  0.00     0.035 C 
HETATM    7  C   UNK N   1      33.780  13.317   5.838  0.00  0.00    -0.015 C 
HETATM    8  C   UNK N   1      33.022  12.580   4.994  0.00  0.00    -0.055 C 
HETATM    9  C   UNK N   1      32.864  12.875   3.495  0.00  0.00     0.194 C 
HETATM   10  C   UNK N   1      32.052  11.784   2.727  0.00  0.00     0.177 C 
HETATM   11  C   UNK N   1      31.193  12.199   1.545  0.00  0.00     0.008 C 
HETATM   12  C   UNK N   1      30.174  13.061   1.620  0.00  0.00    -0.001 C 
HETATM   13  C   UNK N   1      29.835  13.771   2.861  0.00  0.00     0.012 C 
HETATM   14  C   UNK N   1      28.771  14.582   2.973  0.00  0.00     0.006 C 
HETATM   15  C   UNK N   1      28.588  15.357   4.219  0.00  0.00     0.251 C 
HETATM   16  O   UNK N   1      27.673  16.167   4.300  0.00  0.00    -0.268 OA
HETATM   17  N   UNK N   1      29.510  15.246   5.210  0.00  0.00    -0.320 N 
HETATM   18  C   UNK N   1      29.608  16.050   6.382  0.00  0.00     0.090 C 
HETATM   19  C   UNK N   1      28.620  16.872   6.779  0.00  0.00     0.090 C 
HETATM   20  C   UNK N   1      28.834  17.800   7.909  0.00  0.00     0.201 C 
HETATM   21  O   UNK N   1      27.918  18.513   8.287  0.00  0.00    -0.286 OA
HETATM   22  C   UNK N   1      30.190  17.942   8.502  0.00  0.00     0.086 C 
HETATM   23  C   UNK N   1      31.188  17.122   8.103  0.00  0.00     0.025 C 
HETATM   24  C   UNK N   1      32.604  17.366   8.574  0.00  0.00     0.049 C 
HETATM   25  C   UNK N   1      30.901  16.077   7.084  0.00  0.00     0.207 C 
HETATM   26  O   UNK N   1      31.758  15.275   6.765  0.00  0.00    -0.285 OA
HETATM   27  C   UNK N   1      27.836  14.790   1.820  0.00  0.00     0.054 C 
HETATM   28  C   UNK N   1      32.309  11.404   5.584  0.00  0.00     0.046 C 
HETATM   29  C   UNK N   1      36.029  14.231   5.242  0.00  0.00     0.017 C 
HETATM   30  H   UNK N   1      30.181  14.532   5.108  0.00  0.00     0.169 HD
ENDROOT
BRANCH   9  31
HETATM   31  O   UNK N   1      34.060  13.190   2.863  0.00  0.00    -0.291 OA
BRANCH  31  32
HETATM   32  C   UNK N   1      34.246  14.171   1.937  0.00  0.00     0.359 C 
HETATM   33  O   UNK N   1      33.814  15.289   2.156  0.00  0.00    -0.239 OA
HETATM   34  N   UNK N   1      34.937  13.940   0.800  0.00  0.00    -0.346 N 
HETATM   35  H   UNK N   1      35.117  13.585  -0.101  0.00  0.00     0.161 HD
HETATM   36  H   UNK N   1      35.777  14.420   0.986  0.00  0.00     0.161 HD
ENDBRANCH  31  32
ENDBRANCH   9  31
BRANCH  10  37
HETATM   37  O   UNK N   1      32.731  10.556   2.536  0.00  0.00    -0.384 OA
HETATM   38  C   UNK N   1      33.015  10.380   1.169  0.00  0.00     0.202 C 
ENDBRANCH  10  37
BRANCH   5  39
HETATM   39  O   UNK N   1      34.657  16.900   6.036  0.00  0.00    -0.392 OA
HETATM   40  H   UNK N   1      34.608  17.839   5.798  0.00  0.00     0.210 HD
ENDBRANCH   5  39
BRANCH   4  41
HETATM   41  O   UNK N   1      35.368  14.128   8.277  0.00  0.00    -0.388 OA
HETATM   42  C   UNK N   1      36.477  14.112   9.130  0.00  0.00     0.202 C 
ENDBRANCH   4  41
BRANCH  22  43
HETATM   43  N   UNK N   1      30.437  18.969   9.444  0.00  0.00    -0.395 N 
HETATM   44  H   UNK N   1      29.753  19.258  10.090  0.00  0.00     0.156 HD
HETATM   45  H   UNK N   1      31.319  19.407   9.453  0.00  0.00     0.156 HD
ENDBRANCH  22  43
TORSDOF 6
ENDMDL
MODEL 5
REMARK VINA RESULT:      -7.0      2.504      8.066
REMARK  6 active torsions:
REMARK  status: ('A' for Active; 'I' for Inactive)
REMARK    1  A    between atoms: C_4  and  O_38 
REMARK    2  A    between atoms: C_5  and  O_37 
REMARK    3  A    between atoms: C_9  and  O_31 
REMARK    4  A    between atoms: C_10  and  O_29 
REMARK    5  A    between atoms: C_22  and  N_27 
REMARK    6  A    between atoms: O_31  and  C_32 
REMARK       I    between atoms: C_32  and  N_34 
ROOT
HETATM    1  C   UNK N   1      30.366  19.551  -6.476  0.00  0.00     0.010 C 
HETATM    2  C   UNK N   1      31.801  20.044  -6.359  0.00  0.00    -0.012 C 
HETATM    3  C   UNK N   1      32.555  20.104  -7.698  0.00  0.00     0.039 C 
HETATM    4  C   UNK N   1      31.811  20.750  -8.885  0.00  0.00     0.150 C 
HETATM    5  C   UNK N   1      31.202  22.140  -8.584  0.00  0.00     0.154 C 
HETATM    6  C   UNK N   1      30.168  22.687  -9.590  0.00  0.00     0.035 C 
HETATM    7  C   UNK N   1      28.817  22.049  -9.391  0.00  0.00    -0.015 C 
HETATM    8  C   UNK N   1      27.618  22.676  -9.420  0.00  0.00    -0.055 C 
HETATM    9  C   UNK N   1      27.434  24.174  -9.702  0.00  0.00     0.194 C 
HETATM   10  C   UNK N   1      25.938  24.607  -9.820  0.00  0.00     0.177 C 
HETATM   11  C   UNK N   1      25.535  25.998  -9.364  0.00  0.00     0.008 C 
HETATM   12  C   UNK N   1      25.682  26.454  -8.117  0.00  0.00    -0.001 C 
HETATM   13  C   UNK N   1      26.342  25.668  -7.065  0.00  0.00     0.012 C 
HETATM   14  C   UNK N   1      26.431  26.079  -5.790  0.00  0.00     0.006 C 
HETATM   15  C   UNK N   1      27.231  25.284  -4.834  0.00  0.00     0.251 C 
HETATM   16  O   UNK N   1      27.395  25.695  -3.692  0.00  0.00    -0.268 OA
HETATM   17  N   UNK N   1      27.870  24.169  -5.272  0.00  0.00    -0.320 N 
HETATM   18  C   UNK N   1      28.832  23.397  -4.558  0.00  0.00     0.090 C 
HETATM   19  C   UNK N   1      29.036  23.541  -3.236  0.00  0.00     0.090 C 
HETATM   20  C   UNK N   1      30.152  22.832  -2.575  0.00  0.00     0.201 C 
HETATM   21  O   UNK N   1      30.303  22.938  -1.368  0.00  0.00    -0.286 OA
HETATM   22  C   UNK N   1      31.146  22.092  -3.395  0.00  0.00     0.086 C 
HETATM   23  C   UNK N   1      30.949  21.949  -4.725  0.00  0.00     0.025 C 
HETATM   24  C   UNK N   1      32.031  21.346  -5.591  0.00  0.00     0.049 C 
HETATM   25  C   UNK N   1      29.724  22.526  -5.340  0.00  0.00     0.207 C 
HETATM   26  O   UNK N   1      29.481  22.344  -6.518  0.00  0.00    -0.285 OA
HETATM   27  C   UNK N   1      25.826  27.380  -5.356  0.00  0.00     0.054 C 
HETATM   28  C   UNK N   1      26.411  21.830  -9.162  0.00  0.00     0.046 C 
HETATM   29  C   UNK N   1      30.660  22.508 -11.016  0.00  0.00     0.017 C 
HETATM   30  H   UNK N   1      27.644  23.860  -6.180  0.00  0.00     0.169 HD
ENDROOT
BRANCH   9  31
HETATM   31  O   UNK N   1      28.206  24.637 -10.759  0.00  0.00    -0.291 OA
BRANCH  31  32
HETATM   32  C   UNK N   1      28.760  25.876 -10.868  0.00  0.00     0.359 C 
HETATM   33  O   UNK N   1      29.717  26.166 -10.172  0.00  0.00    -0.239 OA
HETATM   34  N   UNK N   1      28.296  26.775 -11.763  0.00  0.00    -0.346 N 
HETATM   35  H   UNK N   1      27.680  27.435 -12.156  0.00  0.00     0.161 HD
HETATM   36  H   UNK N   1      29.015  26.762 -12.436  0.00  0.00     0.161 HD
ENDBRANCH  31  32
ENDBRANCH   9  31
BRANCH  10  37
HETATM   37  O   UNK N   1      25.283  24.181 -11.001  0.00  0.00    -0.384 OA
HETATM   38  C   UNK N   1      24.852  25.303 -11.735  0.00  0.00     0.202 C 
ENDBRANCH  10  37
BRANCH   5  39
HETATM   39  O   UNK N   1      32.225  23.070  -8.395  0.00  0.00    -0.392 OA
HETATM   40  H   UNK N   1      32.834  23.727  -8.024  0.00  0.00     0.210 HD
ENDBRANCH   5  39
BRANCH   4  41
HETATM   41  O   UNK N   1      30.888  19.850  -9.421  0.00  0.00    -0.388 OA
HETATM   42  C   UNK N   1      31.669  18.951 -10.157  0.00  0.00     0.202 C 
ENDBRANCH   4  41
BRANCH  22  43
HETATM   43  N   UNK N   1      32.318  21.585  -2.784  0.00  0.00    -0.395 N 
HETATM   44  H   UNK N   1      32.575  21.833  -1.867  0.00  0.00     0.156 HD
HETATM   45  H   UNK N   1      32.892  20.965  -3.291  0.00  0.00     0.156 HD
ENDBRANCH  22  43
TORSDOF 6
ENDMDL
MODEL 6
REMARK VINA RESULT:      -6.9     12.529     15.360
REMARK  6 active torsions:
REMARK  status: ('A' for Active; 'I' for Inactive)
REMARK    1  A    between atoms: C_4  and  O_38 
REMARK    2  A    between atoms: C_5  and  O_37 
REMARK    3  A    between atoms: C_9  and  O_31 
REMARK    4  A    between atoms: C_10  and  O_29 
REMARK    5  A    between atoms: C_22  and  N_27 
REMARK    6  A    between atoms: O_31  and  C_32 
REMARK       I    between atoms: C_32  and  N_34 
ROOT
HETATM    1  C   UNK N   1      21.114  15.320   1.377  0.00  0.00     0.010 C 
HETATM    2  C   UNK N   1      19.941  15.502   2.330  0.00  0.00    -0.012 C 
HETATM    3  C   UNK N   1      19.570  14.234   3.119  0.00  0.00     0.039 C 
HETATM    4  C   UNK N   1      20.734  13.455   3.766  0.00  0.00     0.150 C 
HETATM    5  C   UNK N   1      21.692  14.320   4.619  0.00  0.00     0.154 C 
HETATM    6  C   UNK N   1      23.047  13.694   5.009  0.00  0.00     0.035 C 
HETATM    7  C   UNK N   1      24.023  13.739   3.861  0.00  0.00    -0.015 C 
HETATM    8  C   UNK N   1      25.338  14.054   3.934  0.00  0.00    -0.055 C 
HETATM    9  C   UNK N   1      26.073  14.390   5.239  0.00  0.00     0.194 C 
HETATM   10  C   UNK N   1      27.614  14.572   5.057  0.00  0.00     0.177 C 
HETATM   11  C   UNK N   1      28.349  15.564   5.942  0.00  0.00     0.008 C 
HETATM   12  C   UNK N   1      28.089  16.874   5.983  0.00  0.00    -0.001 C 
HETATM   13  C   UNK N   1      26.986  17.481   5.226  0.00  0.00     0.012 C 
HETATM   14  C   UNK N   1      26.757  18.803   5.197  0.00  0.00     0.006 C 
HETATM   15  C   UNK N   1      25.544  19.307   4.519  0.00  0.00     0.251 C 
HETATM   16  O   UNK N   1      25.277  20.502   4.562  0.00  0.00    -0.268 OA
HETATM   17  N   UNK N   1      24.682  18.420   3.958  0.00  0.00    -0.320 N 
HETATM   18  C   UNK N   1      23.382  18.698   3.443  0.00  0.00     0.090 C 
HETATM   19  C   UNK N   1      22.948  19.950   3.215  0.00  0.00     0.090 C 
HETATM   20  C   UNK N   1      21.541  20.192   2.832  0.00  0.00     0.201 C 
HETATM   21  O   UNK N   1      21.168  21.328   2.588  0.00  0.00    -0.286 OA
HETATM   22  C   UNK N   1      20.566  19.070   2.858  0.00  0.00     0.086 C 
HETATM   23  C   UNK N   1      20.996  17.810   3.093  0.00  0.00     0.025 C 
HETATM   24  C   UNK N   1      19.997  16.692   3.287  0.00  0.00     0.049 C 
HETATM   25  C   UNK N   1      22.448  17.569   3.304  0.00  0.00     0.207 C 
HETATM   26  O   UNK N   1      22.873  16.437   3.438  0.00  0.00    -0.285 OA
HETATM   27  C   UNK N   1      27.651  19.756   5.932  0.00  0.00     0.054 C 
HETATM   28  C   UNK N   1      26.099  14.061   2.646  0.00  0.00     0.046 C 
HETATM   29  C   UNK N   1      22.856  12.274   5.516  0.00  0.00     0.017 C 
HETATM   30  H   UNK N   1      24.987  17.485   3.901  0.00  0.00     0.169 HD
ENDROOT
BRANCH   9  31
HETATM   31  O   UNK N   1      25.759  13.536   6.288  0.00  0.00    -0.291 OA
BRANCH  31  32
HETATM   32  C   UNK N   1      25.424  13.908   7.554  0.00  0.00     0.359 C 
HETATM   33  O   UNK N   1      25.644  15.049   7.920  0.00  0.00    -0.239 OA
HETATM   34  N   UNK N   1      24.813  13.048   8.398  0.00  0.00    -0.346 N 
HETATM   35  H   UNK N   1      24.722  12.281   9.009  0.00  0.00     0.161 HD
HETATM   36  H   UNK N   1      23.897  13.410   8.409  0.00  0.00     0.161 HD
ENDBRANCH  31  32
ENDBRANCH   9  31
BRANCH  10  37
HETATM   37  O   UNK N   1      28.333  13.376   4.819  0.00  0.00    -0.384 OA
HETATM   38  C   UNK N   1      29.684  13.680   4.562  0.00  0.00     0.202 C 
ENDBRANCH  10  37
BRANCH   5  39
HETATM   39  O   UNK N   1      21.028  14.771   5.761  0.00  0.00    -0.392 OA
HETATM   40  H   UNK N   1      20.552  14.829   6.603  0.00  0.00     0.210 HD
ENDBRANCH   5  39
BRANCH   4  41
HETATM   41  O   UNK N   1      21.395  12.689   2.804  0.00  0.00    -0.388 OA
HETATM   42  C   UNK N   1      20.526  11.622   2.554  0.00  0.00     0.202 C 
ENDBRANCH   4  41
BRANCH  22  43
HETATM   43  N   UNK N   1      19.187  19.339   2.688  0.00  0.00    -0.395 N 
HETATM   44  H   UNK N   1      18.586  18.704   2.233  0.00  0.00     0.156 HD
HETATM   45  H   UNK N   1      18.818  20.184   3.033  0.00  0.00     0.156 HD
ENDBRANCH  22  43
TORSDOF 6
ENDMDL
MODEL 7
REMARK VINA RESULT:      -6.9     12.226     15.170
REMARK  6 active torsions:
REMARK  status: ('A' for Active; 'I' for Inactive)
REMARK    1  A    between atoms: C_4  and  O_38 
REMARK    2  A    between atoms: C_5  and  O_37 
REMARK    3  A    between atoms: C_9  and  O_31 
REMARK    4  A    between atoms: C_10  and  O_29 
REMARK    5  A    between atoms: C_22  and  N_27 
REMARK    6  A    between atoms: O_31  and  C_32 
REMARK       I    between atoms: C_32  and  N_34 
ROOT
HETATM    1  C   UNK N   1      27.551  18.464   6.231  0.00  0.00     0.010 C 
HETATM    2  C   UNK N   1      28.234  18.743   4.900  0.00  0.00    -0.012 C 
HETATM    3  C   UNK N   1      29.417  17.808   4.594  0.00  0.00     0.039 C 
HETATM    4  C   UNK N   1      29.189  16.301   4.830  0.00  0.00     0.150 C 
HETATM    5  C   UNK N   1      27.911  15.732   4.170  0.00  0.00     0.154 C 
HETATM    6  C   UNK N   1      27.439  14.339   4.636  0.00  0.00     0.035 C 
HETATM    7  C   UNK N   1      26.724  14.417   5.962  0.00  0.00    -0.015 C 
HETATM    8  C   UNK N   1      25.593  13.759   6.307  0.00  0.00    -0.055 C 
HETATM    9  C   UNK N   1      24.855  12.772   5.390  0.00  0.00     0.194 C 
HETATM   10  C   UNK N   1      23.663  12.044   6.088  0.00  0.00     0.177 C 
HETATM   11  C   UNK N   1      22.445  11.664   5.263  0.00  0.00     0.008 C 
HETATM   12  C   UNK N   1      21.673  12.539   4.612  0.00  0.00    -0.001 C 
HETATM   13  C   UNK N   1      21.983  13.974   4.559  0.00  0.00     0.012 C 
HETATM   14  C   UNK N   1      21.179  14.876   3.974  0.00  0.00     0.006 C 
HETATM   15  C   UNK N   1      21.640  16.275   3.852  0.00  0.00     0.251 C 
HETATM   16  O   UNK N   1      20.956  17.088   3.241  0.00  0.00    -0.268 OA
HETATM   17  N   UNK N   1      22.872  16.610   4.316  0.00  0.00    -0.320 N 
HETATM   18  C   UNK N   1      23.558  17.843   4.111  0.00  0.00     0.090 C 
HETATM   19  C   UNK N   1      22.944  18.941   3.637  0.00  0.00     0.090 C 
HETATM   20  C   UNK N   1      23.732  20.143   3.294  0.00  0.00     0.201 C 
HETATM   21  O   UNK N   1      23.160  21.149   2.903  0.00  0.00    -0.286 OA
HETATM   22  C   UNK N   1      25.217  20.085   3.319  0.00  0.00     0.086 C 
HETATM   23  C   UNK N   1      25.840  18.982   3.790  0.00  0.00     0.025 C 
HETATM   24  C   UNK N   1      27.340  18.846   3.665  0.00  0.00     0.049 C 
HETATM   25  C   UNK N   1      25.019  17.848   4.293  0.00  0.00     0.207 C 
HETATM   26  O   UNK N   1      25.551  16.876   4.796  0.00  0.00    -0.285 OA
HETATM   27  C   UNK N   1      19.880  14.461   3.353  0.00  0.00     0.054 C 
HETATM   28  C   UNK N   1      25.053  14.024   7.676  0.00  0.00     0.046 C 
HETATM   29  C   UNK N   1      28.606  13.368   4.695  0.00  0.00     0.017 C 
HETATM   30  H   UNK N   1      23.340  15.929   4.851  0.00  0.00     0.169 HD
ENDROOT
BRANCH   9  31
HETATM   31  O   UNK N   1      25.701  11.892   4.729  0.00  0.00    -0.291 OA
BRANCH  31  32
HETATM   32  C   UNK N   1      25.504  11.365   3.488  0.00  0.00     0.359 C 
HETATM   33  O   UNK N   1      25.191  10.193   3.380  0.00  0.00    -0.239 OA
HETATM   34  N   UNK N   1      25.606  12.128   2.379  0.00  0.00    -0.346 N 
HETATM   35  H   UNK N   1      26.047  12.649   1.668  0.00  0.00     0.161 HD
HETATM   36  H   UNK N   1      24.660  12.221   2.123  0.00  0.00     0.161 HD
ENDBRANCH  31  32
ENDBRANCH   9  31
BRANCH  10  37
HETATM   37  O   UNK N   1      24.035  11.066   7.042  0.00  0.00    -0.384 OA
HETATM   38  C   UNK N   1      23.566   9.804   6.633  0.00  0.00     0.202 C 
ENDBRANCH  10  37
BRANCH   5  39
HETATM   39  O   UNK N   1      28.051  15.749   2.782  0.00  0.00    -0.392 OA
HETATM   40  H   UNK N   1      27.898  15.832   1.828  0.00  0.00     0.210 HD
ENDBRANCH   5  39
BRANCH   4  41
HETATM   41  O   UNK N   1      29.283  16.007   6.192  0.00  0.00    -0.388 OA
HETATM   42  C   UNK N   1      30.627  16.236   6.504  0.00  0.00     0.202 C 
ENDBRANCH   4  41
BRANCH  22  43
HETATM   43  N   UNK N   1      25.968  21.167   2.802  0.00  0.00    -0.395 N 
HETATM   44  H   UNK N   1      26.175  21.963   3.344  0.00  0.00     0.156 HD
HETATM   45  H   UNK N   1      26.293  21.124   1.873  0.00  0.00     0.156 HD
ENDBRANCH  22  43
TORSDOF 6
ENDMDL
MODEL 8
REMARK VINA RESULT:      -6.8     12.259     15.440
REMARK  6 active torsions:
REMARK  status: ('A' for Active; 'I' for Inactive)
REMARK    1  A    between atoms: C_4  and  O_38 
REMARK    2  A    between atoms: C_5  and  O_37 
REMARK    3  A    between atoms: C_9  and  O_31 
REMARK    4  A    between atoms: C_10  and  O_29 
REMARK    5  A    between atoms: C_22  and  N_27 
REMARK    6  A    between atoms: O_31  and  C_32 
REMARK       I    between atoms: C_32  and  N_34 
ROOT
HETATM    1  C   UNK N   1      27.827  15.419   5.952  0.00  0.00     0.010 C 
HETATM    2  C   UNK N   1      28.758  15.767   4.799  0.00  0.00    -0.012 C 
HETATM    3  C   UNK N   1      29.174  14.559   3.942  0.00  0.00     0.039 C 
HETATM    4  C   UNK N   1      28.050  13.592   3.515  0.00  0.00     0.150 C 
HETATM    5  C   UNK N   1      26.825  14.277   2.864  0.00  0.00     0.154 C 
HETATM    6  C   UNK N   1      25.539  13.435   2.727  0.00  0.00     0.035 C 
HETATM    7  C   UNK N   1      24.799  13.347   4.038  0.00  0.00    -0.015 C 
HETATM    8  C   UNK N   1      23.460  13.447   4.215  0.00  0.00    -0.055 C 
HETATM    9  C   UNK N   1      22.451  13.636   3.074  0.00  0.00     0.194 C 
HETATM   10  C   UNK N   1      20.962  13.574   3.541  0.00  0.00     0.177 C 
HETATM   11  C   UNK N   1      19.926  14.419   2.820  0.00  0.00     0.008 C 
HETATM   12  C   UNK N   1      19.961  15.752   2.744  0.00  0.00    -0.001 C 
HETATM   13  C   UNK N   1      21.074  16.542   3.289  0.00  0.00     0.012 C 
HETATM   14  C   UNK N   1      21.089  17.884   3.289  0.00  0.00     0.006 C 
HETATM   15  C   UNK N   1      22.311  18.588   3.734  0.00  0.00     0.251 C 
HETATM   16  O   UNK N   1      22.370  19.809   3.654  0.00  0.00    -0.268 OA
HETATM   17  N   UNK N   1      23.393  17.860   4.114  0.00  0.00    -0.320 N 
HETATM   18  C   UNK N   1      24.704  18.352   4.381  0.00  0.00     0.090 C 
HETATM   19  C   UNK N   1      24.966  19.662   4.537  0.00  0.00     0.090 C 
HETATM   20  C   UNK N   1      26.363  20.131   4.653  0.00  0.00     0.201 C 
HETATM   21  O   UNK N   1      26.588  21.317   4.836  0.00  0.00    -0.286 OA
HETATM   22  C   UNK N   1      27.483  19.179   4.434  0.00  0.00     0.086 C 
HETATM   23  C   UNK N   1      27.225  17.862   4.271  0.00  0.00     0.025 C 
HETATM   24  C   UNK N   1      28.336  16.914   3.881  0.00  0.00     0.049 C 
HETATM   25  C   UNK N   1      25.816  17.389   4.331  0.00  0.00     0.207 C 
HETATM   26  O   UNK N   1      25.560  16.201   4.268  0.00  0.00    -0.285 OA
HETATM   27  C   UNK N   1      19.933  18.667   2.744  0.00  0.00     0.054 C 
HETATM   28  C   UNK N   1      22.961  13.358   5.622  0.00  0.00     0.046 C 
HETATM   29  C   UNK N   1      25.857  12.054   2.179  0.00  0.00     0.017 C 
HETATM   30  H   UNK N   1      23.257  16.890   4.218  0.00  0.00     0.169 HD
ENDROOT
BRANCH   9  31
HETATM   31  O   UNK N   1      22.697  12.823   1.976  0.00  0.00    -0.291 OA
BRANCH  31  32
HETATM   32  C   UNK N   1      22.748  13.222   0.675  0.00  0.00     0.359 C 
HETATM   33  O   UNK N   1      22.425  14.360   0.386  0.00  0.00    -0.239 OA
HETATM   34  N   UNK N   1      23.192  12.393  -0.296  0.00  0.00    -0.346 N 
HETATM   35  H   UNK N   1      23.174  11.638  -0.927  0.00  0.00     0.161 HD
HETATM   36  H   UNK N   1      24.075  12.784  -0.491  0.00  0.00     0.161 HD
ENDBRANCH  31  32
ENDBRANCH   9  31
BRANCH  10  37
HETATM   37  O   UNK N   1      20.500  12.284   3.897  0.00  0.00    -0.384 OA
HETATM   38  C   UNK N   1      19.271  12.392   4.576  0.00  0.00     0.202 C 
ENDBRANCH  10  37
BRANCH   5  39
HETATM   39  O   UNK N   1      27.185  14.805   1.624  0.00  0.00    -0.392 OA
HETATM   40  H   UNK N   1      27.673  15.162   0.866  0.00  0.00     0.210 HD
ENDBRANCH   5  39
BRANCH   4  41
HETATM   41  O   UNK N   1      27.710  12.749   4.575  0.00  0.00    -0.388 OA
HETATM   42  C   UNK N   1      28.663  11.725   4.522  0.00  0.00     0.202 C 
ENDBRANCH   4  41
BRANCH  22  43
HETATM   43  N   UNK N   1      28.809  19.667   4.347  0.00  0.00    -0.395 N 
HETATM   44  H   UNK N   1      29.461  19.290   3.713  0.00  0.00     0.156 HD
HETATM   45  H   UNK N   1      29.087  20.404   4.938  0.00  0.00     0.156 HD
ENDBRANCH  22  43
TORSDOF 6
ENDMDL
MODEL 9
REMARK VINA RESULT:      -6.7     12.799     15.901
REMARK  6 active torsions:
REMARK  status: ('A' for Active; 'I' for Inactive)
REMARK    1  A    between atoms: C_4  and  O_38 
REMARK    2  A    between atoms: C_5  and  O_37 
REMARK    3  A    between atoms: C_9  and  O_31 
REMARK    4  A    between atoms: C_10  and  O_29 
REMARK    5  A    between atoms: C_22  and  N_27 
REMARK    6  A    between atoms: O_31  and  C_32 
REMARK       I    between atoms: C_32  and  N_34 
ROOT
HETATM    1  C   UNK N   1      28.258  18.029   4.457  0.00  0.00     0.010 C 
HETATM    2  C   UNK N   1      27.156  17.354   5.262  0.00  0.00    -0.012 C 
HETATM    3  C   UNK N   1      26.444  16.212   4.518  0.00  0.00     0.039 C 
HETATM    4  C   UNK N   1      27.344  15.192   3.789  0.00  0.00     0.150 C 
HETATM    5  C   UNK N   1      28.480  14.601   4.657  0.00  0.00     0.154 C 
HETATM    6  C   UNK N   1      29.610  13.851   3.920  0.00  0.00     0.035 C 
HETATM    7  C   UNK N   1      30.587  14.812   3.291  0.00  0.00    -0.015 C 
HETATM    8  C   UNK N   1      31.936  14.701   3.285  0.00  0.00    -0.055 C 
HETATM    9  C   UNK N   1      32.707  13.527   3.905  0.00  0.00     0.194 C 
HETATM   10  C   UNK N   1      34.244  13.576   3.630  0.00  0.00     0.177 C 
HETATM   11  C   UNK N   1      35.199  13.028   4.675  0.00  0.00     0.008 C 
HETATM   12  C   UNK N   1      35.297  13.493   5.924  0.00  0.00    -0.001 C 
HETATM   13  C   UNK N   1      34.412  14.545   6.443  0.00  0.00     0.012 C 
HETATM   14  C   UNK N   1      34.546  15.077   7.668  0.00  0.00     0.006 C 
HETATM   15  C   UNK N   1      33.526  16.032   8.151  0.00  0.00     0.251 C 
HETATM   16  O   UNK N   1      33.587  16.455   9.299  0.00  0.00    -0.268 OA
HETATM   17  N   UNK N   1      32.470  16.333   7.352  0.00  0.00    -0.320 N 
HETATM   18  C   UNK N   1      31.303  17.066   7.717  0.00  0.00     0.090 C 
HETATM   19  C   UNK N   1      31.224  17.781   8.853  0.00  0.00     0.090 C 
HETATM   20  C   UNK N   1      29.941  18.391   9.260  0.00  0.00     0.201 C 
HETATM   21  O   UNK N   1      29.891  19.072  10.272  0.00  0.00    -0.286 OA
HETATM   22  C   UNK N   1      28.701  18.079   8.501  0.00  0.00     0.086 C 
HETATM   23  C   UNK N   1      28.774  17.356   7.362  0.00  0.00     0.025 C 
HETATM   24  C   UNK N   1      27.508  16.892   6.676  0.00  0.00     0.049 C 
HETATM   25  C   UNK N   1      30.104  16.899   6.879  0.00  0.00     0.207 C 
HETATM   26  O   UNK N   1      30.208  16.316   5.816  0.00  0.00    -0.285 OA
HETATM   27  C   UNK N   1      35.647  14.634   8.584  0.00  0.00     0.054 C 
HETATM   28  C   UNK N   1      32.697  15.803   2.619  0.00  0.00     0.046 C 
HETATM   29  C   UNK N   1      29.037  12.893   2.890  0.00  0.00     0.017 C 
HETATM   30  H   UNK N   1      32.516  16.012   6.422  0.00  0.00     0.169 HD
ENDROOT
BRANCH   9  31
HETATM   31  O   UNK N   1      32.155  12.286   3.616  0.00  0.00    -0.291 OA
BRANCH  31  32
HETATM   32  C   UNK N   1      32.163  11.193   4.428  0.00  0.00     0.359 C 
HETATM   33  O   UNK N   1      32.965  10.300   4.219  0.00  0.00    -0.239 OA
HETATM   34  N   UNK N   1      31.330  11.101   5.487  0.00  0.00    -0.346 N 
HETATM   35  H   UNK N   1      30.480  10.978   5.969  0.00  0.00     0.161 HD
HETATM   36  H   UNK N   1      31.954  11.245   6.234  0.00  0.00     0.161 HD
ENDBRANCH  31  32
ENDBRANCH   9  31
BRANCH  10  37
HETATM   37  O   UNK N   1      34.623  13.278   2.298  0.00  0.00    -0.384 OA
HETATM   38  C   UNK N   1      36.005  13.491   2.140  0.00  0.00     0.202 C 
ENDBRANCH  10  37
BRANCH   5  39
HETATM   39  O   UNK N   1      27.937  13.787   5.652  0.00  0.00    -0.392 OA
HETATM   40  H   UNK N   1      27.781  13.091   6.308  0.00  0.00     0.210 HD
ENDBRANCH   5  39
BRANCH   4  41
HETATM   41  O   UNK N   1      27.796  15.726   2.581  0.00  0.00    -0.388 OA
HETATM   42  C   UNK N   1      26.728  15.537   1.697  0.00  0.00     0.202 C 
ENDBRANCH   4  41
BRANCH  22  43
HETATM   43  N   UNK N   1      27.448  18.499   9.007  0.00  0.00    -0.395 N 
HETATM   44  H   UNK N   1      27.139  18.248   9.907  0.00  0.00     0.156 HD
HETATM   45  H   UNK N   1      26.867  19.060   8.442  0.00  0.00     0.156 HD
ENDBRANCH  22  43
TORSDOF 6
ENDMDL
