MODEL 1
REMARK VINA RESULT:      -8.2      0.000      0.000
REMARK  7 active torsions:
REMARK  status: ('A' for Active; 'I' for Inactive)
REMARK    1  A    between atoms: C_4  and  C_8 
REMARK    2  A    between atoms: C_11  and  S_14 
REMARK    3  A    between atoms: S_14  and  N_17 
REMARK    4  A    between atoms: C_20  and  C_22 
REMARK    5  A    between atoms: C_23  and  C_24 
REMARK       I    between atoms: C_24  and  N_26 
REMARK    6  A    between atoms: N_26  and  C_27 
REMARK    7  A    between atoms: C_32  and  N_33 
ROOT
HETATM    1  N   UNK N   1      32.454  16.853   6.453  0.00  0.00    -0.257 N 
HETATM    2  C   UNK N   1      32.109  17.123   5.181  0.00  0.00     0.109 A 
HETATM    3  C   UNK N   1      30.724  17.046   5.068  0.00  0.00     0.031 A 
HETATM    4  C   UNK N   1      30.268  16.728   6.336  0.00  0.00    -0.018 A 
HETATM    5  C   UNK N   1      31.354  16.608   7.153  0.00  0.00     0.120 A 
ENDROOT
BRANCH   1   6
HETATM    6  S   UNK N   1      34.047  16.869   7.195  0.00  0.00     0.268 S 
HETATM    7  O   UNK N   1      34.934  16.201   6.129  0.00  0.00    -0.200 OA
HETATM    8  O   UNK N   1      34.564  18.313   7.135  0.00  0.00    -0.200 OA
BRANCH   6   9
HETATM    9  C   UNK N   1      34.283  16.023   8.747  0.00  0.00     0.080 A 
HETATM   10  C   UNK N   1      34.633  16.738   9.894  0.00  0.00     0.026 A 
HETATM   11  C   UNK N   1      34.943  16.054  11.073  0.00  0.00     0.014 A 
HETATM   12  C   UNK N   1      34.905  14.652  11.109  0.00  0.00    -0.023 A 
HETATM   13  C   UNK N   1      34.515  13.943   9.965  0.00  0.00     0.014 A 
HETATM   14  C   UNK N   1      34.206  14.627   8.788  0.00  0.00     0.026 A 
BRANCH  12  15
HETATM   15  C   UNK N   1      35.366  13.928  12.303  0.00  0.00     0.008 A 
HETATM   16  C   UNK N   1      34.938  12.687  12.731  0.00  0.00     0.123 A 
HETATM   17  N   UNK N   1      35.547  12.445  13.902  0.00  0.00    -0.307 N 
HETATM   18  C   UNK N   1      35.365  11.261  14.718  0.00  0.00     0.177 C 
HETATM   19  N   UNK N   1      36.328  13.461  14.235  0.00  0.00    -0.310 N 
HETATM   20  C   UNK N   1      36.240  14.396  13.270  0.00  0.00     0.120 A 
ATOM     21  HN  UNK N   1      36.899  13.524  15.078  1.00  0.00     0.186 HD
ENDBRANCH  12  15
ENDBRANCH   6   9
ENDBRANCH   1   6
BRANCH   4  22
HETATM   22  C   UNK N   1      28.871  16.540   6.754  0.00  0.00     0.018 C 
HETATM   23  C   UNK N   1      28.215  17.373   7.585  0.00  0.00     0.075 C 
BRANCH  23  24
HETATM   24  C   UNK N   1      28.733  18.671   8.114  0.00  0.00     0.245 C 
HETATM   25  O   UNK N   1      29.392  18.692   9.143  0.00  0.00    -0.268 OA
HETATM   26  N   UNK N   1      28.556  19.821   7.419  0.00  0.00    -0.322 N 
HETATM   27  H   UNK N   1      29.021  20.633   7.725  0.00  0.00     0.169 HD
BRANCH  26  28
HETATM   28  C   UNK N   1      27.728  19.901   6.270  0.00  0.00     0.061 A 
HETATM   29  C   UNK N   1      28.186  19.453   5.017  0.00  0.00     0.032 A 
HETATM   30  C   UNK N   1      27.384  19.590   3.884  0.00  0.00     0.002 A 
HETATM   31  C   UNK N   1      26.125  20.184   3.992  0.00  0.00     0.002 A 
HETATM   32  C   UNK N   1      25.659  20.617   5.238  0.00  0.00     0.031 A 
HETATM   33  C   UNK N   1      26.455  20.467   6.378  0.00  0.00     0.052 A 
BRANCH  33  34
HETATM   34  N   UNK N   1      25.988  20.932   7.624  0.00  0.00    -0.397 N 
HETATM   35  H   UNK N   1      25.121  20.639   7.987  0.00  0.00     0.156 HD
HETATM   36  H   UNK N   1      26.540  21.562   8.143  0.00  0.00     0.156 HD
ENDBRANCH  33  34
ENDBRANCH  26  28
ENDBRANCH  23  24
ENDBRANCH   4  22
TORSDOF 7
ENDMDL
MODEL 2
REMARK VINA RESULT:      -8.2      3.167      5.500
REMARK  7 active torsions:
REMARK  status: ('A' for Active; 'I' for Inactive)
REMARK    1  A    between atoms: C_4  and  C_8 
REMARK    2  A    between atoms: C_11  and  S_14 
REMARK    3  A    between atoms: S_14  and  N_17 
REMARK    4  A    between atoms: C_20  and  C_22 
REMARK    5  A    between atoms: C_23  and  C_24 
REMARK       I    between atoms: C_24  and  N_26 
REMARK    6  A    between atoms: N_26  and  C_27 
REMARK    7  A    between atoms: C_32  and  N_33 
ROOT
HETATM    1  N   UNK N   1      34.832  14.231  10.276  0.00  0.00    -0.257 N 
HETATM    2  C   UNK N   1      33.760  13.736   9.629  0.00  0.00     0.109 A 
HETATM    3  C   UNK N   1      33.176  14.757   8.885  0.00  0.00     0.031 A 
HETATM    4  C   UNK N   1      33.960  15.875   9.116  0.00  0.00    -0.018 A 
HETATM    5  C   UNK N   1      34.956  15.518   9.977  0.00  0.00     0.120 A 
ENDROOT
BRANCH   1   6
HETATM    6  S   UNK N   1      35.989  13.395  11.302  0.00  0.00     0.268 S 
HETATM    7  O   UNK N   1      35.958  11.955  10.761  0.00  0.00    -0.200 OA
HETATM    8  O   UNK N   1      37.391  13.838  10.863  0.00  0.00    -0.200 OA
BRANCH   6   9
HETATM    9  C   UNK N   1      35.703  13.351  13.062  0.00  0.00     0.080 A 
HETATM   10  C   UNK N   1      36.449  14.163  13.918  0.00  0.00     0.026 A 
HETATM   11  C   UNK N   1      36.310  14.028  15.302  0.00  0.00     0.014 A 
HETATM   12  C   UNK N   1      35.426  13.078  15.835  0.00  0.00    -0.023 A 
HETATM   13  C   UNK N   1      34.652  12.293  14.969  0.00  0.00     0.014 A 
HETATM   14  C   UNK N   1      34.792  12.429  13.588  0.00  0.00     0.026 A 
BRANCH  12  15
HETATM   15  C   UNK N   1      35.383  12.836  17.285  0.00  0.00     0.008 A 
HETATM   16  C   UNK N   1      35.359  11.608  17.915  0.00  0.00     0.123 A 
HETATM   17  N   UNK N   1      35.231  11.844  19.230  0.00  0.00    -0.307 N 
HETATM   18  C   UNK N   1      35.137  10.832  20.264  0.00  0.00     0.177 C 
HETATM   19  N   UNK N   1      35.168  13.146  19.461  0.00  0.00    -0.310 N 
HETATM   20  C   UNK N   1      35.257  13.790  18.282  0.00  0.00     0.120 A 
ATOM     21  HN  UNK N   1      35.070  13.586  20.377  1.00  0.00     0.186 HD
ENDBRANCH  12  15
ENDBRANCH   6   9
ENDBRANCH   1   6
BRANCH   4  22
HETATM   22  C   UNK N   1      33.772  17.220   8.552  0.00  0.00     0.018 C 
HETATM   23  C   UNK N   1      33.859  17.504   7.238  0.00  0.00     0.075 C 
BRANCH  23  24
HETATM   24  C   UNK N   1      34.030  16.510   6.136  0.00  0.00     0.245 C 
HETATM   25  O   UNK N   1      35.138  16.060   5.885  0.00  0.00    -0.268 OA
HETATM   26  N   UNK N   1      32.954  16.033   5.464  0.00  0.00    -0.322 N 
HETATM   27  H   UNK N   1      33.084  15.284   4.837  0.00  0.00     0.169 HD
BRANCH  26  28
HETATM   28  C   UNK N   1      31.650  16.566   5.627  0.00  0.00     0.061 A 
HETATM   29  C   UNK N   1      30.857  16.208   6.732  0.00  0.00     0.032 A 
HETATM   30  C   UNK N   1      29.555  16.695   6.851  0.00  0.00     0.002 A 
HETATM   31  C   UNK N   1      29.034  17.534   5.864  0.00  0.00     0.002 A 
HETATM   32  C   UNK N   1      29.824  17.905   4.771  0.00  0.00     0.031 A 
HETATM   33  C   UNK N   1      31.134  17.430   4.657  0.00  0.00     0.052 A 
BRANCH  33  34
HETATM   34  N   UNK N   1      31.914  17.787   3.537  0.00  0.00    -0.397 N 
HETATM   35  H   UNK N   1      31.754  17.384   2.654  0.00  0.00     0.156 HD
HETATM   36  H   UNK N   1      32.631  18.454   3.642  0.00  0.00     0.156 HD
ENDBRANCH  33  34
ENDBRANCH  26  28
ENDBRANCH  23  24
ENDBRANCH   4  22
TORSDOF 7
ENDMDL
MODEL 3
REMARK VINA RESULT:      -8.2      1.902     10.696
REMARK  7 active torsions:
REMARK  status: ('A' for Active; 'I' for Inactive)
REMARK    1  A    between atoms: C_4  and  C_8 
REMARK    2  A    between atoms: C_11  and  S_14 
REMARK    3  A    between atoms: S_14  and  N_17 
REMARK    4  A    between atoms: C_20  and  C_22 
REMARK    5  A    between atoms: C_23  and  C_24 
REMARK       I    between atoms: C_24  and  N_26 
REMARK    6  A    between atoms: N_26  and  C_27 
REMARK    7  A    between atoms: C_32  and  N_33 
ROOT
HETATM    1  N   UNK N   1      34.347  16.096   8.593  0.00  0.00    -0.257 N 
HETATM    2  C   UNK N   1      34.868  16.617   9.720  0.00  0.00     0.109 A 
HETATM    3  C   UNK N   1      35.021  15.598  10.655  0.00  0.00     0.031 A 
HETATM    4  C   UNK N   1      34.575  14.449  10.023  0.00  0.00    -0.018 A 
HETATM    5  C   UNK N   1      34.162  14.794   8.770  0.00  0.00     0.120 A 
ENDROOT
BRANCH   1   6
HETATM    6  S   UNK N   1      34.002  16.888   7.063  0.00  0.00     0.268 S 
HETATM    7  O   UNK N   1      34.607  18.290   7.254  0.00  0.00    -0.200 OA
HETATM    8  O   UNK N   1      34.960  16.300   6.019  0.00  0.00    -0.200 OA
BRANCH   6   9
HETATM    9  C   UNK N   1      32.303  17.063   6.549  0.00  0.00     0.080 A 
HETATM   10  C   UNK N   1      31.991  17.265   5.203  0.00  0.00     0.026 A 
HETATM   11  C   UNK N   1      30.672  17.530   4.827  0.00  0.00     0.014 A 
HETATM   12  C   UNK N   1      29.659  17.598   5.795  0.00  0.00    -0.023 A 
HETATM   13  C   UNK N   1      29.974  17.357   7.140  0.00  0.00     0.014 A 
HETATM   14  C   UNK N   1      31.292  17.092   7.514  0.00  0.00     0.026 A 
BRANCH  12  15
HETATM   15  C   UNK N   1      28.300  18.017   5.421  0.00  0.00     0.008 A 
HETATM   16  C   UNK N   1      27.953  19.147   4.709  0.00  0.00     0.123 A 
HETATM   17  N   UNK N   1      26.612  19.190   4.671  0.00  0.00    -0.307 N 
HETATM   18  C   UNK N   1      25.819  20.228   4.042  0.00  0.00     0.177 C 
HETATM   19  N   UNK N   1      26.098  18.157   5.320  0.00  0.00    -0.310 N 
HETATM   20  C   UNK N   1      27.113  17.412   5.799  0.00  0.00     0.120 A 
ATOM     21  HN  UNK N   1      25.104  17.960   5.437  1.00  0.00     0.186 HD
ENDBRANCH  12  15
ENDBRANCH   6   9
ENDBRANCH   1   6
BRANCH   4  22
HETATM   22  C   UNK N   1      34.536  13.090  10.583  0.00  0.00     0.018 C 
HETATM   23  C   UNK N   1      35.632  12.374  10.900  0.00  0.00     0.075 C 
BRANCH  23  24
HETATM   24  C   UNK N   1      37.042  12.868  10.863  0.00  0.00     0.245 C 
HETATM   25  O   UNK N   1      37.563  13.149   9.793  0.00  0.00    -0.268 OA
HETATM   26  N   UNK N   1      37.726  13.091  12.011  0.00  0.00    -0.322 N 
HETATM   27  H   UNK N   1      38.601  13.540  11.958  0.00  0.00     0.169 HD
BRANCH  26  28
HETATM   28  C   UNK N   1      37.233  12.706  13.284  0.00  0.00     0.061 A 
HETATM   29  C   UNK N   1      37.323  11.371  13.718  0.00  0.00     0.032 A 
HETATM   30  C   UNK N   1      36.783  10.993  14.948  0.00  0.00     0.002 A 
HETATM   31  C   UNK N   1      36.143  11.943  15.747  0.00  0.00     0.002 A 
HETATM   32  C   UNK N   1      36.065  13.274  15.326  0.00  0.00     0.031 A 
HETATM   33  C   UNK N   1      36.618  13.658  14.101  0.00  0.00     0.052 A 
BRANCH  33  34
HETATM   34  N   UNK N   1      36.511  14.998  13.672  0.00  0.00    -0.397 N 
HETATM   35  H   UNK N   1      36.140  15.694  14.260  0.00  0.00     0.156 HD
HETATM   36  H   UNK N   1      36.813  15.241  12.766  0.00  0.00     0.156 HD
ENDBRANCH  33  34
ENDBRANCH  26  28
ENDBRANCH  23  24
ENDBRANCH   4  22
TORSDOF 7
ENDMDL
MODEL 4
REMARK VINA RESULT:      -8.1      3.825      5.229
REMARK  7 active torsions:
REMARK  status: ('A' for Active; 'I' for Inactive)
REMARK    1  A    between atoms: C_4  and  C_8 
REMARK    2  A    between atoms: C_11  and  S_14 
REMARK    3  A    between atoms: S_14  and  N_17 
REMARK    4  A    between atoms: C_20  and  C_22 
REMARK    5  A    between atoms: C_23  and  C_24 
REMARK       I    between atoms: C_24  and  N_26 
REMARK    6  A    between atoms: N_26  and  C_27 
REMARK    7  A    between atoms: C_32  and  N_33 
ROOT
HETATM    1  N   UNK N   1      34.365  14.972   9.805  0.00  0.00    -0.257 N 
HETATM    2  C   UNK N   1      33.651  13.931   9.337  0.00  0.00     0.109 A 
HETATM    3  C   UNK N   1      32.594  14.421   8.575  0.00  0.00     0.031 A 
HETATM    4  C   UNK N   1      32.725  15.799   8.608  0.00  0.00    -0.018 A 
HETATM    5  C   UNK N   1      33.811  16.099   9.376  0.00  0.00     0.120 A 
ENDROOT
BRANCH   1   6
HETATM    6  S   UNK N   1      35.839  14.962  10.761  0.00  0.00     0.268 S 
HETATM    7  O   UNK N   1      36.848  14.254   9.839  0.00  0.00    -0.200 OA
HETATM    8  O   UNK N   1      36.397  16.391  10.755  0.00  0.00    -0.200 OA
BRANCH   6   9
HETATM    9  C   UNK N   1      35.834  14.136  12.343  0.00  0.00     0.080 A 
HETATM   10  C   UNK N   1      35.149  12.930  12.506  0.00  0.00     0.026 A 
HETATM   11  C   UNK N   1      35.041  12.358  13.776  0.00  0.00     0.014 A 
HETATM   12  C   UNK N   1      35.615  12.991  14.889  0.00  0.00    -0.023 A 
HETATM   13  C   UNK N   1      36.333  14.181  14.711  0.00  0.00     0.014 A 
HETATM   14  C   UNK N   1      36.440  14.752  13.442  0.00  0.00     0.026 A 
BRANCH  12  15
HETATM   15  C   UNK N   1      35.381  12.467  16.243  0.00  0.00     0.008 A 
HETATM   16  C   UNK N   1      35.291  13.203  17.407  0.00  0.00     0.123 A 
HETATM   17  N   UNK N   1      35.165  12.328  18.416  0.00  0.00    -0.307 N 
HETATM   18  C   UNK N   1      35.064  12.668  19.821  0.00  0.00     0.177 C 
HETATM   19  N   UNK N   1      35.175  11.087  17.955  0.00  0.00    -0.310 N 
HETATM   20  C   UNK N   1      35.309  11.135  16.616  0.00  0.00     0.120 A 
ATOM     21  HN  UNK N   1      35.095  10.240  18.518  1.00  0.00     0.186 HD
ENDBRANCH  12  15
ENDBRANCH   6   9
ENDBRANCH   1   6
BRANCH   4  22
HETATM   22  C   UNK N   1      31.858  16.786   7.947  0.00  0.00     0.018 C 
HETATM   23  C   UNK N   1      32.144  17.370   6.767  0.00  0.00     0.075 C 
BRANCH  23  24
HETATM   24  C   UNK N   1      33.299  17.033   5.881  0.00  0.00     0.245 C 
HETATM   25  O   UNK N   1      34.403  17.504   6.110  0.00  0.00    -0.268 OA
HETATM   26  N   UNK N   1      33.157  16.140   4.871  0.00  0.00    -0.322 N 
HETATM   27  H   UNK N   1      33.963  15.840   4.391  0.00  0.00     0.169 HD
BRANCH  26  28
HETATM   28  C   UNK N   1      31.897  15.621   4.479  0.00  0.00     0.061 A 
HETATM   29  C   UNK N   1      31.353  14.490   5.116  0.00  0.00     0.032 A 
HETATM   30  C   UNK N   1      30.139  13.955   4.683  0.00  0.00     0.002 A 
HETATM   31  C   UNK N   1      29.467  14.538   3.607  0.00  0.00     0.002 A 
HETATM   32  C   UNK N   1      29.997  15.671   2.981  0.00  0.00     0.031 A 
HETATM   33  C   UNK N   1      31.205  16.218   3.422  0.00  0.00     0.052 A 
BRANCH  33  34
HETATM   34  N   UNK N   1      31.745  17.344   2.767  0.00  0.00    -0.397 N 
HETATM   35  H   UNK N   1      31.165  18.007   2.328  0.00  0.00     0.156 HD
HETATM   36  H   UNK N   1      32.722  17.470   2.749  0.00  0.00     0.156 HD
ENDBRANCH  33  34
ENDBRANCH  26  28
ENDBRANCH  23  24
ENDBRANCH   4  22
TORSDOF 7
ENDMDL
MODEL 5
REMARK VINA RESULT:      -8.1     14.168     16.490
REMARK  7 active torsions:
REMARK  status: ('A' for Active; 'I' for Inactive)
REMARK    1  A    between atoms: C_4  and  C_8 
REMARK    2  A    between atoms: C_11  and  S_14 
REMARK    3  A    between atoms: S_14  and  N_17 
REMARK    4  A    between atoms: C_20  and  C_22 
REMARK    5  A    between atoms: C_23  and  C_24 
REMARK       I    between atoms: C_24  and  N_26 
REMARK    6  A    between atoms: N_26  and  C_27 
REMARK    7  A    between atoms: C_32  and  N_33 
ROOT
HETATM    1  N   UNK N   1      29.282  27.857  -5.281  0.00  0.00    -0.257 N 
HETATM    2  C   UNK N   1      28.489  28.944  -5.302  0.00  0.00     0.109 A 
HETATM    3  C   UNK N   1      27.490  28.749  -6.251  0.00  0.00     0.031 A 
HETATM    4  C   UNK N   1      27.726  27.492  -6.782  0.00  0.00    -0.018 A 
HETATM    5  C   UNK N   1      28.834  26.982  -6.172  0.00  0.00     0.120 A 
ENDROOT
BRANCH   1   6
HETATM    6  S   UNK N   1      30.656  27.510  -4.241  0.00  0.00     0.268 S 
HETATM    7  O   UNK N   1      31.788  28.340  -4.872  0.00  0.00    -0.200 OA
HETATM    8  O   UNK N   1      30.438  28.272  -2.927  0.00  0.00    -0.200 OA
BRANCH   6   9
HETATM    9  C   UNK N   1      31.208  25.821  -4.078  0.00  0.00     0.080 A 
HETATM   10  C   UNK N   1      32.293  25.359  -4.826  0.00  0.00     0.026 A 
HETATM   11  C   UNK N   1      32.635  24.005  -4.790  0.00  0.00     0.014 A 
HETATM   12  C   UNK N   1      31.894  23.107  -4.008  0.00  0.00    -0.023 A 
HETATM   13  C   UNK N   1      30.830  23.586  -3.230  0.00  0.00     0.014 A 
HETATM   14  C   UNK N   1      30.489  24.938  -3.267  0.00  0.00     0.026 A 
BRANCH  12  15
HETATM   15  C   UNK N   1      32.162  21.663  -4.079  0.00  0.00     0.008 A 
HETATM   16  C   UNK N   1      33.400  21.055  -4.119  0.00  0.00     0.123 A 
HETATM   17  N   UNK N   1      33.187  19.739  -4.272  0.00  0.00    -0.307 N 
HETATM   18  C   UNK N   1      34.217  18.725  -4.387  0.00  0.00     0.177 C 
HETATM   19  N   UNK N   1      31.889  19.486  -4.335  0.00  0.00    -0.310 N 
HETATM   20  C   UNK N   1      31.225  20.652  -4.221  0.00  0.00     0.120 A 
ATOM     21  HN  UNK N   1      31.465  18.565  -4.450  1.00  0.00     0.186 HD
ENDBRANCH  12  15
ENDBRANCH   6   9
ENDBRANCH   1   6
BRANCH   4  22
HETATM   22  C   UNK N   1      26.943  26.807  -7.821  0.00  0.00     0.018 C 
HETATM   23  C   UNK N   1      25.953  25.931  -7.563  0.00  0.00     0.075 C 
BRANCH  23  24
HETATM   24  C   UNK N   1      25.403  25.602  -6.213  0.00  0.00     0.245 C 
HETATM   25  O   UNK N   1      24.649  26.384  -5.654  0.00  0.00    -0.268 OA
HETATM   26  N   UNK N   1      25.661  24.404  -5.635  0.00  0.00    -0.322 N 
HETATM   27  H   UNK N   1      25.179  24.165  -4.810  0.00  0.00     0.169 HD
BRANCH  26  28
HETATM   28  C   UNK N   1      26.596  23.481  -6.170  0.00  0.00     0.061 A 
HETATM   29  C   UNK N   1      27.953  23.534  -5.801  0.00  0.00     0.032 A 
HETATM   30  C   UNK N   1      28.873  22.657  -6.377  0.00  0.00     0.002 A 
HETATM   31  C   UNK N   1      28.446  21.730  -7.330  0.00  0.00     0.002 A 
HETATM   32  C   UNK N   1      27.096  21.664  -7.688  0.00  0.00     0.031 A 
HETATM   33  C   UNK N   1      26.169  22.531  -7.101  0.00  0.00     0.052 A 
BRANCH  33  34
HETATM   34  N   UNK N   1      24.814  22.476  -7.489  0.00  0.00    -0.397 N 
HETATM   35  H   UNK N   1      24.148  21.994  -6.948  0.00  0.00     0.156 HD
HETATM   36  H   UNK N   1      24.530  22.928  -8.317  0.00  0.00     0.156 HD
ENDBRANCH  33  34
ENDBRANCH  26  28
ENDBRANCH  23  24
ENDBRANCH   4  22
TORSDOF 7
ENDMDL
MODEL 6
REMARK VINA RESULT:      -8.1      2.132      3.240
REMARK  7 active torsions:
REMARK  status: ('A' for Active; 'I' for Inactive)
REMARK    1  A    between atoms: C_4  and  C_8 
REMARK    2  A    between atoms: C_11  and  S_14 
REMARK    3  A    between atoms: S_14  and  N_17 
REMARK    4  A    between atoms: C_20  and  C_22 
REMARK    5  A    between atoms: C_23  and  C_24 
REMARK       I    between atoms: C_24  and  N_26 
REMARK    6  A    between atoms: N_26  and  C_27 
REMARK    7  A    between atoms: C_32  and  N_33 
ROOT
HETATM    1  N   UNK N   1      31.791  17.309   7.629  0.00  0.00    -0.257 N 
HETATM    2  C   UNK N   1      31.346  18.216   8.518  0.00  0.00     0.109 A 
HETATM    3  C   UNK N   1      29.954  18.211   8.502  0.00  0.00     0.031 A 
HETATM    4  C   UNK N   1      29.600  17.251   7.569  0.00  0.00    -0.018 A 
HETATM    5  C   UNK N   1      30.748  16.729   7.050  0.00  0.00     0.120 A 
ENDROOT
BRANCH   1   6
HETATM    6  S   UNK N   1      33.444  16.833   7.267  0.00  0.00     0.268 S 
HETATM    7  O   UNK N   1      33.276  15.865   6.083  0.00  0.00    -0.200 OA
HETATM    8  O   UNK N   1      34.120  18.023   6.574  0.00  0.00    -0.200 OA
BRANCH   6   9
HETATM    9  C   UNK N   1      34.403  16.024   8.535  0.00  0.00     0.080 A 
HETATM   10  C   UNK N   1      34.657  14.653   8.461  0.00  0.00     0.026 A 
HETATM   11  C   UNK N   1      35.295  14.005   9.521  0.00  0.00     0.014 A 
HETATM   12  C   UNK N   1      35.682  14.725  10.661  0.00  0.00    -0.023 A 
HETATM   13  C   UNK N   1      35.459  16.108  10.712  0.00  0.00     0.014 A 
HETATM   14  C   UNK N   1      34.820  16.754   9.653  0.00  0.00     0.026 A 
BRANCH  12  15
HETATM   15  C   UNK N   1      36.224  14.023  11.835  0.00  0.00     0.008 A 
HETATM   16  C   UNK N   1      35.937  14.287  13.158  0.00  0.00     0.123 A 
HETATM   17  N   UNK N   1      36.711  13.478  13.897  0.00  0.00    -0.307 N 
HETATM   18  C   UNK N   1      36.752  13.439  15.345  0.00  0.00     0.177 C 
HETATM   19  N   UNK N   1      37.470  12.725  13.115  0.00  0.00    -0.310 N 
HETATM   20  C   UNK N   1      37.196  13.037  11.834  0.00  0.00     0.120 A 
ATOM     21  HN  UNK N   1      38.145  12.028  13.430  1.00  0.00     0.186 HD
ENDBRANCH  12  15
ENDBRANCH   6   9
ENDBRANCH   1   6
BRANCH   4  22
HETATM   22  C   UNK N   1      28.239  16.850   7.183  0.00  0.00     0.018 C 
HETATM   23  C   UNK N   1      27.481  17.519   6.293  0.00  0.00     0.075 C 
BRANCH  23  24
HETATM   24  C   UNK N   1      27.922  18.681   5.464  0.00  0.00     0.245 C 
HETATM   25  O   UNK N   1      28.007  19.792   5.966  0.00  0.00    -0.268 OA
HETATM   26  N   UNK N   1      28.314  18.505   4.179  0.00  0.00    -0.322 N 
HETATM   27  H   UNK N   1      28.723  19.263   3.703  0.00  0.00     0.169 HD
BRANCH  26  28
HETATM   28  C   UNK N   1      28.159  17.272   3.493  0.00  0.00     0.061 A 
HETATM   29  C   UNK N   1      26.879  16.765   3.202  0.00  0.00     0.032 A 
HETATM   30  C   UNK N   1      26.739  15.525   2.578  0.00  0.00     0.002 A 
HETATM   31  C   UNK N   1      27.874  14.780   2.251  0.00  0.00     0.002 A 
HETATM   32  C   UNK N   1      29.148  15.288   2.525  0.00  0.00     0.031 A 
HETATM   33  C   UNK N   1      29.292  16.537   3.136  0.00  0.00     0.052 A 
BRANCH  33  34
HETATM   34  N   UNK N   1      30.580  17.028   3.434  0.00  0.00    -0.397 N 
HETATM   35  H   UNK N   1      31.135  17.456   2.743  0.00  0.00     0.156 HD
HETATM   36  H   UNK N   1      30.930  16.941   4.351  0.00  0.00     0.156 HD
ENDBRANCH  33  34
ENDBRANCH  26  28
ENDBRANCH  23  24
ENDBRANCH   4  22
TORSDOF 7
ENDMDL
MODEL 7
REMARK VINA RESULT:      -8.1     14.526     18.320
REMARK  7 active torsions:
REMARK  status: ('A' for Active; 'I' for Inactive)
REMARK    1  A    between atoms: C_4  and  C_8 
REMARK    2  A    between atoms: C_11  and  S_14 
REMARK    3  A    between atoms: S_14  and  N_17 
REMARK    4  A    between atoms: C_20  and  C_22 
REMARK    5  A    between atoms: C_23  and  C_24 
REMARK       I    between atoms: C_24  and  N_26 
REMARK    6  A    between atoms: N_26  and  C_27 
REMARK    7  A    between atoms: C_32  and  N_33 
ROOT
HETATM    1  N   UNK N   1      26.914  22.124  -8.554  0.00  0.00    -0.257 N 
HETATM    2  C   UNK N   1      27.336  21.487  -9.662  0.00  0.00     0.109 A 
HETATM    3  C   UNK N   1      28.391  20.646  -9.320  0.00  0.00     0.031 A 
HETATM    4  C   UNK N   1      28.564  20.810  -7.956  0.00  0.00    -0.018 A 
HETATM    5  C   UNK N   1      27.651  21.726  -7.525  0.00  0.00     0.120 A 
ENDROOT
BRANCH   1   6
HETATM    6  S   UNK N   1      25.577  23.249  -8.365  0.00  0.00     0.268 S 
HETATM    7  O   UNK N   1      25.407  23.827  -9.781  0.00  0.00    -0.200 OA
HETATM    8  O   UNK N   1      24.295  22.416  -8.238  0.00  0.00    -0.200 OA
BRANCH   6   9
HETATM    9  C   UNK N   1      25.745  24.599  -7.212  0.00  0.00     0.080 A 
HETATM   10  C   UNK N   1      25.943  25.901  -7.674  0.00  0.00     0.026 A 
HETATM   11  C   UNK N   1      26.203  26.931  -6.766  0.00  0.00     0.014 A 
HETATM   12  C   UNK N   1      26.268  26.661  -5.391  0.00  0.00    -0.023 A 
HETATM   13  C   UNK N   1      26.030  25.359  -4.931  0.00  0.00     0.014 A 
HETATM   14  C   UNK N   1      25.770  24.332  -5.839  0.00  0.00     0.026 A 
BRANCH  12  15
HETATM   15  C   UNK N   1      26.681  27.711  -4.447  0.00  0.00     0.008 A 
HETATM   16  C   UNK N   1      27.954  27.925  -3.957  0.00  0.00     0.123 A 
HETATM   17  N   UNK N   1      27.867  28.920  -3.062  0.00  0.00    -0.307 N 
HETATM   18  C   UNK N   1      28.968  29.453  -2.283  0.00  0.00     0.177 C 
HETATM   19  N   UNK N   1      26.616  29.341  -2.958  0.00  0.00    -0.310 N 
HETATM   20  C   UNK N   1      25.855  28.615  -3.799  0.00  0.00     0.120 A 
ATOM     21  HN  UNK N   1      26.286  30.088  -2.347  1.00  0.00     0.186 HD
ENDBRANCH  12  15
ENDBRANCH   6   9
ENDBRANCH   1   6
BRANCH   4  22
HETATM   22  C   UNK N   1      29.551  20.133  -7.102  0.00  0.00     0.018 C 
HETATM   23  C   UNK N   1      30.794  20.598  -6.873  0.00  0.00     0.075 C 
BRANCH  23  24
HETATM   24  C   UNK N   1      31.335  21.915  -7.329  0.00  0.00     0.245 C 
HETATM   25  O   UNK N   1      31.802  22.027  -8.453  0.00  0.00    -0.268 OA
HETATM   26  N   UNK N   1      31.235  23.013  -6.542  0.00  0.00    -0.322 N 
HETATM   27  H   UNK N   1      31.479  23.889  -6.921  0.00  0.00     0.169 HD
BRANCH  26  28
HETATM   28  C   UNK N   1      30.795  22.952  -5.194  0.00  0.00     0.061 A 
HETATM   29  C   UNK N   1      29.463  23.257  -4.856  0.00  0.00     0.032 A 
HETATM   30  C   UNK N   1      29.057  23.249  -3.522  0.00  0.00     0.002 A 
HETATM   31  C   UNK N   1      29.978  22.947  -2.517  0.00  0.00     0.002 A 
HETATM   32  C   UNK N   1      31.299  22.630  -2.850  0.00  0.00     0.031 A 
HETATM   33  C   UNK N   1      31.705  22.622  -4.187  0.00  0.00     0.052 A 
BRANCH  33  34
HETATM   34  N   UNK N   1      33.046  22.327  -4.511  0.00  0.00    -0.397 N 
HETATM   35  H   UNK N   1      33.744  23.019  -4.472  0.00  0.00     0.156 HD
HETATM   36  H   UNK N   1      33.287  21.410  -4.780  0.00  0.00     0.156 HD
ENDBRANCH  33  34
ENDBRANCH  26  28
ENDBRANCH  23  24
ENDBRANCH   4  22
TORSDOF 7
ENDMDL
MODEL 8
REMARK VINA RESULT:      -7.9      3.021     11.189
REMARK  7 active torsions:
REMARK  status: ('A' for Active; 'I' for Inactive)
REMARK    1  A    between atoms: C_4  and  C_8 
REMARK    2  A    between atoms: C_11  and  S_14 
REMARK    3  A    between atoms: S_14  and  N_17 
REMARK    4  A    between atoms: C_20  and  C_22 
REMARK    5  A    between atoms: C_23  and  C_24 
REMARK       I    between atoms: C_24  and  N_26 
REMARK    6  A    between atoms: N_26  and  C_27 
REMARK    7  A    between atoms: C_32  and  N_33 
ROOT
HETATM    1  N   UNK N   1      35.723  13.188  11.328  0.00  0.00    -0.257 N 
HETATM    2  C   UNK N   1      36.420  12.099  10.954  0.00  0.00     0.109 A 
HETATM    3  C   UNK N   1      35.939  10.998  11.655  0.00  0.00     0.031 A 
HETATM    4  C   UNK N   1      34.919  11.487  12.453  0.00  0.00    -0.018 A 
HETATM    5  C   UNK N   1      34.823  12.829  12.234  0.00  0.00     0.120 A 
ENDROOT
BRANCH   1   6
HETATM    6  S   UNK N   1      35.843  14.837  10.734  0.00  0.00     0.268 S 
HETATM    7  O   UNK N   1      35.943  15.667  12.026  0.00  0.00    -0.200 OA
HETATM    8  O   UNK N   1      37.257  15.016  10.166  0.00  0.00    -0.200 OA
BRANCH   6   9
HETATM    9  C   UNK N   1      34.517  15.491   9.736  0.00  0.00     0.080 A 
HETATM   10  C   UNK N   1      34.512  16.836   9.362  0.00  0.00     0.026 A 
HETATM   11  C   UNK N   1      33.407  17.369   8.693  0.00  0.00     0.014 A 
HETATM   12  C   UNK N   1      32.301  16.558   8.396  0.00  0.00    -0.023 A 
HETATM   13  C   UNK N   1      32.329  15.200   8.740  0.00  0.00     0.014 A 
HETATM   14  C   UNK N   1      33.433  14.669   9.408  0.00  0.00     0.026 A 
BRANCH  12  15
HETATM   15  C   UNK N   1      31.082  17.147   7.821  0.00  0.00     0.008 A 
HETATM   16  C   UNK N   1      30.198  17.996   8.455  0.00  0.00     0.123 A 
HETATM   17  N   UNK N   1      29.186  18.217   7.603  0.00  0.00    -0.307 N 
HETATM   18  C   UNK N   1      28.020  19.035   7.871  0.00  0.00     0.177 C 
HETATM   19  N   UNK N   1      29.380  17.554   6.474  0.00  0.00    -0.310 N 
HETATM   20  C   UNK N   1      30.541  16.879   6.574  0.00  0.00     0.120 A 
ATOM     21  HN  UNK N   1      28.757  17.554   5.666  1.00  0.00     0.186 HD
ENDBRANCH  12  15
ENDBRANCH   6   9
ENDBRANCH   1   6
BRANCH   4  22
HETATM   22  C   UNK N   1      34.077  10.719  13.383  0.00  0.00     0.018 C 
HETATM   23  C   UNK N   1      34.017  10.949  14.709  0.00  0.00     0.075 C 
BRANCH  23  24
HETATM   24  C   UNK N   1      34.677  12.077  15.434  0.00  0.00     0.245 C 
HETATM   25  O   UNK N   1      34.070  13.120  15.624  0.00  0.00    -0.268 OA
HETATM   26  N   UNK N   1      35.917  11.928  15.961  0.00  0.00    -0.322 N 
HETATM   27  H   UNK N   1      36.270  12.638  16.544  0.00  0.00     0.169 HD
BRANCH  26  28
HETATM   28  C   UNK N   1      36.725  10.790  15.707  0.00  0.00     0.061 A 
HETATM   29  C   UNK N   1      36.475   9.567  16.357  0.00  0.00     0.032 A 
HETATM   30  C   UNK N   1      37.312   8.472  16.143  0.00  0.00     0.002 A 
HETATM   31  C   UNK N   1      38.408   8.593  15.286  0.00  0.00     0.002 A 
HETATM   32  C   UNK N   1      38.652   9.802  14.626  0.00  0.00     0.031 A 
HETATM   33  C   UNK N   1      37.806  10.896  14.828  0.00  0.00     0.052 A 
BRANCH  33  34
HETATM   34  N   UNK N   1      38.076  12.119  14.179  0.00  0.00    -0.397 N 
HETATM   35  H   UNK N   1      37.839  12.259  13.234  0.00  0.00     0.156 HD
HETATM   36  H   UNK N   1      38.509  12.847  14.682  0.00  0.00     0.156 HD
ENDBRANCH  33  34
ENDBRANCH  26  28
ENDBRANCH  23  24
ENDBRANCH   4  22
TORSDOF 7
ENDMDL
MODEL 9
REMARK VINA RESULT:      -7.9      3.040     10.945
REMARK  7 active torsions:
REMARK  status: ('A' for Active; 'I' for Inactive)
REMARK    1  A    between atoms: C_4  and  C_8 
REMARK    2  A    between atoms: C_11  and  S_14 
REMARK    3  A    between atoms: S_14  and  N_17 
REMARK    4  A    between atoms: C_20  and  C_22 
REMARK    5  A    between atoms: C_23  and  C_24 
REMARK       I    between atoms: C_24  and  N_26 
REMARK    6  A    between atoms: N_26  and  C_27 
REMARK    7  A    between atoms: C_32  and  N_33 
ROOT
HETATM    1  N   UNK N   1      35.652  13.245  11.081  0.00  0.00    -0.257 N 
HETATM    2  C   UNK N   1      36.265  12.209  10.478  0.00  0.00     0.109 A 
HETATM    3  C   UNK N   1      35.919  11.037  11.143  0.00  0.00     0.031 A 
HETATM    4  C   UNK N   1      35.067  11.429  12.161  0.00  0.00    -0.018 A 
HETATM    5  C   UNK N   1      34.935  12.785  12.098  0.00  0.00     0.120 A 
ENDROOT
BRANCH   1   6
HETATM    6  S   UNK N   1      35.664  14.946  10.641  0.00  0.00     0.268 S 
HETATM    7  O   UNK N   1      35.732  15.658  12.003  0.00  0.00    -0.200 OA
HETATM    8  O   UNK N   1      37.056  15.263  10.079  0.00  0.00    -0.200 OA
BRANCH   6   9
HETATM    9  C   UNK N   1      34.285  15.606   9.719  0.00  0.00     0.080 A 
HETATM   10  C   UNK N   1      34.306  16.927   9.269  0.00  0.00     0.026 A 
HETATM   11  C   UNK N   1      33.172  17.474   8.663  0.00  0.00     0.014 A 
HETATM   12  C   UNK N   1      32.011  16.701   8.508  0.00  0.00    -0.023 A 
HETATM   13  C   UNK N   1      32.010  15.364   8.928  0.00  0.00     0.014 A 
HETATM   14  C   UNK N   1      33.144  14.819   9.533  0.00  0.00     0.026 A 
BRANCH  12  15
HETATM   15  C   UNK N   1      30.773  17.315   8.003  0.00  0.00     0.008 A 
HETATM   16  C   UNK N   1      30.251  17.191   6.731  0.00  0.00     0.123 A 
HETATM   17  N   UNK N   1      29.168  17.980   6.673  0.00  0.00    -0.307 N 
HETATM   18  C   UNK N   1      28.325  18.173   5.510  0.00  0.00     0.177 C 
HETATM   19  N   UNK N   1      28.982  18.596   7.831  0.00  0.00    -0.310 N 
HETATM   20  C   UNK N   1      29.957  18.210   8.676  0.00  0.00     0.120 A 
ATOM     21  HN  UNK N   1      28.230  19.250   8.046  1.00  0.00     0.186 HD
ENDBRANCH  12  15
ENDBRANCH   6   9
ENDBRANCH   1   6
BRANCH   4  22
HETATM   22  C   UNK N   1      34.411  10.561  13.151  0.00  0.00     0.018 C 
HETATM   23  C   UNK N   1      35.073   9.735  13.984  0.00  0.00     0.075 C 
BRANCH  23  24
HETATM   24  C   UNK N   1      36.557   9.649  14.137  0.00  0.00     0.245 C 
HETATM   25  O   UNK N   1      37.196   8.861  13.456  0.00  0.00    -0.268 OA
HETATM   26  N   UNK N   1      37.216  10.497  14.963  0.00  0.00    -0.322 N 
HETATM   27  H   UNK N   1      38.201  10.505  14.942  0.00  0.00     0.169 HD
BRANCH  26  28
HETATM   28  C   UNK N   1      36.547  11.373  15.855  0.00  0.00     0.061 A 
HETATM   29  C   UNK N   1      35.887  10.878  16.994  0.00  0.00     0.032 A 
HETATM   30  C   UNK N   1      35.184  11.743  17.833  0.00  0.00     0.002 A 
HETATM   31  C   UNK N   1      35.127  13.106  17.533  0.00  0.00     0.002 A 
HETATM   32  C   UNK N   1      35.794  13.605  16.410  0.00  0.00     0.031 A 
HETATM   33  C   UNK N   1      36.512  12.742  15.577  0.00  0.00     0.052 A 
BRANCH  33  34
HETATM   34  N   UNK N   1      37.158  13.251  14.431  0.00  0.00    -0.397 N 
HETATM   35  H   UNK N   1      37.687  14.079  14.469  0.00  0.00     0.156 HD
HETATM   36  H   UNK N   1      37.078  12.767  13.576  0.00  0.00     0.156 HD
ENDBRANCH  33  34
ENDBRANCH  26  28
ENDBRANCH  23  24
ENDBRANCH   4  22
TORSDOF 7
ENDMDL
