MODEL 1
REMARK VINA RESULT:      -8.5      0.000      0.000
REMARK  6 active torsions:
REMARK  status: ('A' for Active; 'I' for Inactive)
REMARK    1  A    between atoms: C_4  and  N_8 
REMARK    2  A    between atoms: N_8  and  C_9 
REMARK    3  A    between atoms: C_11  and  C_30 
REMARK    4  A    between atoms: C_16  and  C_20 
REMARK    5  A    between atoms: C_20  and  C_21 
REMARK    6  A    between atoms: C_30  and  N_31 
ROOT
HETATM    1  C   UNK N   1      32.239  17.293   5.027  0.00  0.00     0.122 A 
HETATM    2  C   UNK N   1      33.314  17.463   5.914  0.00  0.00     0.062 A 
HETATM    3  C   UNK N   1      33.111  17.543   7.280  0.00  0.00     0.019 A 
HETATM    4  C   UNK N   1      31.786  17.445   7.723  0.00  0.00     0.135 A 
HETATM    5  N   UNK N   1      31.349  17.456   9.001  0.00  0.00    -0.343 N 
ATOM      6  HN  UNK N   1      31.907  17.555   9.849  1.00  0.00     0.167 HD
HETATM    7  C   UNK N   1      30.010  17.305   8.906  0.00  0.00     0.032 A 
HETATM    8  C   UNK N   1      29.644  17.202   7.574  0.00  0.00     0.062 A 
HETATM    9  N   UNK N   1      30.779  17.302   6.846  0.00  0.00    -0.240 N 
HETATM   10  N   UNK N   1      30.969  17.236   5.524  0.00  0.00    -0.277 N 
ATOM     11  HN  UNK N   1      30.173  17.145   4.893  1.00  0.00     0.189 HD
HETATM   12  C   UNK N   1      29.105  17.236  10.087  0.00  0.00     0.070 C 
ENDROOT
BRANCH   1  13
HETATM   13  N   UNK N   1      32.487  17.107   3.638  0.00  0.00    -0.327 N 
HETATM   14  H   UNK N   1      32.447  17.885   3.035  0.00  0.00     0.169 HD
BRANCH  13  15
HETATM   15  C   UNK N   1      32.790  15.822   3.098  0.00  0.00     0.123 A 
HETATM   16  C   UNK N   1      32.078  14.657   3.327  0.00  0.00     0.075 A 
HETATM   17  C   UNK N   1      32.766  13.712   2.612  0.00  0.00     0.025 A 
HETATM   18  C   UNK N   1      32.421  12.268   2.545  0.00  0.00     0.070 C 
HETATM   19  N   UNK N   1      33.817  14.280   1.987  0.00  0.00    -0.304 N 
HETATM   20  N   UNK N   1      33.828  15.573   2.280  0.00  0.00    -0.285 N 
HETATM   21  H   UNK N   1      34.466  13.813   1.413  0.00  0.00     0.186 HD
ATOM     22  HN  UNK N   1      34.504  16.258   1.943  1.00  0.00     0.188 HD
ENDBRANCH  13  15
ENDBRANCH   1  13
BRANCH   3  23
HETATM   23  C   UNK N   1      34.332  17.676   8.148  0.00  0.00     0.315 C 
BRANCH  23  24
HETATM   24  N   UNK N   1      34.460  16.602   9.110  0.00  0.00     0.096 N 
HETATM   25  C   UNK N   1      35.131  15.478   8.464  0.00  0.00     0.299 C 
HETATM   26  C   UNK N   1      35.334  14.380   9.512  0.00  0.00     0.198 C 
HETATM   27  O   UNK N   1      36.146  14.864  10.558  0.00  0.00    -0.388 OA
HETATM   28  C   UNK N   1      35.445  15.905  11.197  0.00  0.00     0.198 C 
HETATM   29  C   UNK N   1      35.287  17.067  10.222  0.00  0.00     0.299 C 
ENDBRANCH  23  24
ENDBRANCH   3  23
BRANCH   8  30
HETATM   30  C   UNK N   1      28.225  16.971   7.100  0.00  0.00     0.103 C 
BRANCH  30  31
HETATM   31  C   UNK N   1      27.713  17.929   6.075  0.00  0.00    -0.014 A 
HETATM   32  C   UNK N   1      27.350  17.467   4.804  0.00  0.00     0.012 A 
HETATM   33  C   UNK N   1      26.931  18.366   3.823  0.00  0.00     0.024 A 
HETATM   34  C   UNK N   1      26.844  19.727   4.118  0.00  0.00     0.036 A 
HETATM   35  C   UNK N   1      27.150  20.188   5.402  0.00  0.00     0.066 A 
HETATM   36 Cl   UNK N   1      26.367  20.856   2.871  0.00  0.00    -0.084 Cl
HETATM   37  C   UNK N   1      27.581  19.291   6.385  0.00  0.00     0.124 A 
HETATM   38  F   UNK N   1      27.875  19.749   7.627  0.00  0.00    -0.205 F 
ENDBRANCH  30  31
ENDBRANCH   8  30
TORSDOF 6
ENDMDL
MODEL 2
REMARK VINA RESULT:      -8.2      6.434     10.367
REMARK  6 active torsions:
REMARK  status: ('A' for Active; 'I' for Inactive)
REMARK    1  A    between atoms: C_4  and  N_8 
REMARK    2  A    between atoms: N_8  and  C_9 
REMARK    3  A    between atoms: C_11  and  C_30 
REMARK    4  A    between atoms: C_16  and  C_20 
REMARK    5  A    between atoms: C_20  and  C_21 
REMARK    6  A    between atoms: C_30  and  N_31 
ROOT
HETATM    1  C   UNK N   1      34.712  14.597  10.800  0.00  0.00     0.122 A 
HETATM    2  C   UNK N   1      35.967  14.720  10.182  0.00  0.00     0.062 A 
HETATM    3  C   UNK N   1      37.038  13.938  10.573  0.00  0.00     0.019 A 
HETATM    4  C   UNK N   1      36.803  13.024  11.608  0.00  0.00     0.135 A 
HETATM    5  N   UNK N   1      37.677  12.136  12.127  0.00  0.00    -0.343 N 
ATOM      6  HN  UNK N   1      38.653  11.996  11.866  1.00  0.00     0.167 HD
HETATM    7  C   UNK N   1      36.972  11.474  13.070  0.00  0.00     0.032 A 
HETATM    8  C   UNK N   1      35.676  11.962  13.114  0.00  0.00     0.062 A 
HETATM    9  N   UNK N   1      35.596  12.946  12.190  0.00  0.00    -0.240 N 
HETATM   10  N   UNK N   1      34.560  13.708  11.825  0.00  0.00    -0.277 N 
ATOM     11  HN  UNK N   1      33.665  13.628  12.306  1.00  0.00     0.189 HD
HETATM   12  C   UNK N   1      37.535  10.369  13.894  0.00  0.00     0.070 C 
ENDROOT
BRANCH   1  13
HETATM   13  N   UNK N   1      33.601  15.338  10.306  0.00  0.00    -0.327 N 
HETATM   14  H   UNK N   1      32.717  15.208  10.718  0.00  0.00     0.169 HD
BRANCH  13  15
HETATM   15  C   UNK N   1      33.740  16.265   9.230  0.00  0.00     0.123 A 
HETATM   16  C   UNK N   1      33.441  16.016   7.902  0.00  0.00     0.075 A 
HETATM   17  C   UNK N   1      33.754  17.194   7.274  0.00  0.00     0.025 A 
HETATM   18  C   UNK N   1      33.637  17.444   5.814  0.00  0.00     0.070 C 
HETATM   19  N   UNK N   1      34.203  18.091   8.174  0.00  0.00    -0.304 N 
HETATM   20  N   UNK N   1      34.188  17.525   9.372  0.00  0.00    -0.285 N 
HETATM   21  H   UNK N   1      34.492  19.011   7.975  0.00  0.00     0.186 HD
ATOM     22  HN  UNK N   1      34.467  17.967  10.249  1.00  0.00     0.188 HD
ENDBRANCH  13  15
ENDBRANCH   1  13
BRANCH   3  23
HETATM   23  C   UNK N   1      38.326  14.112   9.816  0.00  0.00     0.315 C 
BRANCH  23  24
HETATM   24  N   UNK N   1      38.512  13.115   8.782  0.00  0.00     0.096 N 
HETATM   25  C   UNK N   1      38.770  13.800   7.519  0.00  0.00     0.299 C 
HETATM   26  C   UNK N   1      39.046  12.738   6.451  0.00  0.00     0.198 C 
HETATM   27  O   UNK N   1      40.183  11.985   6.810  0.00  0.00    -0.388 OA
HETATM   28  C   UNK N   1      39.880  11.292   7.997  0.00  0.00     0.198 C 
HETATM   29  C   UNK N   1      39.678  12.302   9.122  0.00  0.00     0.299 C 
ENDBRANCH  23  24
ENDBRANCH   3  23
BRANCH   8  30
HETATM   30  C   UNK N   1      34.593  11.414  14.020  0.00  0.00     0.103 C 
BRANCH  30  31
HETATM   31  C   UNK N   1      34.770  11.669  15.481  0.00  0.00    -0.014 A 
HETATM   32  C   UNK N   1      34.768  12.982  15.969  0.00  0.00     0.012 A 
HETATM   33  C   UNK N   1      34.995  13.228  17.322  0.00  0.00     0.024 A 
HETATM   34  C   UNK N   1      35.196  12.162  18.200  0.00  0.00     0.036 A 
HETATM   35  C   UNK N   1      35.141  10.846  17.730  0.00  0.00     0.066 A 
HETATM   36 Cl   UNK N   1      35.530  12.478  19.887  0.00  0.00    -0.084 Cl
HETATM   37  C   UNK N   1      34.925  10.595  16.371  0.00  0.00     0.124 A 
HETATM   38  F   UNK N   1      34.874   9.315  15.926  0.00  0.00    -0.205 F 
ENDBRANCH  30  31
ENDBRANCH   8  30
TORSDOF 6
ENDMDL
MODEL 3
REMARK VINA RESULT:      -8.2      1.919      2.394
REMARK  6 active torsions:
REMARK  status: ('A' for Active; 'I' for Inactive)
REMARK    1  A    between atoms: C_4  and  N_8 
REMARK    2  A    between atoms: N_8  and  C_9 
REMARK    3  A    between atoms: C_11  and  C_30 
REMARK    4  A    between atoms: C_16  and  C_20 
REMARK    5  A    between atoms: C_20  and  C_21 
REMARK    6  A    between atoms: C_30  and  N_31 
ROOT
HETATM    1  C   UNK N   1      31.532  16.160   4.941  0.00  0.00     0.122 A 
HETATM    2  C   UNK N   1      32.789  16.289   5.555  0.00  0.00     0.062 A 
HETATM    3  C   UNK N   1      32.920  16.872   6.802  0.00  0.00     0.019 A 
HETATM    4  C   UNK N   1      31.742  17.321   7.412  0.00  0.00     0.135 A 
HETATM    5  N   UNK N   1      31.617  17.882   8.633  0.00  0.00    -0.343 N 
ATOM      6  HN  UNK N   1      32.358  18.087   9.303  1.00  0.00     0.167 HD
HETATM    7  C   UNK N   1      30.293  18.111   8.770  0.00  0.00     0.032 A 
HETATM    8  C   UNK N   1      29.624  17.686   7.634  0.00  0.00     0.062 A 
HETATM    9  N   UNK N   1      30.559  17.200   6.787  0.00  0.00    -0.240 N 
HETATM   10  N   UNK N   1      30.428  16.648   5.576  0.00  0.00    -0.277 N 
ATOM     11  HN  UNK N   1      29.512  16.593   5.131  1.00  0.00     0.189 HD
HETATM   12  C   UNK N   1      29.684  18.706   9.992  0.00  0.00     0.070 C 
ENDROOT
BRANCH   1  13
HETATM   13  N   UNK N   1      31.414  15.461   3.706  0.00  0.00    -0.327 N 
HETATM   14  H   UNK N   1      32.222  15.294   3.169  0.00  0.00     0.169 HD
BRANCH  13  15
HETATM   15  C   UNK N   1      30.152  14.998   3.227  0.00  0.00     0.123 A 
HETATM   16  C   UNK N   1      29.147  15.787   2.694  0.00  0.00     0.075 A 
HETATM   17  C   UNK N   1      28.151  14.890   2.405  0.00  0.00     0.025 A 
HETATM   18  C   UNK N   1      26.827  15.238   1.828  0.00  0.00     0.070 C 
HETATM   19  N   UNK N   1      28.542  13.644   2.736  0.00  0.00    -0.304 N 
HETATM   20  N   UNK N   1      29.770  13.709   3.233  0.00  0.00    -0.285 N 
HETATM   21  H   UNK N   1      28.008  12.825   2.626  0.00  0.00     0.186 HD
ATOM     22  HN  UNK N   1      30.326  12.920   3.563  1.00  0.00     0.188 HD
ENDBRANCH  13  15
ENDBRANCH   1  13
BRANCH   3  23
HETATM   23  C   UNK N   1      34.301  16.918   7.395  0.00  0.00     0.315 C 
BRANCH  23  24
HETATM   24  N   UNK N   1      34.438  16.087   8.573  0.00  0.00     0.096 N 
HETATM   25  C   UNK N   1      35.390  15.020   8.280  0.00  0.00     0.299 C 
HETATM   26  C   UNK N   1      35.588  14.197   9.557  0.00  0.00     0.198 C 
HETATM   27  O   UNK N   1      36.112  15.019  10.576  0.00  0.00    -0.388 OA
HETATM   28  C   UNK N   1      35.147  15.999  10.875  0.00  0.00     0.198 C 
HETATM   29  C   UNK N   1      34.969  16.905   9.662  0.00  0.00     0.299 C 
ENDBRANCH  23  24
ENDBRANCH   3  23
BRANCH   8  30
HETATM   30  C   UNK N   1      28.120  17.742   7.464  0.00  0.00     0.103 C 
BRANCH  30  31
HETATM   31  C   UNK N   1      27.624  18.471   6.259  0.00  0.00    -0.014 A 
HETATM   32  C   UNK N   1      27.724  19.866   6.194  0.00  0.00     0.012 A 
HETATM   33  C   UNK N   1      27.205  20.557   5.099  0.00  0.00     0.024 A 
HETATM   34  C   UNK N   1      26.611  19.853   4.050  0.00  0.00     0.036 A 
HETATM   35  C   UNK N   1      26.559  18.457   4.082  0.00  0.00     0.066 A 
HETATM   36 Cl   UNK N   1      25.918  20.727   2.703  0.00  0.00    -0.084 Cl
HETATM   37  C   UNK N   1      27.068  17.761   5.184  0.00  0.00     0.124 A 
HETATM   38  F   UNK N   1      27.013  16.406   5.204  0.00  0.00    -0.205 F 
ENDBRANCH  30  31
ENDBRANCH   8  30
TORSDOF 6
ENDMDL
MODEL 4
REMARK VINA RESULT:      -7.9      4.690      9.013
REMARK  6 active torsions:
REMARK  status: ('A' for Active; 'I' for Inactive)
REMARK    1  A    between atoms: C_4  and  N_8 
REMARK    2  A    between atoms: N_8  and  C_9 
REMARK    3  A    between atoms: C_11  and  C_30 
REMARK    4  A    between atoms: C_16  and  C_20 
REMARK    5  A    between atoms: C_20  and  C_21 
REMARK    6  A    between atoms: C_30  and  N_31 
ROOT
HETATM    1  C   UNK N   1      27.601  18.713   4.045  0.00  0.00     0.122 A 
HETATM    2  C   UNK N   1      26.334  18.137   3.858  0.00  0.00     0.062 A 
HETATM    3  C   UNK N   1      26.199  16.832   3.421  0.00  0.00     0.019 A 
HETATM    4  C   UNK N   1      27.384  16.125   3.179  0.00  0.00     0.135 A 
HETATM    5  N   UNK N   1      27.502  14.838   2.789  0.00  0.00    -0.343 N 
ATOM      6  HN  UNK N   1      26.752  14.176   2.588  1.00  0.00     0.167 HD
HETATM    7  C   UNK N   1      28.834  14.621   2.723  0.00  0.00     0.032 A 
HETATM    8  C   UNK N   1      29.514  15.776   3.076  0.00  0.00     0.062 A 
HETATM    9  N   UNK N   1      28.579  16.713   3.351  0.00  0.00    -0.240 N 
HETATM   10  N   UNK N   1      28.716  17.979   3.762  0.00  0.00    -0.277 N 
ATOM     11  HN  UNK N   1      29.643  18.391   3.861  1.00  0.00     0.189 HD
HETATM   12  C   UNK N   1      29.436  13.312   2.351  0.00  0.00     0.070 C 
ENDROOT
BRANCH   1  13
HETATM   13  N   UNK N   1      27.712  20.021   4.597  0.00  0.00    -0.327 N 
HETATM   14  H   UNK N   1      28.139  20.732   4.066  0.00  0.00     0.169 HD
BRANCH  13  15
HETATM   15  C   UNK N   1      27.219  20.327   5.901  0.00  0.00     0.123 A 
HETATM   16  C   UNK N   1      26.426  21.411   6.236  0.00  0.00     0.075 A 
HETATM   17  C   UNK N   1      26.239  21.270   7.586  0.00  0.00     0.025 A 
HETATM   18  C   UNK N   1      25.467  22.205   8.446  0.00  0.00     0.070 C 
HETATM   19  N   UNK N   1      26.872  20.165   8.027  0.00  0.00    -0.304 N 
HETATM   20  N   UNK N   1      27.467  19.584   6.994  0.00  0.00    -0.285 N 
HETATM   21  H   UNK N   1      26.889  19.844   8.957  0.00  0.00     0.186 HD
ATOM     22  HN  UNK N   1      28.015  18.724   7.023  1.00  0.00     0.188 HD
ENDBRANCH  13  15
ENDBRANCH   1  13
BRANCH   3  23
HETATM   23  C   UNK N   1      24.801  16.292   3.298  0.00  0.00     0.315 C 
BRANCH  23  24
HETATM   24  N   UNK N   1      23.956  16.654   4.416  0.00  0.00     0.096 N 
HETATM   25  C   UNK N   1      22.667  17.100   3.897  0.00  0.00     0.299 C 
HETATM   26  C   UNK N   1      21.754  17.403   5.089  0.00  0.00     0.198 C 
HETATM   27  O   UNK N   1      21.565  16.233   5.854  0.00  0.00    -0.388 OA
HETATM   28  C   UNK N   1      22.815  15.864   6.387  0.00  0.00     0.198 C 
HETATM   29  C   UNK N   1      23.744  15.469   5.245  0.00  0.00     0.299 C 
ENDBRANCH  23  24
ENDBRANCH   3  23
BRANCH   8  30
HETATM   30  C   UNK N   1      31.022  15.879   3.164  0.00  0.00     0.103 C 
BRANCH  30  31
HETATM   31  C   UNK N   1      31.578  16.218   4.507  0.00  0.00    -0.014 A 
HETATM   32  C   UNK N   1      31.052  15.616   5.657  0.00  0.00     0.012 A 
HETATM   33  C   UNK N   1      31.525  15.975   6.918  0.00  0.00     0.024 A 
HETATM   34  C   UNK N   1      32.548  16.917   7.035  0.00  0.00     0.036 A 
HETATM   35  C   UNK N   1      33.118  17.480   5.889  0.00  0.00     0.066 A 
HETATM   36 Cl   UNK N   1      33.104  17.401   8.620  0.00  0.00    -0.084 Cl
HETATM   37  C   UNK N   1      32.638  17.130   4.623  0.00  0.00     0.124 A 
HETATM   38  F   UNK N   1      33.199  17.682   3.518  0.00  0.00    -0.205 F 
ENDBRANCH  30  31
ENDBRANCH   8  30
TORSDOF 6
ENDMDL
MODEL 5
REMARK VINA RESULT:      -7.9      2.462      3.717
REMARK  6 active torsions:
REMARK  status: ('A' for Active; 'I' for Inactive)
REMARK    1  A    between atoms: C_4  and  N_8 
REMARK    2  A    between atoms: N_8  and  C_9 
REMARK    3  A    between atoms: C_11  and  C_30 
REMARK    4  A    between atoms: C_16  and  C_20 
REMARK    5  A    between atoms: C_20  and  C_21 
REMARK    6  A    between atoms: C_30  and  N_31 
ROOT
HETATM    1  C   UNK N   1      29.774  16.623   4.205  0.00  0.00     0.122 A 
HETATM    2  C   UNK N   1      30.193  16.525   5.542  0.00  0.00     0.062 A 
HETATM    3  C   UNK N   1      29.716  17.393   6.507  0.00  0.00     0.019 A 
HETATM    4  C   UNK N   1      28.801  18.364   6.081  0.00  0.00     0.135 A 
HETATM    5  N   UNK N   1      28.175  19.287   6.842  0.00  0.00    -0.343 N 
ATOM      6  HN  UNK N   1      28.278  19.440   7.845  1.00  0.00     0.167 HD
HETATM    7  C   UNK N   1      27.382  19.960   5.980  0.00  0.00     0.032 A 
HETATM    8  C   UNK N   1      27.530  19.441   4.705  0.00  0.00     0.062 A 
HETATM    9  N   UNK N   1      28.436  18.442   4.790  0.00  0.00    -0.240 N 
HETATM   10  N   UNK N   1      28.904  17.613   3.850  0.00  0.00    -0.277 N 
ATOM     11  HN  UNK N   1      28.613  17.719   2.879  1.00  0.00     0.189 HD
HETATM   12  C   UNK N   1      26.477  21.069   6.391  0.00  0.00     0.070 C 
ENDROOT
BRANCH   1  13
HETATM   13  N   UNK N   1      30.199  15.651   3.255  0.00  0.00    -0.327 N 
HETATM   14  H   UNK N   1      29.522  15.114   2.783  0.00  0.00     0.169 HD
BRANCH  13  15
HETATM   15  C   UNK N   1      31.581  15.438   2.971  0.00  0.00     0.123 A 
HETATM   16  C   UNK N   1      32.232  14.216   2.981  0.00  0.00     0.075 A 
HETATM   17  C   UNK N   1      33.527  14.538   2.665  0.00  0.00     0.025 A 
HETATM   18  C   UNK N   1      34.651  13.570   2.570  0.00  0.00     0.070 C 
HETATM   19  N   UNK N   1      33.638  15.866   2.468  0.00  0.00    -0.304 N 
HETATM   20  N   UNK N   1      32.445  16.417   2.649  0.00  0.00    -0.285 N 
HETATM   21  H   UNK N   1      34.464  16.346   2.231  0.00  0.00     0.186 HD
ATOM     22  HN  UNK N   1      32.222  17.408   2.559  1.00  0.00     0.188 HD
ENDBRANCH  13  15
ENDBRANCH   1  13
BRANCH   3  23
HETATM   23  C   UNK N   1      30.188  17.175   7.918  0.00  0.00     0.315 C 
BRANCH  23  24
HETATM   24  N   UNK N   1      31.583  16.792   7.994  0.00  0.00     0.096 N 
HETATM   25  C   UNK N   1      32.368  17.969   8.352  0.00  0.00     0.299 C 
HETATM   26  C   UNK N   1      33.828  17.535   8.509  0.00  0.00     0.198 C 
HETATM   27  O   UNK N   1      33.932  16.577   9.540  0.00  0.00    -0.388 OA
HETATM   28  C   UNK N   1      33.215  15.435   9.136  0.00  0.00     0.198 C 
HETATM   29  C   UNK N   1      31.734  15.788   9.045  0.00  0.00     0.299 C 
ENDBRANCH  23  24
ENDBRANCH   3  23
BRANCH   8  30
HETATM   30  C   UNK N   1      26.751  19.921   3.497  0.00  0.00     0.103 C 
BRANCH  30  31
HETATM   31  C   UNK N   1      25.289  19.616   3.498  0.00  0.00    -0.014 A 
HETATM   32  C   UNK N   1      24.375  20.568   3.030  0.00  0.00     0.012 A 
HETATM   33  C   UNK N   1      23.005  20.314   3.086  0.00  0.00     0.024 A 
HETATM   34  C   UNK N   1      22.544  19.094   3.582  0.00  0.00     0.036 A 
HETATM   35  C   UNK N   1      23.453  18.116   3.997  0.00  0.00     0.066 A 
HETATM   36 Cl   UNK N   1      20.824  18.799   3.697  0.00  0.00    -0.084 Cl
HETATM   37  C   UNK N   1      24.827  18.372   3.953  0.00  0.00     0.124 A 
HETATM   38  F   UNK N   1      25.700  17.416   4.357  0.00  0.00    -0.205 F 
ENDBRANCH  30  31
ENDBRANCH   8  30
TORSDOF 6
ENDMDL
MODEL 6
REMARK VINA RESULT:      -7.8      4.390      8.482
REMARK  6 active torsions:
REMARK  status: ('A' for Active; 'I' for Inactive)
REMARK    1  A    between atoms: C_4  and  N_8 
REMARK    2  A    between atoms: N_8  and  C_9 
REMARK    3  A    between atoms: C_11  and  C_30 
REMARK    4  A    between atoms: C_16  and  C_20 
REMARK    5  A    between atoms: C_20  and  C_21 
REMARK    6  A    between atoms: C_30  and  N_31 
ROOT
HETATM    1  C   UNK N   1      29.012  17.943   4.624  0.00  0.00     0.122 A 
HETATM    2  C   UNK N   1      28.370  17.028   3.774  0.00  0.00     0.062 A 
HETATM    3  C   UNK N   1      29.092  16.110   3.034  0.00  0.00     0.019 A 
HETATM    4  C   UNK N   1      30.485  16.143   3.179  0.00  0.00     0.135 A 
HETATM    5  N   UNK N   1      31.387  15.326   2.595  0.00  0.00    -0.343 N 
ATOM      6  HN  UNK N   1      31.205  14.565   1.940  1.00  0.00     0.167 HD
HETATM    7  C   UNK N   1      32.582  15.740   3.070  0.00  0.00     0.032 A 
HETATM    8  C   UNK N   1      32.397  16.801   3.940  0.00  0.00     0.062 A 
HETATM    9  N   UNK N   1      31.068  17.044   3.986  0.00  0.00    -0.240 N 
HETATM   10  N   UNK N   1      30.375  17.943   4.695  0.00  0.00    -0.277 N 
ATOM     11  HN  UNK N   1      30.860  18.621   5.282  1.00  0.00     0.189 HD
HETATM   12  C   UNK N   1      33.876  15.100   2.708  0.00  0.00     0.070 C 
ENDROOT
BRANCH   1  13
HETATM   13  N   UNK N   1      28.240  18.805   5.454  0.00  0.00    -0.327 N 
HETATM   14  H   UNK N   1      27.727  19.537   5.040  0.00  0.00     0.169 HD
BRANCH  13  15
HETATM   15  C   UNK N   1      28.191  18.634   6.870  0.00  0.00     0.123 A 
HETATM   16  C   UNK N   1      28.982  17.772   7.610  0.00  0.00     0.075 A 
HETATM   17  C   UNK N   1      28.549  17.961   8.897  0.00  0.00     0.025 A 
HETATM   18  C   UNK N   1      29.068  17.243  10.090  0.00  0.00     0.070 C 
HETATM   19  N   UNK N   1      27.568  18.885   8.922  0.00  0.00    -0.304 N 
HETATM   20  N   UNK N   1      27.353  19.301   7.682  0.00  0.00    -0.285 N 
HETATM   21  H   UNK N   1      27.092  19.197   9.725  0.00  0.00     0.186 HD
ATOM     22  HN  UNK N   1      26.672  20.005   7.394  1.00  0.00     0.188 HD
ENDBRANCH  13  15
ENDBRANCH   1  13
BRANCH   3  23
HETATM   23  C   UNK N   1      28.309  15.142   2.191  0.00  0.00     0.315 C 
BRANCH  23  24
HETATM   24  N   UNK N   1      26.989  14.870   2.722  0.00  0.00     0.096 N 
HETATM   25  C   UNK N   1      26.001  15.198   1.699  0.00  0.00     0.299 C 
HETATM   26  C   UNK N   1      24.617  14.831   2.240  0.00  0.00     0.198 C 
HETATM   27  O   UNK N   1      24.562  13.448   2.511  0.00  0.00    -0.388 OA
HETATM   28  C   UNK N   1      25.482  13.177   3.542  0.00  0.00     0.198 C 
HETATM   29  C   UNK N   1      26.893  13.445   3.029  0.00  0.00     0.299 C 
ENDBRANCH  23  24
ENDBRANCH   3  23
BRANCH   8  30
HETATM   30  C   UNK N   1      33.517  17.481   4.700  0.00  0.00     0.103 C 
BRANCH  30  31
HETATM   31  C   UNK N   1      33.712  17.039   6.113  0.00  0.00    -0.014 A 
HETATM   32  C   UNK N   1      32.971  17.633   7.142  0.00  0.00     0.012 A 
HETATM   33  C   UNK N   1      33.194  17.269   8.469  0.00  0.00     0.024 A 
HETATM   34  C   UNK N   1      34.138  16.287   8.772  0.00  0.00     0.036 A 
HETATM   35  C   UNK N   1      34.841  15.649   7.745  0.00  0.00     0.066 A 
HETATM   36 Cl   UNK N   1      34.450  15.869  10.441  0.00  0.00    -0.084 Cl
HETATM   37  C   UNK N   1      34.628  16.020   6.414  0.00  0.00     0.124 A 
HETATM   38  F   UNK N   1      35.315  15.394   5.426  0.00  0.00    -0.205 F 
ENDBRANCH  30  31
ENDBRANCH   8  30
TORSDOF 6
ENDMDL
MODEL 7
REMARK VINA RESULT:      -7.6      7.189     10.690
REMARK  6 active torsions:
REMARK  status: ('A' for Active; 'I' for Inactive)
REMARK    1  A    between atoms: C_4  and  N_8 
REMARK    2  A    between atoms: N_8  and  C_9 
REMARK    3  A    between atoms: C_11  and  C_30 
REMARK    4  A    between atoms: C_16  and  C_20 
REMARK    5  A    between atoms: C_20  and  C_21 
REMARK    6  A    between atoms: C_30  and  N_31 
ROOT
HETATM    1  C   UNK N   1      25.420  16.577   5.221  0.00  0.00     0.122 A 
HETATM    2  C   UNK N   1      24.452  17.561   4.960  0.00  0.00     0.062 A 
HETATM    3  C   UNK N   1      23.104  17.301   5.126  0.00  0.00     0.019 A 
HETATM    4  C   UNK N   1      22.763  16.015   5.566  0.00  0.00     0.135 A 
HETATM    5  N   UNK N   1      21.526  15.545   5.835  0.00  0.00    -0.343 N 
ATOM      6  HN  UNK N   1      20.639  16.041   5.746  1.00  0.00     0.167 HD
HETATM    7  C   UNK N   1      21.725  14.275   6.248  0.00  0.00     0.032 A 
HETATM    8  C   UNK N   1      23.079  13.984   6.229  0.00  0.00     0.062 A 
HETATM    9  N   UNK N   1      23.713  15.092   5.787  0.00  0.00    -0.240 N 
HETATM   10  N   UNK N   1      25.017  15.335   5.616  0.00  0.00    -0.277 N 
ATOM     11  HN  UNK N   1      25.704  14.599   5.779  1.00  0.00     0.189 HD
HETATM   12  C   UNK N   1      20.625  13.369   6.679  0.00  0.00     0.070 C 
ENDROOT
BRANCH   1  13
HETATM   13  N   UNK N   1      26.804  16.905   5.144  0.00  0.00    -0.327 N 
HETATM   14  H   UNK N   1      27.469  16.179   5.137  0.00  0.00     0.169 HD
BRANCH  13  15
HETATM   15  C   UNK N   1      27.249  18.259   5.077  0.00  0.00     0.123 A 
HETATM   16  C   UNK N   1      27.100  19.212   6.070  0.00  0.00     0.075 A 
HETATM   17  C   UNK N   1      27.667  20.335   5.527  0.00  0.00     0.025 A 
HETATM   18  C   UNK N   1      27.743  21.663   6.191  0.00  0.00     0.070 C 
HETATM   19  N   UNK N   1      28.134  20.066   4.291  0.00  0.00    -0.304 N 
HETATM   20  N   UNK N   1      27.883  18.793   4.019  0.00  0.00    -0.285 N 
HETATM   21  H   UNK N   1      28.584  20.705   3.694  0.00  0.00     0.186 HD
ATOM     22  HN  UNK N   1      28.129  18.304   3.157  1.00  0.00     0.188 HD
ENDBRANCH  13  15
ENDBRANCH   1  13
BRANCH   3  23
HETATM   23  C   UNK N   1      22.151  18.435   4.868  0.00  0.00     0.315 C 
BRANCH  23  24
HETATM   24  N   UNK N   1      21.842  18.604   3.464  0.00  0.00     0.096 N 
HETATM   25  C   UNK N   1      20.564  17.954   3.189  0.00  0.00     0.299 C 
HETATM   26  C   UNK N   1      20.208  18.209   1.721  0.00  0.00     0.198 C 
HETATM   27  O   UNK N   1      20.081  19.595   1.496  0.00  0.00    -0.388 OA
HETATM   28  C   UNK N   1      21.343  20.181   1.711  0.00  0.00     0.198 C 
HETATM   29  C   UNK N   1      21.713  20.032   3.183  0.00  0.00     0.299 C 
ENDBRANCH  23  24
ENDBRANCH   3  23
BRANCH   8  30
HETATM   30  C   UNK N   1      23.669  12.664   6.682  0.00  0.00     0.103 C 
BRANCH  30  31
HETATM   31  C   UNK N   1      23.718  12.440   8.157  0.00  0.00    -0.014 A 
HETATM   32  C   UNK N   1      22.790  11.587   8.767  0.00  0.00     0.012 A 
HETATM   33  C   UNK N   1      22.791  11.422  10.152  0.00  0.00     0.024 A 
HETATM   34  C   UNK N   1      23.740  12.087  10.930  0.00  0.00     0.036 A 
HETATM   35  C   UNK N   1      24.705  12.895  10.323  0.00  0.00     0.066 A 
HETATM   36 Cl   UNK N   1      23.706  11.917  12.671  0.00  0.00    -0.084 Cl
HETATM   37  C   UNK N   1      24.700  13.071   8.935  0.00  0.00     0.124 A 
HETATM   38  F   UNK N   1      25.642  13.856   8.356  0.00  0.00    -0.205 F 
ENDBRANCH  30  31
ENDBRANCH   8  30
TORSDOF 6
ENDMDL
MODEL 8
REMARK VINA RESULT:      -7.5      6.022     10.688
REMARK  6 active torsions:
REMARK  status: ('A' for Active; 'I' for Inactive)
REMARK    1  A    between atoms: C_4  and  N_8 
REMARK    2  A    between atoms: N_8  and  C_9 
REMARK    3  A    between atoms: C_11  and  C_30 
REMARK    4  A    between atoms: C_16  and  C_20 
REMARK    5  A    between atoms: C_20  and  C_21 
REMARK    6  A    between atoms: C_30  and  N_31 
ROOT
HETATM    1  C   UNK N   1      35.564  14.348  11.428  0.00  0.00     0.122 A 
HETATM    2  C   UNK N   1      34.605  15.135  10.770  0.00  0.00     0.062 A 
HETATM    3  C   UNK N   1      33.685  14.569   9.906  0.00  0.00     0.019 A 
HETATM    4  C   UNK N   1      33.763  13.182   9.728  0.00  0.00     0.135 A 
HETATM    5  N   UNK N   1      32.954  12.409   8.972  0.00  0.00    -0.343 N 
ATOM      6  HN  UNK N   1      32.168  12.708   8.394  1.00  0.00     0.167 HD
HETATM    7  C   UNK N   1      33.416  11.152   9.151  0.00  0.00     0.032 A 
HETATM    8  C   UNK N   1      34.499  11.171  10.015  0.00  0.00     0.062 A 
HETATM    9  N   UNK N   1      34.705  12.462  10.358  0.00  0.00    -0.240 N 
HETATM   10  N   UNK N   1      35.605  13.005  11.185  0.00  0.00    -0.277 N 
ATOM     11  HN  UNK N   1      36.314  12.424  11.630  1.00  0.00     0.189 HD
HETATM   12  C   UNK N   1      32.803   9.952   8.517  0.00  0.00     0.070 C 
ENDROOT
BRANCH   1  13
HETATM   13  N   UNK N   1      36.429  14.941  12.392  0.00  0.00    -0.327 N 
HETATM   14  H   UNK N   1      37.058  15.641  12.105  0.00  0.00     0.169 HD
BRANCH  13  15
HETATM   15  C   UNK N   1      36.405  14.543  13.762  0.00  0.00     0.123 A 
HETATM   16  C   UNK N   1      35.590  13.567  14.310  0.00  0.00     0.075 A 
HETATM   17  C   UNK N   1      35.928  13.573  15.638  0.00  0.00     0.025 A 
HETATM   18  C   UNK N   1      35.313  12.711  16.682  0.00  0.00     0.070 C 
HETATM   19  N   UNK N   1      36.890  14.488  15.866  0.00  0.00    -0.304 N 
HETATM   20  N   UNK N   1      37.187  15.078  14.716  0.00  0.00    -0.285 N 
HETATM   21  H   UNK N   1      37.303  14.685  16.738  0.00  0.00     0.186 HD
ATOM     22  HN  UNK N   1      37.886  15.809  14.579  1.00  0.00     0.188 HD
ENDBRANCH  13  15
ENDBRANCH   1  13
BRANCH   3  23
HETATM   23  C   UNK N   1      32.669  15.489   9.288  0.00  0.00     0.315 C 
BRANCH  23  24
HETATM   24  N   UNK N   1      32.949  15.789   7.900  0.00  0.00     0.096 N 
HETATM   25  C   UNK N   1      31.737  15.555   7.121  0.00  0.00     0.299 C 
HETATM   26  C   UNK N   1      32.021  15.953   5.670  0.00  0.00     0.198 C 
HETATM   27  O   UNK N   1      32.354  17.322   5.608  0.00  0.00    -0.388 OA
HETATM   28  C   UNK N   1      33.557  17.502   6.317  0.00  0.00     0.198 C 
HETATM   29  C   UNK N   1      33.312  17.201   7.791  0.00  0.00     0.299 C 
ENDBRANCH  23  24
ENDBRANCH   3  23
BRANCH   8  30
HETATM   30  C   UNK N   1      35.234   9.931  10.481  0.00  0.00     0.103 C 
BRANCH  30  31
HETATM   31  C   UNK N   1      35.596   9.891  11.929  0.00  0.00    -0.014 A 
HETATM   32  C   UNK N   1      36.941   9.833  12.314  0.00  0.00     0.012 A 
HETATM   33  C   UNK N   1      37.282   9.732  13.662  0.00  0.00     0.024 A 
HETATM   34  C   UNK N   1      36.281   9.718  14.634  0.00  0.00     0.036 A 
HETATM   35  C   UNK N   1      34.939   9.834  14.261  0.00  0.00     0.066 A 
HETATM   36 Cl   UNK N   1      36.712   9.541  16.320  0.00  0.00    -0.084 Cl
HETATM   37  C   UNK N   1      34.592   9.924  12.909  0.00  0.00     0.124 A 
HETATM   38  F   UNK N   1      33.287  10.036  12.559  0.00  0.00    -0.205 F 
ENDBRANCH  30  31
ENDBRANCH   8  30
TORSDOF 6
ENDMDL
MODEL 9
REMARK VINA RESULT:      -7.4      2.827      5.674
REMARK  6 active torsions:
REMARK  status: ('A' for Active; 'I' for Inactive)
REMARK    1  A    between atoms: C_4  and  N_8 
REMARK    2  A    between atoms: N_8  and  C_9 
REMARK    3  A    between atoms: C_11  and  C_30 
REMARK    4  A    between atoms: C_16  and  C_20 
REMARK    5  A    between atoms: C_20  and  C_21 
REMARK    6  A    between atoms: C_30  and  N_31 
ROOT
HETATM    1  C   UNK N   1      30.164  16.945   7.336  0.00  0.00     0.122 A 
HETATM    2  C   UNK N   1      31.396  17.255   7.933  0.00  0.00     0.062 A 
HETATM    3  C   UNK N   1      32.588  17.053   7.262  0.00  0.00     0.019 A 
HETATM    4  C   UNK N   1      32.497  16.529   5.966  0.00  0.00     0.135 A 
HETATM    5  N   UNK N   1      33.512  16.285   5.110  0.00  0.00    -0.343 N 
ATOM      6  HN  UNK N   1      34.510  16.426   5.271  1.00  0.00     0.167 HD
HETATM    7  C   UNK N   1      32.914  15.816   3.994  0.00  0.00     0.032 A 
HETATM    8  C   UNK N   1      31.541  15.780   4.179  0.00  0.00     0.062 A 
HETATM    9  N   UNK N   1      31.302  16.225   5.433  0.00  0.00    -0.240 N 
HETATM   10  N   UNK N   1      30.148  16.407   6.082  0.00  0.00    -0.277 N 
ATOM     11  HN  UNK N   1      29.264  16.146   5.646  1.00  0.00     0.189 HD
HETATM   12  C   UNK N   1      33.657  15.435   2.761  0.00  0.00     0.070 C 
ENDROOT
BRANCH   1  13
HETATM   13  N   UNK N   1      28.949  17.262   8.009  0.00  0.00    -0.327 N 
HETATM   14  H   UNK N   1      28.607  16.646   8.697  0.00  0.00     0.169 HD
BRANCH  13  15
HETATM   15  C   UNK N   1      28.216  18.449   7.709  0.00  0.00     0.123 A 
HETATM   16  C   UNK N   1      28.193  19.101   6.489  0.00  0.00     0.075 A 
HETATM   17  C   UNK N   1      27.373  20.176   6.713  0.00  0.00     0.025 A 
HETATM   18  C   UNK N   1      27.035  21.220   5.710  0.00  0.00     0.070 C 
HETATM   19  N   UNK N   1      26.927  20.160   7.985  0.00  0.00    -0.304 N 
HETATM   20  N   UNK N   1      27.439  19.099   8.593  0.00  0.00    -0.285 N 
HETATM   21  H   UNK N   1      26.325  20.823   8.392  0.00  0.00     0.186 HD
ATOM     22  HN  UNK N   1      27.271  18.823   9.561  1.00  0.00     0.188 HD
ENDBRANCH  13  15
ENDBRANCH   1  13
BRANCH   3  23
HETATM   23  C   UNK N   1      33.851  17.463   7.968  0.00  0.00     0.315 C 
BRANCH  23  24
HETATM   24  N   UNK N   1      34.249  16.528   9.000  0.00  0.00     0.096 N 
HETATM   25  C   UNK N   1      35.034  15.463   8.383  0.00  0.00     0.299 C 
HETATM   26  C   UNK N   1      35.518  14.525   9.493  0.00  0.00     0.198 C 
HETATM   27  O   UNK N   1      36.333  15.238  10.396  0.00  0.00    -0.388 OA
HETATM   28  C   UNK N   1      35.532  16.215  11.017  0.00  0.00     0.198 C 
HETATM   29  C   UNK N   1      35.089  17.230   9.968  0.00  0.00     0.299 C 
ENDBRANCH  23  24
ENDBRANCH   3  23
BRANCH   8  30
HETATM   30  C   UNK N   1      30.552  15.357   3.113  0.00  0.00     0.103 C 
BRANCH  30  31
HETATM   31  C   UNK N   1      29.415  14.507   3.575  0.00  0.00    -0.014 A 
HETATM   32  C   UNK N   1      29.662  13.238   4.113  0.00  0.00     0.012 A 
HETATM   33  C   UNK N   1      28.600  12.415   4.488  0.00  0.00     0.024 A 
HETATM   34  C   UNK N   1      27.287  12.870   4.355  0.00  0.00     0.036 A 
HETATM   35  C   UNK N   1      27.036  14.157   3.873  0.00  0.00     0.066 A 
HETATM   36 Cl   UNK N   1      25.958  11.816   4.780  0.00  0.00    -0.084 Cl
HETATM   37  C   UNK N   1      28.098  14.981   3.485  0.00  0.00     0.124 A 
HETATM   38  F   UNK N   1      27.842  16.229   3.019  0.00  0.00    -0.205 F 
ENDBRANCH  30  31
ENDBRANCH   8  30
TORSDOF 6
ENDMDL
