MODEL 1
REMARK VINA RESULT:      -6.4      0.000      0.000
REMARK  12 active torsions:
REMARK  status: ('A' for Active; 'I' for Inactive)
REMARK    1  A    between atoms: C_2  and  O_3 
REMARK    2  A    between atoms: C_4  and  O_3 
REMARK    3  A    between atoms: C_4  and  C_5 
REMARK    4  A    between atoms: C_4  and  C_29 
REMARK    5  A    between atoms: C_5  and  C_6 
REMARK    6  A    between atoms: C_9  and  O_12 
REMARK    7  A    between atoms: O_12  and  C_13 
REMARK    8  A    between atoms: C_13  and  C_14 
REMARK    9  A    between atoms: C_14  and  N_15 
REMARK   10  A    between atoms: C_19  and  C_20 
REMARK   11  A    between atoms: C_23  and  S_26 
REMARK   12  A    between atoms: C_29  and  O_31 
ROOT
HETATM    1  O   UNK N   1      29.735  27.056  -7.019  0.00  0.00    -0.350 OA
ENDROOT
BRANCH   1   2
HETATM    2  C   UNK N   1      29.513  25.903  -6.340  0.00  0.00     0.068 A 
HETATM    3  C   UNK N   1      29.392  24.664  -6.993  0.00  0.00     0.037 A 
HETATM    4  C   UNK N   1      29.324  23.483  -6.259  0.00  0.00     0.010 A 
HETATM    5  C   UNK N   1      29.360  23.530  -4.862  0.00  0.00    -0.055 A 
HETATM    6  C   UNK N   1      29.408  24.763  -4.206  0.00  0.00     0.010 A 
HETATM    7  C   UNK N   1      29.484  25.946  -4.944  0.00  0.00     0.037 A 
BRANCH   5   8
HETATM    8  C   UNK N   1      29.451  22.276  -4.066  0.00  0.00     0.081 C 
BRANCH   8   9
HETATM    9  C   UNK N   1      30.923  21.864  -3.949  0.00  0.00     0.223 C 
BRANCH   9  10
HETATM   10  O   UNK N   1      31.093  20.546  -4.383  0.00  0.00    -0.375 OA
BRANCH  10  11
HETATM   11  C   UNK N   1      31.656  20.646  -5.659  0.00  0.00     0.164 C 
HETATM   12  C   UNK N   1      30.742  19.986  -6.671  0.00  0.00     0.033 C 
ENDBRANCH  10  11
ENDBRANCH   9  10
BRANCH   9  13
HETATM   13  C   UNK N   1      31.482  22.032  -2.564  0.00  0.00     0.170 C 
HETATM   14  O   UNK N   1      30.991  22.829  -1.780  0.00  0.00    -0.648 OA
BRANCH  13  15
HETATM   15  O   UNK N   1      32.554  21.309  -2.190  0.00  0.00    -0.774 OA
HETATM   16  H   UNK N   1      32.645  20.427  -1.884  0.00  0.00     0.167 HD
ENDBRANCH  13  15
ENDBRANCH   9  13
ENDBRANCH   8   9
ENDBRANCH   5   8
ENDBRANCH   1   2
BRANCH   1  17
HETATM   17  C   UNK N   1      29.411  28.323  -6.577  0.00  0.00     0.196 C 
BRANCH  17  18
HETATM   18  C   UNK N   1      27.970  28.727  -6.883  0.00  0.00     0.156 C 
BRANCH  18  19
HETATM   19  N   UNK N   1      27.095  28.726  -5.694  0.00  0.00    -0.348 N 
HETATM   20  C   UNK N   1      27.071  29.719  -4.785  0.00  0.00     0.008 A 
HETATM   21  C   UNK N   1      26.209  29.411  -3.748  0.00  0.00     0.027 A 
HETATM   22  C   UNK N   1      27.875  30.971  -4.871  0.00  0.00     0.068 C 
HETATM   23  C   UNK N   1      25.684  28.160  -4.037  0.00  0.00     0.032 A 
HETATM   24  C   UNK N   1      26.237  27.777  -5.247  0.00  0.00     0.045 A 
BRANCH  24  25
HETATM   25  C   UNK N   1      25.965  26.493  -5.907  0.00  0.00    -0.009 A 
HETATM   26  C   UNK N   1      25.864  25.328  -5.141  0.00  0.00     0.015 A 
HETATM   27  C   UNK N   1      25.755  24.085  -5.769  0.00  0.00     0.019 A 
HETATM   28  C   UNK N   1      25.740  24.003  -7.167  0.00  0.00    -0.000 A 
HETATM   29  C   UNK N   1      25.813  25.169  -7.936  0.00  0.00     0.019 A 
HETATM   30  C   UNK N   1      25.927  26.411  -7.308  0.00  0.00     0.015 A 
BRANCH  28  31
HETATM   31  S   UNK N   1      25.685  22.408  -7.972  0.00  0.00    -0.134 SA
HETATM   32  C   UNK N   1      26.804  22.927  -9.301  0.00  0.00     0.095 C 
ENDBRANCH  28  31
ENDBRANCH  24  25
ENDBRANCH  18  19
ENDBRANCH  17  18
ENDBRANCH   1  17
TORSDOF 12
ENDMDL
MODEL 2
REMARK VINA RESULT:      -6.2     18.277     23.029
REMARK  12 active torsions:
REMARK  status: ('A' for Active; 'I' for Inactive)
REMARK    1  A    between atoms: C_2  and  O_3 
REMARK    2  A    between atoms: C_4  and  O_3 
REMARK    3  A    between atoms: C_4  and  C_5 
REMARK    4  A    between atoms: C_4  and  C_29 
REMARK    5  A    between atoms: C_5  and  C_6 
REMARK    6  A    between atoms: C_9  and  O_12 
REMARK    7  A    between atoms: O_12  and  C_13 
REMARK    8  A    between atoms: C_13  and  C_14 
REMARK    9  A    between atoms: C_14  and  N_15 
REMARK   10  A    between atoms: C_19  and  C_20 
REMARK   11  A    between atoms: C_23  and  S_26 
REMARK   12  A    between atoms: C_29  and  O_31 
ROOT
HETATM    1  O   UNK N   1      36.680  13.346  13.219  0.00  0.00    -0.350 OA
ENDROOT
BRANCH   1   2
HETATM    2  C   UNK N   1      35.982  13.961  12.233  0.00  0.00     0.068 A 
HETATM    3  C   UNK N   1      35.958  15.361  12.099  0.00  0.00     0.037 A 
HETATM    4  C   UNK N   1      35.365  15.952  10.987  0.00  0.00     0.010 A 
HETATM    5  C   UNK N   1      34.776  15.151  10.004  0.00  0.00    -0.055 A 
HETATM    6  C   UNK N   1      34.735  13.764  10.167  0.00  0.00     0.010 A 
HETATM    7  C   UNK N   1      35.336  13.171  11.279  0.00  0.00     0.037 A 
BRANCH   5   8
HETATM    8  C   UNK N   1      34.283  15.752   8.735  0.00  0.00     0.081 C 
BRANCH   8   9
HETATM    9  C   UNK N   1      33.902  17.214   8.990  0.00  0.00     0.223 C 
BRANCH   9  10
HETATM   10  O   UNK N   1      32.516  17.377   8.900  0.00  0.00    -0.375 OA
BRANCH  10  11
HETATM   11  C   UNK N   1      32.079  16.360   8.046  0.00  0.00     0.164 C 
HETATM   12  C   UNK N   1      30.693  16.689   7.531  0.00  0.00     0.033 C 
ENDBRANCH  10  11
ENDBRANCH   9  10
BRANCH   9  13
HETATM   13  C   UNK N   1      34.600  18.181   8.074  0.00  0.00     0.170 C 
HETATM   14  O   UNK N   1      34.542  18.052   6.861  0.00  0.00    -0.648 OA
BRANCH  13  15
HETATM   15  O   UNK N   1      35.317  19.192   8.601  0.00  0.00    -0.774 OA
HETATM   16  H   UNK N   1      35.482  19.455   9.486  0.00  0.00     0.167 HD
ENDBRANCH  13  15
ENDBRANCH   9  13
ENDBRANCH   8   9
ENDBRANCH   5   8
ENDBRANCH   1   2
BRANCH   1  17
HETATM   17  C   UNK N   1      36.535  13.582  14.572  0.00  0.00     0.196 C 
BRANCH  17  18
HETATM   18  C   UNK N   1      35.142  13.250  15.104  0.00  0.00     0.156 C 
BRANCH  18  19
HETATM   19  N   UNK N   1      35.077  11.954  15.810  0.00  0.00    -0.348 N 
HETATM   20  C   UNK N   1      35.131  11.830  17.149  0.00  0.00     0.008 A 
HETATM   21  C   UNK N   1      35.119  10.497  17.517  0.00  0.00     0.027 A 
HETATM   22  C   UNK N   1      35.212  12.970  18.106  0.00  0.00     0.068 C 
HETATM   23  C   UNK N   1      35.061   9.768  16.338  0.00  0.00     0.032 A 
HETATM   24  C   UNK N   1      35.020  10.695  15.311  0.00  0.00     0.045 A 
BRANCH  24  25
HETATM   25  C   UNK N   1      34.980  10.342  13.885  0.00  0.00    -0.009 A 
HETATM   26  C   UNK N   1      33.765  10.394  13.194  0.00  0.00     0.015 A 
HETATM   27  C   UNK N   1      33.687   9.918  11.882  0.00  0.00     0.019 A 
HETATM   28  C   UNK N   1      34.824   9.396  11.255  0.00  0.00    -0.000 A 
HETATM   29  C   UNK N   1      36.046   9.368  11.934  0.00  0.00     0.019 A 
HETATM   30  C   UNK N   1      36.124   9.839  13.247  0.00  0.00     0.015 A 
BRANCH  28  31
HETATM   31  S   UNK N   1      34.706   8.711   9.608  0.00  0.00    -0.134 SA
HETATM   32  C   UNK N   1      33.733  10.109   8.986  0.00  0.00     0.095 C 
ENDBRANCH  28  31
ENDBRANCH  24  25
ENDBRANCH  18  19
ENDBRANCH  17  18
ENDBRANCH   1  17
TORSDOF 12
ENDMDL
MODEL 3
REMARK VINA RESULT:      -6.1     15.158     17.983
REMARK  12 active torsions:
REMARK  status: ('A' for Active; 'I' for Inactive)
REMARK    1  A    between atoms: C_2  and  O_3 
REMARK    2  A    between atoms: C_4  and  O_3 
REMARK    3  A    between atoms: C_4  and  C_5 
REMARK    4  A    between atoms: C_4  and  C_29 
REMARK    5  A    between atoms: C_5  and  C_6 
REMARK    6  A    between atoms: C_9  and  O_12 
REMARK    7  A    between atoms: O_12  and  C_13 
REMARK    8  A    between atoms: C_13  and  C_14 
REMARK    9  A    between atoms: C_14  and  N_15 
REMARK   10  A    between atoms: C_19  and  C_20 
REMARK   11  A    between atoms: C_23  and  S_26 
REMARK   12  A    between atoms: C_29  and  O_31 
ROOT
HETATM    1  O   UNK N   1      19.897  14.516   8.295  0.00  0.00    -0.350 OA
ENDROOT
BRANCH   1   2
HETATM    2  C   UNK N   1      20.115  15.336   7.238  0.00  0.00     0.068 A 
HETATM    3  C   UNK N   1      20.727  16.594   7.384  0.00  0.00     0.037 A 
HETATM    4  C   UNK N   1      21.079  17.341   6.264  0.00  0.00     0.010 A 
HETATM    5  C   UNK N   1      20.811  16.845   4.984  0.00  0.00    -0.055 A 
HETATM    6  C   UNK N   1      20.139  15.629   4.834  0.00  0.00     0.010 A 
HETATM    7  C   UNK N   1      19.793  14.877   5.959  0.00  0.00     0.037 A 
BRANCH   5   8
HETATM    8  C   UNK N   1      21.323  17.550   3.777  0.00  0.00     0.081 C 
BRANCH   8   9
HETATM    9  C   UNK N   1      20.220  17.583   2.713  0.00  0.00     0.223 C 
BRANCH   9  10
HETATM   10  O   UNK N   1      20.765  17.367   1.443  0.00  0.00    -0.375 OA
BRANCH  10  11
HETATM   11  C   UNK N   1      19.836  16.565   0.774  0.00  0.00     0.164 C 
HETATM   12  C   UNK N   1      20.058  15.113   1.143  0.00  0.00     0.033 C 
ENDBRANCH  10  11
ENDBRANCH   9  10
BRANCH   9  13
HETATM   13  C   UNK N   1      19.417  18.854   2.724  0.00  0.00     0.170 C 
HETATM   14  O   UNK N   1      19.921  19.913   3.065  0.00  0.00    -0.648 OA
BRANCH  13  15
HETATM   15  O   UNK N   1      18.118  18.820   2.374  0.00  0.00    -0.774 OA
HETATM   16  H   UNK N   1      17.635  19.254   1.697  0.00  0.00     0.167 HD
ENDBRANCH  13  15
ENDBRANCH   9  13
ENDBRANCH   8   9
ENDBRANCH   5   8
ENDBRANCH   1   2
BRANCH   1  17
HETATM   17  C   UNK N   1      20.784  14.287   9.329  0.00  0.00     0.196 C 
BRANCH  17  18
HETATM   18  C   UNK N   1      21.318  12.856   9.371  0.00  0.00     0.156 C 
BRANCH  18  19
HETATM   19  N   UNK N   1      22.783  12.781   9.537  0.00  0.00    -0.348 N 
HETATM   20  C   UNK N   1      23.386  12.434  10.690  0.00  0.00     0.008 A 
HETATM   21  C   UNK N   1      24.761  12.520  10.567  0.00  0.00     0.027 A 
HETATM   22  C   UNK N   1      22.673  12.032  11.935  0.00  0.00     0.068 C 
HETATM   23  C   UNK N   1      25.010  12.948   9.271  0.00  0.00     0.032 A 
HETATM   24  C   UNK N   1      23.774  13.083   8.663  0.00  0.00     0.045 A 
BRANCH  24  25
HETATM   25  C   UNK N   1      23.582  13.544   7.281  0.00  0.00    -0.009 A 
HETATM   26  C   UNK N   1      23.045  12.673   6.329  0.00  0.00     0.015 A 
HETATM   27  C   UNK N   1      22.998  13.049   4.984  0.00  0.00     0.019 A 
HETATM   28  C   UNK N   1      23.482  14.301   4.588  0.00  0.00    -0.000 A 
HETATM   29  C   UNK N   1      23.995  15.186   5.542  0.00  0.00     0.019 A 
HETATM   30  C   UNK N   1      24.047  14.807   6.885  0.00  0.00     0.015 A 
BRANCH  28  31
HETATM   31  S   UNK N   1      23.500  14.751   2.858  0.00  0.00    -0.134 SA
HETATM   32  C   UNK N   1      24.612  13.390   2.412  0.00  0.00     0.095 C 
ENDBRANCH  28  31
ENDBRANCH  24  25
ENDBRANCH  18  19
ENDBRANCH  17  18
ENDBRANCH   1  17
TORSDOF 12
ENDMDL
MODEL 4
REMARK VINA RESULT:      -6.0      1.671      2.558
REMARK  12 active torsions:
REMARK  status: ('A' for Active; 'I' for Inactive)
REMARK    1  A    between atoms: C_2  and  O_3 
REMARK    2  A    between atoms: C_4  and  O_3 
REMARK    3  A    between atoms: C_4  and  C_5 
REMARK    4  A    between atoms: C_4  and  C_29 
REMARK    5  A    between atoms: C_5  and  C_6 
REMARK    6  A    between atoms: C_9  and  O_12 
REMARK    7  A    between atoms: O_12  and  C_13 
REMARK    8  A    between atoms: C_13  and  C_14 
REMARK    9  A    between atoms: C_14  and  N_15 
REMARK   10  A    between atoms: C_19  and  C_20 
REMARK   11  A    between atoms: C_23  and  S_26 
REMARK   12  A    between atoms: C_29  and  O_31 
ROOT
HETATM    1  O   UNK N   1      26.312  25.849  -3.325  0.00  0.00    -0.350 OA
ENDROOT
BRANCH   1   2
HETATM    2  C   UNK N   1      27.389  25.286  -3.926  0.00  0.00     0.068 A 
HETATM    3  C   UNK N   1      28.669  25.864  -3.855  0.00  0.00     0.037 A 
HETATM    4  C   UNK N   1      29.779  25.182  -4.346  0.00  0.00     0.010 A 
HETATM    5  C   UNK N   1      29.619  23.920  -4.926  0.00  0.00    -0.055 A 
HETATM    6  C   UNK N   1      28.341  23.371  -5.063  0.00  0.00     0.010 A 
HETATM    7  C   UNK N   1      27.230  24.053  -4.564  0.00  0.00     0.037 A 
BRANCH   5   8
HETATM    8  C   UNK N   1      30.807  23.108  -5.308  0.00  0.00     0.081 C 
BRANCH   8   9
HETATM    9  C   UNK N   1      31.777  23.055  -4.123  0.00  0.00     0.223 C 
BRANCH   9  10
HETATM   10  O   UNK N   1      33.062  22.722  -4.563  0.00  0.00    -0.375 OA
BRANCH  10  11
HETATM   11  C   UNK N   1      32.892  22.229  -5.860  0.00  0.00     0.164 C 
HETATM   12  C   UNK N   1      33.686  20.950  -6.025  0.00  0.00     0.033 C 
ENDBRANCH  10  11
ENDBRANCH   9  10
BRANCH   9  13
HETATM   13  C   UNK N   1      31.341  22.114  -3.034  0.00  0.00     0.170 C 
HETATM   14  O   UNK N   1      31.211  22.502  -1.883  0.00  0.00    -0.648 OA
BRANCH  13  15
HETATM   15  O   UNK N   1      31.110  20.821  -3.329  0.00  0.00    -0.774 OA
HETATM   16  H   UNK N   1      31.437  20.259  -4.005  0.00  0.00     0.167 HD
ENDBRANCH  13  15
ENDBRANCH   9  13
ENDBRANCH   8   9
ENDBRANCH   5   8
ENDBRANCH   1   2
BRANCH   1  17
HETATM   17  C   UNK N   1      26.131  27.200  -3.105  0.00  0.00     0.196 C 
BRANCH  17  18
HETATM   18  C   UNK N   1      25.627  27.957  -4.332  0.00  0.00     0.156 C 
BRANCH  18  19
HETATM   19  N   UNK N   1      26.684  28.720  -5.026  0.00  0.00    -0.348 N 
HETATM   20  C   UNK N   1      27.107  29.937  -4.632  0.00  0.00     0.008 A 
HETATM   21  C   UNK N   1      28.051  30.434  -5.512  0.00  0.00     0.027 A 
HETATM   22  C   UNK N   1      26.613  30.659  -3.426  0.00  0.00     0.068 C 
HETATM   23  C   UNK N   1      28.209  29.471  -6.499  0.00  0.00     0.032 A 
HETATM   24  C   UNK N   1      27.366  28.427  -6.160  0.00  0.00     0.045 A 
BRANCH  24  25
HETATM   25  C   UNK N   1      27.206  27.205  -6.961  0.00  0.00    -0.009 A 
HETATM   26  C   UNK N   1      25.945  26.614  -7.076  0.00  0.00     0.015 A 
HETATM   27  C   UNK N   1      25.809  25.375  -7.708  0.00  0.00     0.019 A 
HETATM   28  C   UNK N   1      26.933  24.727  -8.232  0.00  0.00    -0.000 A 
HETATM   29  C   UNK N   1      28.192  25.328  -8.142  0.00  0.00     0.019 A 
HETATM   30  C   UNK N   1      28.329  26.564  -7.506  0.00  0.00     0.015 A 
BRANCH  28  31
HETATM   31  S   UNK N   1      26.773  23.104  -8.965  0.00  0.00    -0.134 SA
HETATM   32  C   UNK N   1      25.619  22.530  -7.690  0.00  0.00     0.095 C 
ENDBRANCH  28  31
ENDBRANCH  24  25
ENDBRANCH  18  19
ENDBRANCH  17  18
ENDBRANCH   1  17
TORSDOF 12
ENDMDL
MODEL 5
REMARK VINA RESULT:      -6.0      1.029      1.295
REMARK  12 active torsions:
REMARK  status: ('A' for Active; 'I' for Inactive)
REMARK    1  A    between atoms: C_2  and  O_3 
REMARK    2  A    between atoms: C_4  and  O_3 
REMARK    3  A    between atoms: C_4  and  C_5 
REMARK    4  A    between atoms: C_4  and  C_29 
REMARK    5  A    between atoms: C_5  and  C_6 
REMARK    6  A    between atoms: C_9  and  O_12 
REMARK    7  A    between atoms: O_12  and  C_13 
REMARK    8  A    between atoms: C_13  and  C_14 
REMARK    9  A    between atoms: C_14  and  N_15 
REMARK   10  A    between atoms: C_19  and  C_20 
REMARK   11  A    between atoms: C_23  and  S_26 
REMARK   12  A    between atoms: C_29  and  O_31 
ROOT
HETATM    1  O   UNK N   1      29.341  26.675  -5.335  0.00  0.00    -0.350 OA
ENDROOT
BRANCH   1   2
HETATM    2  C   UNK N   1      29.435  25.385  -4.927  0.00  0.00     0.068 A 
HETATM    3  C   UNK N   1      29.280  24.308  -5.818  0.00  0.00     0.037 A 
HETATM    4  C   UNK N   1      29.539  23.005  -5.401  0.00  0.00     0.010 A 
HETATM    5  C   UNK N   1      29.942  22.763  -4.084  0.00  0.00    -0.055 A 
HETATM    6  C   UNK N   1      30.029  23.822  -3.176  0.00  0.00     0.010 A 
HETATM    7  C   UNK N   1      29.776  25.128  -3.597  0.00  0.00     0.037 A 
BRANCH   5   8
HETATM    8  C   UNK N   1      30.379  21.404  -3.665  0.00  0.00     0.081 C 
BRANCH   8   9
HETATM    9  C   UNK N   1      31.747  21.105  -4.288  0.00  0.00     0.223 C 
BRANCH   9  10
HETATM   10  O   UNK N   1      31.718  19.875  -4.954  0.00  0.00    -0.375 OA
BRANCH  10  11
HETATM   11  C   UNK N   1      31.801  20.189  -6.313  0.00  0.00     0.164 C 
HETATM   12  C   UNK N   1      30.511  19.800  -7.004  0.00  0.00     0.033 C 
ENDBRANCH  10  11
ENDBRANCH   9  10
BRANCH   9  13
HETATM   13  C   UNK N   1      32.874  21.131  -3.294  0.00  0.00     0.170 C 
HETATM   14  O   UNK N   1      34.031  20.968  -3.650  0.00  0.00    -0.648 OA
BRANCH  13  15
HETATM   15  O   UNK N   1      32.602  21.317  -1.988  0.00  0.00    -0.774 OA
HETATM   16  H   UNK N   1      33.037  21.805  -1.316  0.00  0.00     0.167 HD
ENDBRANCH  13  15
ENDBRANCH   9  13
ENDBRANCH   8   9
ENDBRANCH   5   8
ENDBRANCH   1   2
BRANCH   1  17
HETATM   17  C   UNK N   1      29.349  27.103  -6.648  0.00  0.00     0.196 C 
BRANCH  17  18
HETATM   18  C   UNK N   1      28.088  27.867  -7.048  0.00  0.00     0.156 C 
BRANCH  18  19
HETATM   19  N   UNK N   1      27.103  27.989  -5.955  0.00  0.00    -0.348 N 
HETATM   20  C   UNK N   1      27.042  29.043  -5.120  0.00  0.00     0.008 A 
HETATM   21  C   UNK N   1      26.070  28.847  -4.156  0.00  0.00     0.027 A 
HETATM   22  C   UNK N   1      27.915  30.249  -5.206  0.00  0.00     0.068 C 
HETATM   23  C   UNK N   1      25.511  27.604  -4.414  0.00  0.00     0.032 A 
HETATM   24  C   UNK N   1      26.158  27.113  -5.534  0.00  0.00     0.045 A 
BRANCH  24  25
HETATM   25  C   UNK N   1      25.885  25.799  -6.133  0.00  0.00    -0.009 A 
HETATM   26  C   UNK N   1      25.809  24.668  -5.315  0.00  0.00     0.015 A 
HETATM   27  C   UNK N   1      25.699  23.398  -5.886  0.00  0.00     0.019 A 
HETATM   28  C   UNK N   1      25.659  23.255  -7.279  0.00  0.00    -0.000 A 
HETATM   29  C   UNK N   1      25.707  24.387  -8.099  0.00  0.00     0.019 A 
HETATM   30  C   UNK N   1      25.822  25.656  -7.527  0.00  0.00     0.015 A 
BRANCH  28  31
HETATM   31  S   UNK N   1      25.603  21.626  -8.013  0.00  0.00    -0.134 SA
HETATM   32  C   UNK N   1      27.401  21.558  -8.244  0.00  0.00     0.095 C 
ENDBRANCH  28  31
ENDBRANCH  24  25
ENDBRANCH  18  19
ENDBRANCH  17  18
ENDBRANCH   1  17
TORSDOF 12
ENDMDL
MODEL 6
REMARK VINA RESULT:      -5.9     18.297     23.191
REMARK  12 active torsions:
REMARK  status: ('A' for Active; 'I' for Inactive)
REMARK    1  A    between atoms: C_2  and  O_3 
REMARK    2  A    between atoms: C_4  and  O_3 
REMARK    3  A    between atoms: C_4  and  C_5 
REMARK    4  A    between atoms: C_4  and  C_29 
REMARK    5  A    between atoms: C_5  and  C_6 
REMARK    6  A    between atoms: C_9  and  O_12 
REMARK    7  A    between atoms: O_12  and  C_13 
REMARK    8  A    between atoms: C_13  and  C_14 
REMARK    9  A    between atoms: C_14  and  N_15 
REMARK   10  A    between atoms: C_19  and  C_20 
REMARK   11  A    between atoms: C_23  and  S_26 
REMARK   12  A    between atoms: C_29  and  O_31 
ROOT
HETATM    1  O   UNK N   1      36.826  13.307  12.252  0.00  0.00    -0.350 OA
ENDROOT
BRANCH   1   2
HETATM    2  C   UNK N   1      36.166  13.992  11.285  0.00  0.00     0.068 A 
HETATM    3  C   UNK N   1      36.077  13.516   9.964  0.00  0.00     0.037 A 
HETATM    4  C   UNK N   1      35.262  14.160   9.037  0.00  0.00     0.010 A 
HETATM    5  C   UNK N   1      34.538  15.295   9.416  0.00  0.00    -0.055 A 
HETATM    6  C   UNK N   1      34.679  15.813  10.706  0.00  0.00     0.010 A 
HETATM    7  C   UNK N   1      35.491  15.163  11.637  0.00  0.00     0.037 A 
BRANCH   5   8
HETATM    8  C   UNK N   1      33.541  15.899   8.492  0.00  0.00     0.081 C 
BRANCH   8   9
HETATM    9  C   UNK N   1      33.462  17.406   8.758  0.00  0.00     0.223 C 
BRANCH   9  10
HETATM   10  O   UNK N   1      32.146  17.857   8.610  0.00  0.00    -0.375 OA
BRANCH  10  11
HETATM   11  C   UNK N   1      31.422  16.744   8.173  0.00  0.00     0.164 C 
HETATM   12  C   UNK N   1      30.598  17.119   6.959  0.00  0.00     0.033 C 
ENDBRANCH  10  11
ENDBRANCH   9  10
BRANCH   9  13
HETATM   13  C   UNK N   1      34.389  18.215   7.892  0.00  0.00     0.170 C 
HETATM   14  O   UNK N   1      34.504  17.976   6.700  0.00  0.00    -0.648 OA
BRANCH  13  15
HETATM   15  O   UNK N   1      35.118  19.203   8.445  0.00  0.00    -0.774 OA
HETATM   16  H   UNK N   1      35.316  19.419   9.336  0.00  0.00     0.167 HD
ENDBRANCH  13  15
ENDBRANCH   9  13
ENDBRANCH   8   9
ENDBRANCH   5   8
ENDBRANCH   1   2
BRANCH   1  17
HETATM   17  C   UNK N   1      37.704  12.263  12.038  0.00  0.00     0.196 C 
BRANCH  17  18
HETATM   18  C   UNK N   1      37.313  10.977  12.764  0.00  0.00     0.156 C 
BRANCH  18  19
HETATM   19  N   UNK N   1      35.919  10.561  12.509  0.00  0.00    -0.348 N 
HETATM   20  C   UNK N   1      35.492  10.060  11.334  0.00  0.00     0.008 A 
HETATM   21  C   UNK N   1      34.130   9.828  11.368  0.00  0.00     0.027 A 
HETATM   22  C   UNK N   1      36.363   9.809  10.151  0.00  0.00     0.068 C 
HETATM   23  C   UNK N   1      33.700  10.212  12.630  0.00  0.00     0.032 A 
HETATM   24  C   UNK N   1      34.828  10.642  13.309  0.00  0.00     0.045 A 
BRANCH  24  25
HETATM   25  C   UNK N   1      34.812  11.163  14.682  0.00  0.00    -0.009 A 
HETATM   26  C   UNK N   1      34.683  12.538  14.899  0.00  0.00     0.015 A 
HETATM   27  C   UNK N   1      34.818  13.059  16.189  0.00  0.00     0.019 A 
HETATM   28  C   UNK N   1      35.076  12.204  17.268  0.00  0.00    -0.000 A 
HETATM   29  C   UNK N   1      35.179  10.826  17.058  0.00  0.00     0.019 A 
HETATM   30  C   UNK N   1      35.049  10.306  15.768  0.00  0.00     0.015 A 
BRANCH  28  31
HETATM   31  S   UNK N   1      35.332  12.876  18.904  0.00  0.00    -0.134 SA
HETATM   32  C   UNK N   1      35.226  11.250  19.699  0.00  0.00     0.095 C 
ENDBRANCH  28  31
ENDBRANCH  24  25
ENDBRANCH  18  19
ENDBRANCH  17  18
ENDBRANCH   1  17
TORSDOF 12
ENDMDL
MODEL 7
REMARK VINA RESULT:      -5.9     19.013     23.679
REMARK  12 active torsions:
REMARK  status: ('A' for Active; 'I' for Inactive)
REMARK    1  A    between atoms: C_2  and  O_3 
REMARK    2  A    between atoms: C_4  and  O_3 
REMARK    3  A    between atoms: C_4  and  C_5 
REMARK    4  A    between atoms: C_4  and  C_29 
REMARK    5  A    between atoms: C_5  and  C_6 
REMARK    6  A    between atoms: C_9  and  O_12 
REMARK    7  A    between atoms: O_12  and  C_13 
REMARK    8  A    between atoms: C_13  and  C_14 
REMARK    9  A    between atoms: C_14  and  N_15 
REMARK   10  A    between atoms: C_19  and  C_20 
REMARK   11  A    between atoms: C_23  and  S_26 
REMARK   12  A    between atoms: C_29  and  O_31 
ROOT
HETATM    1  O   UNK N   1      36.333  13.760  13.032  0.00  0.00    -0.350 OA
ENDROOT
BRANCH   1   2
HETATM    2  C   UNK N   1      35.825  14.261  11.879  0.00  0.00     0.068 A 
HETATM    3  C   UNK N   1      35.384  13.428  10.835  0.00  0.00     0.037 A 
HETATM    4  C   UNK N   1      34.725  13.966   9.734  0.00  0.00     0.010 A 
HETATM    5  C   UNK N   1      34.512  15.346   9.657  0.00  0.00    -0.055 A 
HETATM    6  C   UNK N   1      35.011  16.186  10.657  0.00  0.00     0.010 A 
HETATM    7  C   UNK N   1      35.666  15.644  11.764  0.00  0.00     0.037 A 
BRANCH   5   8
HETATM    8  C   UNK N   1      33.670  15.922   8.573  0.00  0.00     0.081 C 
BRANCH   8   9
HETATM    9  C   UNK N   1      33.535  17.432   8.794  0.00  0.00     0.223 C 
BRANCH   9  10
HETATM   10  O   UNK N   1      32.207  17.832   8.613  0.00  0.00    -0.375 OA
BRANCH  10  11
HETATM   11  C   UNK N   1      31.535  16.690   8.168  0.00  0.00     0.164 C 
HETATM   12  C   UNK N   1      30.254  17.094   7.468  0.00  0.00     0.033 C 
ENDBRANCH  10  11
ENDBRANCH   9  10
BRANCH   9  13
HETATM   13  C   UNK N   1      34.447  18.248   7.922  0.00  0.00     0.170 C 
HETATM   14  O   UNK N   1      34.471  18.085   6.711  0.00  0.00    -0.648 OA
BRANCH  13  15
HETATM   15  O   UNK N   1      35.266  19.156   8.485  0.00  0.00    -0.774 OA
HETATM   16  H   UNK N   1      35.902  19.744   8.124  0.00  0.00     0.167 HD
ENDBRANCH  13  15
ENDBRANCH   9  13
ENDBRANCH   8   9
ENDBRANCH   5   8
ENDBRANCH   1   2
BRANCH   1  17
HETATM   17  C   UNK N   1      35.701  13.774  14.260  0.00  0.00     0.196 C 
BRANCH  17  18
HETATM   18  C   UNK N   1      36.656  13.612  15.441  0.00  0.00     0.156 C 
BRANCH  18  19
HETATM   19  N   UNK N   1      35.999  13.098  16.660  0.00  0.00    -0.348 N 
HETATM   20  C   UNK N   1      35.714  13.861  17.732  0.00  0.00     0.008 A 
HETATM   21  C   UNK N   1      35.167  13.095  18.745  0.00  0.00     0.027 A 
HETATM   22  C   UNK N   1      35.970  15.327  17.825  0.00  0.00     0.068 C 
HETATM   23  C   UNK N   1      35.121  11.793  18.268  0.00  0.00     0.032 A 
HETATM   24  C   UNK N   1      35.625  11.835  16.979  0.00  0.00     0.045 A 
BRANCH  24  25
HETATM   25  C   UNK N   1      35.778  10.656  16.116  0.00  0.00    -0.009 A 
HETATM   26  C   UNK N   1      36.980   9.942  16.127  0.00  0.00     0.015 A 
HETATM   27  C   UNK N   1      37.190   8.913  15.205  0.00  0.00     0.019 A 
HETATM   28  C   UNK N   1      36.196   8.590  14.274  0.00  0.00    -0.000 A 
HETATM   29  C   UNK N   1      34.982   9.284  14.279  0.00  0.00     0.019 A 
HETATM   30  C   UNK N   1      34.774  10.316  15.197  0.00  0.00     0.015 A 
BRANCH  28  31
HETATM   31  S   UNK N   1      36.496   7.331  13.041  0.00  0.00    -0.134 SA
HETATM   32  C   UNK N   1      35.048   7.806  12.057  0.00  0.00     0.095 C 
ENDBRANCH  28  31
ENDBRANCH  24  25
ENDBRANCH  18  19
ENDBRANCH  17  18
ENDBRANCH   1  17
TORSDOF 12
ENDMDL
MODEL 8
REMARK VINA RESULT:      -5.8     12.874     16.363
REMARK  12 active torsions:
REMARK  status: ('A' for Active; 'I' for Inactive)
REMARK    1  A    between atoms: C_2  and  O_3 
REMARK    2  A    between atoms: C_4  and  O_3 
REMARK    3  A    between atoms: C_4  and  C_5 
REMARK    4  A    between atoms: C_4  and  C_29 
REMARK    5  A    between atoms: C_5  and  C_6 
REMARK    6  A    between atoms: C_9  and  O_12 
REMARK    7  A    between atoms: O_12  and  C_13 
REMARK    8  A    between atoms: C_13  and  C_14 
REMARK    9  A    between atoms: C_14  and  N_15 
REMARK   10  A    between atoms: C_19  and  C_20 
REMARK   11  A    between atoms: C_23  and  S_26 
REMARK   12  A    between atoms: C_29  and  O_31 
ROOT
HETATM    1  O   UNK N   1      30.596  18.672   8.418  0.00  0.00    -0.350 OA
ENDROOT
BRANCH   1   2
HETATM    2  C   UNK N   1      31.601  17.765   8.478  0.00  0.00     0.068 A 
HETATM    3  C   UNK N   1      32.946  18.130   8.292  0.00  0.00     0.037 A 
HETATM    4  C   UNK N   1      33.965  17.208   8.516  0.00  0.00     0.010 A 
HETATM    5  C   UNK N   1      33.648  15.905   8.915  0.00  0.00    -0.055 A 
HETATM    6  C   UNK N   1      32.311  15.517   9.031  0.00  0.00     0.010 A 
HETATM    7  C   UNK N   1      31.291  16.445   8.813  0.00  0.00     0.037 A 
BRANCH   5   8
HETATM    8  C   UNK N   1      34.722  14.955   9.315  0.00  0.00     0.081 C 
BRANCH   8   9
HETATM    9  C   UNK N   1      35.516  15.560  10.477  0.00  0.00     0.223 C 
BRANCH   9  10
HETATM   10  O   UNK N   1      36.887  15.512  10.204  0.00  0.00    -0.375 OA
BRANCH  10  11
HETATM   11  C   UNK N   1      37.099  14.272   9.595  0.00  0.00     0.164 C 
HETATM   12  C   UNK N   1      38.586  14.029   9.441  0.00  0.00     0.033 C 
ENDBRANCH  10  11
ENDBRANCH   9  10
BRANCH   9  13
HETATM   13  C   UNK N   1      35.226  14.911  11.801  0.00  0.00     0.170 C 
HETATM   14  O   UNK N   1      35.959  15.088  12.762  0.00  0.00    -0.648 OA
BRANCH  13  15
HETATM   15  O   UNK N   1      34.155  14.105  11.923  0.00  0.00    -0.774 OA
HETATM   16  H   UNK N   1      34.051  13.241  12.274  0.00  0.00     0.167 HD
ENDBRANCH  13  15
ENDBRANCH   9  13
ENDBRANCH   8   9
ENDBRANCH   5   8
ENDBRANCH   1   2
BRANCH   1  17
HETATM   17  C   UNK N   1      29.373  18.558   9.049  0.00  0.00     0.196 C 
BRANCH  17  18
HETATM   18  C   UNK N   1      28.261  18.039   8.138  0.00  0.00     0.156 C 
BRANCH  18  19
HETATM   19  N   UNK N   1      28.271  18.651   6.794  0.00  0.00    -0.348 N 
HETATM   20  C   UNK N   1      27.613  19.784   6.485  0.00  0.00     0.008 A 
HETATM   21  C   UNK N   1      27.747  20.074   5.139  0.00  0.00     0.027 A 
HETATM   22  C   UNK N   1      26.830  20.603   7.452  0.00  0.00     0.068 C 
HETATM   23  C   UNK N   1      28.525  19.061   4.597  0.00  0.00     0.032 A 
HETATM   24  C   UNK N   1      28.842  18.213   5.645  0.00  0.00     0.045 A 
BRANCH  24  25
HETATM   25  C   UNK N   1      29.637  16.987   5.499  0.00  0.00    -0.009 A 
HETATM   26  C   UNK N   1      30.978  17.074   5.111  0.00  0.00     0.015 A 
HETATM   27  C   UNK N   1      31.699  15.912   4.824  0.00  0.00     0.019 A 
HETATM   28  C   UNK N   1      31.085  14.659   4.931  0.00  0.00    -0.000 A 
HETATM   29  C   UNK N   1      29.752  14.568   5.345  0.00  0.00     0.019 A 
HETATM   30  C   UNK N   1      29.030  15.729   5.627  0.00  0.00     0.015 A 
BRANCH  28  31
HETATM   31  S   UNK N   1      31.981  13.179   4.484  0.00  0.00    -0.134 SA
HETATM   32  C   UNK N   1      32.912  14.016   3.172  0.00  0.00     0.095 C 
ENDBRANCH  28  31
ENDBRANCH  24  25
ENDBRANCH  18  19
ENDBRANCH  17  18
ENDBRANCH   1  17
TORSDOF 12
ENDMDL
MODEL 9
REMARK VINA RESULT:      -5.7      1.760      2.815
REMARK  12 active torsions:
REMARK  status: ('A' for Active; 'I' for Inactive)
REMARK    1  A    between atoms: C_2  and  O_3 
REMARK    2  A    between atoms: C_4  and  O_3 
REMARK    3  A    between atoms: C_4  and  C_5 
REMARK    4  A    between atoms: C_4  and  C_29 
REMARK    5  A    between atoms: C_5  and  C_6 
REMARK    6  A    between atoms: C_9  and  O_12 
REMARK    7  A    between atoms: O_12  and  C_13 
REMARK    8  A    between atoms: C_13  and  C_14 
REMARK    9  A    between atoms: C_14  and  N_15 
REMARK   10  A    between atoms: C_19  and  C_20 
REMARK   11  A    between atoms: C_23  and  S_26 
REMARK   12  A    between atoms: C_29  and  O_31 
ROOT
HETATM    1  O   UNK N   1      26.378  25.939  -3.876  0.00  0.00    -0.350 OA
ENDROOT
BRANCH   1   2
HETATM    2  C   UNK N   1      27.456  25.138  -3.688  0.00  0.00     0.068 A 
HETATM    3  C   UNK N   1      28.726  25.468  -4.194  0.00  0.00     0.037 A 
HETATM    4  C   UNK N   1      29.840  24.707  -3.850  0.00  0.00     0.010 A 
HETATM    5  C   UNK N   1      29.695  23.600  -3.009  0.00  0.00    -0.055 A 
HETATM    6  C   UNK N   1      28.425  23.226  -2.562  0.00  0.00     0.010 A 
HETATM    7  C   UNK N   1      27.309  23.993  -2.901  0.00  0.00     0.037 A 
BRANCH   5   8
HETATM    8  C   UNK N   1      30.890  22.874  -2.501  0.00  0.00     0.081 C 
BRANCH   8   9
HETATM    9  C   UNK N   1      31.554  22.129  -3.665  0.00  0.00     0.223 C 
BRANCH   9  10
HETATM   10  O   UNK N   1      30.635  21.271  -4.278  0.00  0.00    -0.375 OA
BRANCH  10  11
HETATM   11  C   UNK N   1      30.738  21.536  -5.647  0.00  0.00     0.164 C 
HETATM   12  C   UNK N   1      29.355  21.725  -6.233  0.00  0.00     0.033 C 
ENDBRANCH  10  11
ENDBRANCH   9  10
BRANCH   9  13
HETATM   13  C   UNK N   1      32.787  21.369  -3.263  0.00  0.00     0.170 C 
HETATM   14  O   UNK N   1      33.642  21.078  -4.085  0.00  0.00    -0.648 OA
BRANCH  13  15
HETATM   15  O   UNK N   1      32.940  20.985  -1.981  0.00  0.00    -0.774 OA
HETATM   16  H   UNK N   1      33.111  20.151  -1.588  0.00  0.00     0.167 HD
ENDBRANCH  13  15
ENDBRANCH   9  13
ENDBRANCH   8   9
ENDBRANCH   5   8
ENDBRANCH   1   2
BRANCH   1  17
HETATM   17  C   UNK N   1      25.420  25.778  -4.857  0.00  0.00     0.196 C 
BRANCH  17  18
HETATM   18  C   UNK N   1      25.202  27.028  -5.709  0.00  0.00     0.156 C 
BRANCH  18  19
HETATM   19  N   UNK N   1      26.450  27.574  -6.279  0.00  0.00    -0.348 N 
HETATM   20  C   UNK N   1      27.060  28.682  -5.816  0.00  0.00     0.008 A 
HETATM   21  C   UNK N   1      28.164  28.990  -6.589  0.00  0.00     0.027 A 
HETATM   22  C   UNK N   1      26.599  29.479  -4.644  0.00  0.00     0.068 C 
HETATM   23  C   UNK N   1      28.229  28.022  -7.580  0.00  0.00     0.032 A 
HETATM   24  C   UNK N   1      27.170  27.160  -7.350  0.00  0.00     0.045 A 
BRANCH  24  25
HETATM   25  C   UNK N   1      26.856  25.999  -8.193  0.00  0.00    -0.009 A 
HETATM   26  C   UNK N   1      27.367  24.742  -7.858  0.00  0.00     0.015 A 
HETATM   27  C   UNK N   1      27.200  23.663  -8.731  0.00  0.00     0.019 A 
HETATM   28  C   UNK N   1      26.515  23.838  -9.939  0.00  0.00    -0.000 A 
HETATM   29  C   UNK N   1      25.979  25.087 -10.265  0.00  0.00     0.019 A 
HETATM   30  C   UNK N   1      26.150  26.166  -9.395  0.00  0.00     0.015 A 
BRANCH  28  31
HETATM   31  S   UNK N   1      26.374  22.481 -11.095  0.00  0.00    -0.134 SA
HETATM   32  C   UNK N   1      27.354  21.362 -10.057  0.00  0.00     0.095 C 
ENDBRANCH  28  31
ENDBRANCH  24  25
ENDBRANCH  18  19
ENDBRANCH  17  18
ENDBRANCH   1  17
TORSDOF 12
ENDMDL
