MODEL 1
REMARK VINA RESULT:      -8.3      0.000      0.000
REMARK  7 active torsions:
REMARK  status: ('A' for Active; 'I' for Inactive)
REMARK    1  A    between atoms: C_5  and  C_21 
REMARK    2  A    between atoms: C_10  and  O_20 
REMARK    3  A    between atoms: C_11  and  C_14 
REMARK       I    between atoms: C_14  and  N_16 
REMARK    4  A    between atoms: N_16  and  C_17 
REMARK    5  A    between atoms: C_17  and  C_18 
REMARK    6  A    between atoms: C_18  and  O_19 
REMARK    7  A    between atoms: C_21  and  C_22 
ROOT
HETATM    1  C   UNK N   1      32.727  17.128   3.910  0.00  0.00     0.159 C 
HETATM    2  N   UNK N   1      32.358  17.237   5.322  0.00  0.00    -0.316 N 
HETATM    3  C   UNK N   1      31.039  17.203   5.691  0.00  0.00     0.067 A 
HETATM    4  C   UNK N   1      30.005  17.064   4.740  0.00  0.00     0.041 A 
HETATM    5  C   UNK N   1      28.665  17.034   5.153  0.00  0.00    -0.036 A 
HETATM    6  C   UNK N   1      28.392  17.141   6.518  0.00  0.00     0.096 A 
HETATM    7  N   UNK N   1      29.387  17.273   7.423  0.00  0.00    -0.361 N 
ATOM      8  HN  UNK N   1      29.151  17.349   8.412  1.00  0.00     0.165 HD
HETATM    9  C   UNK N   1      30.689  17.307   7.049  0.00  0.00     0.094 A 
HETATM   10  C   UNK N   1      31.674  17.445   8.020  0.00  0.00     0.116 A 
HETATM   11  C   UNK N   1      33.033  17.482   7.651  0.00  0.00     0.135 A 
HETATM   12  C   UNK N   1      33.357  17.374   6.272  0.00  0.00     0.266 A 
HETATM   13  O   UNK N   1      34.525  17.401   5.914  0.00  0.00    -0.267 OA
ENDROOT
BRANCH   5  14
HETATM   14  C   UNK N   1      27.564  16.883   4.121  0.00  0.00     0.078 C 
BRANCH  14  15
HETATM   15  C   UNK N   1      26.573  18.017   3.902  0.00  0.00    -0.054 A 
HETATM   16  C   UNK N   1      27.069  19.311   3.697  0.00  0.00     0.010 A 
HETATM   17  C   UNK N   1      26.190  20.383   3.488  0.00  0.00     0.043 A 
HETATM   18  C   UNK N   1      24.808  20.168   3.484  0.00  0.00     0.116 A 
HETATM   19  C   UNK N   1      24.305  18.886   3.688  0.00  0.00     0.043 A 
HETATM   20  F   UNK N   1      23.955  21.200   3.281  0.00  0.00    -0.206 F 
HETATM   21  C   UNK N   1      25.182  17.824   3.895  0.00  0.00     0.010 A 
ENDBRANCH  14  15
ENDBRANCH   5  14
BRANCH  10  22
HETATM   22  O   UNK N   1      31.302  17.542   9.311  0.00  0.00    -0.357 OA
HETATM   23  H   UNK N   1      30.394  17.613   9.533  0.00  0.00     0.217 HD
ENDBRANCH  10  22
BRANCH  11  24
HETATM   24  C   UNK N   1      34.094  17.632   8.707  0.00  0.00     0.260 C 
HETATM   25  O   UNK N   1      34.842  18.602   8.689  0.00  0.00    -0.267 OA
HETATM   26  N   UNK N   1      34.235  16.704   9.682  0.00  0.00    -0.355 N 
HETATM   27  H   UNK N   1      33.633  15.926   9.693  0.00  0.00     0.162 HD
BRANCH  26  28
HETATM   28  C   UNK N   1      35.243  16.825  10.704  0.00  0.00     0.148 C 
BRANCH  28  29
HETATM   29  C   UNK N   1      35.986  15.514  10.835  0.00  0.00     0.183 C 
BRANCH  29  30
HETATM   30  O   UNK N   1      37.348  15.733  10.634  0.00  0.00    -0.399 OA
HETATM   31  H   UNK N   1      37.813  15.268   9.921  0.00  0.00     0.209 HD
ENDBRANCH  29  30
ENDBRANCH  28  29
ENDBRANCH  26  28
ENDBRANCH  11  24
TORSDOF 7
ENDMDL
MODEL 2
REMARK VINA RESULT:      -7.9      8.906     11.631
REMARK  7 active torsions:
REMARK  status: ('A' for Active; 'I' for Inactive)
REMARK    1  A    between atoms: C_5  and  C_21 
REMARK    2  A    between atoms: C_10  and  O_20 
REMARK    3  A    between atoms: C_11  and  C_14 
REMARK       I    between atoms: C_14  and  N_16 
REMARK    4  A    between atoms: N_16  and  C_17 
REMARK    5  A    between atoms: C_17  and  C_18 
REMARK    6  A    between atoms: C_18  and  O_19 
REMARK    7  A    between atoms: C_21  and  C_22 
ROOT
HETATM    1  C   UNK N   1      20.650  16.644   8.013  0.00  0.00     0.159 C 
HETATM    2  N   UNK N   1      21.539  16.596   6.851  0.00  0.00    -0.316 N 
HETATM    3  C   UNK N   1      22.217  15.444   6.553  0.00  0.00     0.067 A 
HETATM    4  C   UNK N   1      22.087  14.280   7.342  0.00  0.00     0.041 A 
HETATM    5  C   UNK N   1      22.798  13.118   7.008  0.00  0.00    -0.036 A 
HETATM    6  C   UNK N   1      23.624  13.149   5.883  0.00  0.00     0.096 A 
HETATM    7  N   UNK N   1      23.744  14.266   5.133  0.00  0.00    -0.361 N 
ATOM      8  HN  UNK N   1      24.358  14.254   4.318  1.00  0.00     0.165 HD
HETATM    9  C   UNK N   1      23.070  15.402   5.435  0.00  0.00     0.094 A 
HETATM   10  C   UNK N   1      23.229  16.524   4.631  0.00  0.00     0.116 A 
HETATM   11  C   UNK N   1      22.536  17.714   4.928  0.00  0.00     0.135 A 
HETATM   12  C   UNK N   1      21.681  17.727   6.064  0.00  0.00     0.266 A 
HETATM   13  O   UNK N   1      21.064  18.741   6.353  0.00  0.00    -0.267 OA
ENDROOT
BRANCH   5  14
HETATM   14  C   UNK N   1      22.649  11.874   7.863  0.00  0.00     0.078 C 
BRANCH  14  15
HETATM   15  C   UNK N   1      22.880  11.955   9.364  0.00  0.00    -0.054 A 
HETATM   16  C   UNK N   1      24.198  11.962   9.840  0.00  0.00     0.010 A 
HETATM   17  C   UNK N   1      24.454  12.039  11.216  0.00  0.00     0.043 A 
HETATM   18  C   UNK N   1      23.394  12.108  12.126  0.00  0.00     0.116 A 
HETATM   19  C   UNK N   1      22.081  12.099  11.663  0.00  0.00     0.043 A 
HETATM   20  F   UNK N   1      23.637  12.184  13.456  0.00  0.00    -0.206 F 
HETATM   21  C   UNK N   1      21.831  12.023  10.295  0.00  0.00     0.010 A 
ENDBRANCH  14  15
ENDBRANCH   5  14
BRANCH  10  22
HETATM   22  O   UNK N   1      24.054  16.448   3.568  0.00  0.00    -0.357 OA
HETATM   23  H   UNK N   1      24.957  16.682   3.659  0.00  0.00     0.217 HD
ENDBRANCH  10  22
BRANCH  11  24
HETATM   24  C   UNK N   1      22.713  18.926   4.054  0.00  0.00     0.260 C 
HETATM   25  O   UNK N   1      23.824  19.416   3.905  0.00  0.00    -0.267 OA
HETATM   26  N   UNK N   1      21.651  19.485   3.427  0.00  0.00    -0.355 N 
HETATM   27  H   UNK N   1      20.759  19.089   3.550  0.00  0.00     0.162 HD
BRANCH  26  28
HETATM   28  C   UNK N   1      21.794  20.646   2.585  0.00  0.00     0.148 C 
BRANCH  28  29
HETATM   29  C   UNK N   1      20.750  20.603   1.490  0.00  0.00     0.183 C 
BRANCH  29  30
HETATM   30  O   UNK N   1      21.373  20.753   0.253  0.00  0.00    -0.399 OA
HETATM   31  H   UNK N   1      21.096  21.463  -0.347  0.00  0.00     0.209 HD
ENDBRANCH  29  30
ENDBRANCH  28  29
ENDBRANCH  26  28
ENDBRANCH  11  24
TORSDOF 7
ENDMDL
MODEL 3
REMARK VINA RESULT:      -7.5      8.370     13.745
REMARK  7 active torsions:
REMARK  status: ('A' for Active; 'I' for Inactive)
REMARK    1  A    between atoms: C_5  and  C_21 
REMARK    2  A    between atoms: C_10  and  O_20 
REMARK    3  A    between atoms: C_11  and  C_14 
REMARK       I    between atoms: C_14  and  N_16 
REMARK    4  A    between atoms: N_16  and  C_17 
REMARK    5  A    between atoms: C_17  and  C_18 
REMARK    6  A    between atoms: C_18  and  O_19 
REMARK    7  A    between atoms: C_21  and  C_22 
ROOT
HETATM    1  C   UNK N   1      36.966  14.545  15.708  0.00  0.00     0.159 C 
HETATM    2  N   UNK N   1      36.188  13.687  14.814  0.00  0.00    -0.316 N 
HETATM    3  C   UNK N   1      35.763  12.457  15.242  0.00  0.00     0.067 A 
HETATM    4  C   UNK N   1      36.055  11.979  16.538  0.00  0.00     0.041 A 
HETATM    5  C   UNK N   1      35.605  10.715  16.942  0.00  0.00    -0.036 A 
HETATM    6  C   UNK N   1      34.866   9.954  16.033  0.00  0.00     0.096 A 
HETATM    7  N   UNK N   1      34.590  10.418  14.794  0.00  0.00    -0.361 N 
ATOM      8  HN  UNK N   1      34.048   9.835  14.155  1.00  0.00     0.165 HD
HETATM    9  C   UNK N   1      35.015  11.635  14.379  0.00  0.00     0.094 A 
HETATM   10  C   UNK N   1      34.705  12.065  13.094  0.00  0.00     0.116 A 
HETATM   11  C   UNK N   1      35.137  13.327  12.644  0.00  0.00     0.135 A 
HETATM   12  C   UNK N   1      35.891  14.136  13.537  0.00  0.00     0.266 A 
HETATM   13  O   UNK N   1      36.282  15.238  13.183  0.00  0.00    -0.267 OA
ENDROOT
BRANCH   5  14
HETATM   14  C   UNK N   1      35.924  10.213  18.337  0.00  0.00     0.078 C 
BRANCH  14  15
HETATM   15  C   UNK N   1      34.793   9.846  19.286  0.00  0.00    -0.054 A 
HETATM   16  C   UNK N   1      34.692  10.527  20.506  0.00  0.00     0.010 A 
HETATM   17  C   UNK N   1      33.662  10.220  21.407  0.00  0.00     0.043 A 
HETATM   18  C   UNK N   1      32.728   9.228  21.094  0.00  0.00     0.116 A 
HETATM   19  C   UNK N   1      32.821   8.543  19.886  0.00  0.00     0.043 A 
HETATM   20  F   UNK N   1      31.730   8.929  21.960  0.00  0.00    -0.206 F 
HETATM   21  C   UNK N   1      33.845   8.851  18.993  0.00  0.00     0.010 A 
ENDBRANCH  14  15
ENDBRANCH   5  14
BRANCH  10  22
HETATM   22  O   UNK N   1      33.987  11.251  12.295  0.00  0.00    -0.357 OA
HETATM   23  H   UNK N   1      34.086  11.302  11.365  0.00  0.00     0.217 HD
ENDBRANCH  10  22
BRANCH  11  24
HETATM   24  C   UNK N   1      34.799  13.786  11.252  0.00  0.00     0.260 C 
HETATM   25  O   UNK N   1      35.201  13.153  10.284  0.00  0.00    -0.267 OA
HETATM   26  N   UNK N   1      34.051  14.897  11.054  0.00  0.00    -0.355 N 
HETATM   27  H   UNK N   1      33.729  15.404  11.834  0.00  0.00     0.162 HD
BRANCH  26  28
HETATM   28  C   UNK N   1      33.713  15.357   9.731  0.00  0.00     0.148 C 
BRANCH  28  29
HETATM   29  C   UNK N   1      34.439  16.654   9.449  0.00  0.00     0.183 C 
BRANCH  29  30
HETATM   30  O   UNK N   1      34.959  17.159  10.640  0.00  0.00    -0.399 OA
HETATM   31  H   UNK N   1      34.828  16.675  11.470  0.00  0.00     0.209 HD
ENDBRANCH  29  30
ENDBRANCH  28  29
ENDBRANCH  26  28
ENDBRANCH  11  24
TORSDOF 7
ENDMDL
MODEL 4
REMARK VINA RESULT:      -7.5      8.510     11.980
REMARK  7 active torsions:
REMARK  status: ('A' for Active; 'I' for Inactive)
REMARK    1  A    between atoms: C_5  and  C_21 
REMARK    2  A    between atoms: C_10  and  O_20 
REMARK    3  A    between atoms: C_11  and  C_14 
REMARK       I    between atoms: C_14  and  N_16 
REMARK    4  A    between atoms: N_16  and  C_17 
REMARK    5  A    between atoms: C_17  and  C_18 
REMARK    6  A    between atoms: C_18  and  O_19 
REMARK    7  A    between atoms: C_21  and  C_22 
ROOT
HETATM    1  C   UNK N   1      24.725  16.047   5.768  0.00  0.00     0.159 C 
HETATM    2  N   UNK N   1      23.278  16.004   5.556  0.00  0.00    -0.316 N 
HETATM    3  C   UNK N   1      22.540  14.969   6.066  0.00  0.00     0.067 A 
HETATM    4  C   UNK N   1      23.137  13.922   6.801  0.00  0.00     0.041 A 
HETATM    5  C   UNK N   1      22.352  12.877   7.307  0.00  0.00    -0.036 A 
HETATM    6  C   UNK N   1      20.977  12.907   7.066  0.00  0.00     0.096 A 
HETATM    7  N   UNK N   1      20.412  13.911   6.362  0.00  0.00    -0.361 N 
ATOM      8  HN  UNK N   1      19.404  13.901   6.203  1.00  0.00     0.165 HD
HETATM    9  C   UNK N   1      21.149  14.932   5.860  0.00  0.00     0.094 A 
HETATM   10  C   UNK N   1      20.519  15.941   5.142  0.00  0.00     0.116 A 
HETATM   11  C   UNK N   1      21.267  17.010   4.614  0.00  0.00     0.135 A 
HETATM   12  C   UNK N   1      22.671  17.021   4.837  0.00  0.00     0.266 A 
HETATM   13  O   UNK N   1      23.354  17.933   4.395  0.00  0.00    -0.267 OA
ENDROOT
BRANCH   5  14
HETATM   14  C   UNK N   1      23.006  11.759   8.097  0.00  0.00     0.078 C 
BRANCH  14  15
HETATM   15  C   UNK N   1      23.102  11.858   9.612  0.00  0.00    -0.054 A 
HETATM   16  C   UNK N   1      24.371  11.919  10.201  0.00  0.00     0.010 A 
HETATM   17  C   UNK N   1      24.503  12.014  11.594  0.00  0.00     0.043 A 
HETATM   18  C   UNK N   1      23.366  12.048  12.407  0.00  0.00     0.116 A 
HETATM   19  C   UNK N   1      22.099  11.986  11.831  0.00  0.00     0.043 A 
HETATM   20  F   UNK N   1      23.488  12.142  13.752  0.00  0.00    -0.206 F 
HETATM   21  C   UNK N   1      21.973  11.892  10.447  0.00  0.00     0.010 A 
ENDBRANCH  14  15
ENDBRANCH   5  14
BRANCH  10  22
HETATM   22  O   UNK N   1      19.185  15.873   4.964  0.00  0.00    -0.357 OA
HETATM   23  H   UNK N   1      18.833  15.740   4.106  0.00  0.00     0.217 HD
ENDBRANCH  10  22
BRANCH  11  24
HETATM   24  C   UNK N   1      20.579  18.099   3.836  0.00  0.00     0.260 C 
HETATM   25  O   UNK N   1      19.693  17.816   3.041  0.00  0.00    -0.267 OA
HETATM   26  N   UNK N   1      20.930  19.395   4.006  0.00  0.00    -0.355 N 
HETATM   27  H   UNK N   1      21.643  19.619   4.646  0.00  0.00     0.162 HD
BRANCH  26  28
HETATM   28  C   UNK N   1      20.286  20.457   3.274  0.00  0.00     0.148 C 
BRANCH  28  29
HETATM   29  C   UNK N   1      21.214  20.951   2.187  0.00  0.00     0.183 C 
BRANCH  29  30
HETATM   30  O   UNK N   1      22.203  21.753   2.754  0.00  0.00    -0.399 OA
HETATM   31  H   UNK N   1      22.711  22.363   2.197  0.00  0.00     0.209 HD
ENDBRANCH  29  30
ENDBRANCH  28  29
ENDBRANCH  26  28
ENDBRANCH  11  24
TORSDOF 7
ENDMDL
MODEL 5
REMARK VINA RESULT:      -7.5      5.529     10.650
REMARK  7 active torsions:
REMARK  status: ('A' for Active; 'I' for Inactive)
REMARK    1  A    between atoms: C_5  and  C_21 
REMARK    2  A    between atoms: C_10  and  O_20 
REMARK    3  A    between atoms: C_11  and  C_14 
REMARK       I    between atoms: C_14  and  N_16 
REMARK    4  A    between atoms: N_16  and  C_17 
REMARK    5  A    between atoms: C_17  and  C_18 
REMARK    6  A    between atoms: C_18  and  O_19 
REMARK    7  A    between atoms: C_21  and  C_22 
ROOT
HETATM    1  C   UNK N   1      34.640  12.313   8.324  0.00  0.00     0.159 C 
HETATM    2  N   UNK N   1      34.665  13.759   8.547  0.00  0.00    -0.316 N 
HETATM    3  C   UNK N   1      35.118  14.262   9.738  0.00  0.00     0.067 A 
HETATM    4  C   UNK N   1      35.568  13.419  10.777  0.00  0.00     0.041 A 
HETATM    5  C   UNK N   1      36.024  13.968  11.984  0.00  0.00    -0.036 A 
HETATM    6  C   UNK N   1      36.020  15.358  12.121  0.00  0.00     0.096 A 
HETATM    7  N   UNK N   1      35.587  16.158  11.123  0.00  0.00    -0.361 N 
ATOM      8  HN  UNK N   1      35.597  17.170  11.257  1.00  0.00     0.165 HD
HETATM    9  C   UNK N   1      35.140  15.653   9.948  0.00  0.00     0.094 A 
HETATM   10  C   UNK N   1      34.705  16.520   8.953  0.00  0.00     0.116 A 
HETATM   11  C   UNK N   1      34.238  16.014   7.724  0.00  0.00     0.135 A 
HETATM   12  C   UNK N   1      34.227  14.605   7.540  0.00  0.00     0.266 A 
HETATM   13  O   UNK N   1      33.829  14.128   6.488  0.00  0.00    -0.267 OA
ENDROOT
BRANCH   5  14
HETATM   14  C   UNK N   1      36.507  13.052  13.092  0.00  0.00     0.078 C 
BRANCH  14  15
HETATM   15  C   UNK N   1      36.140  13.355  14.537  0.00  0.00    -0.054 A 
HETATM   16  C   UNK N   1      35.000  12.749  15.081  0.00  0.00     0.010 A 
HETATM   17  C   UNK N   1      34.630  13.000  16.410  0.00  0.00     0.043 A 
HETATM   18  C   UNK N   1      35.396  13.859  17.203  0.00  0.00     0.116 A 
HETATM   19  C   UNK N   1      36.530  14.468  16.671  0.00  0.00     0.043 A 
HETATM   20  F   UNK N   1      35.043  14.103  18.488  0.00  0.00    -0.206 F 
HETATM   21  C   UNK N   1      36.895  14.216  15.351  0.00  0.00     0.010 A 
ENDBRANCH  14  15
ENDBRANCH   5  14
BRANCH  10  22
HETATM   22  O   UNK N   1      34.741  17.846   9.188  0.00  0.00    -0.357 OA
HETATM   23  H   UNK N   1      35.443  18.364   8.846  0.00  0.00     0.217 HD
ENDBRANCH  10  22
BRANCH  11  24
HETATM   24  C   UNK N   1      33.768  16.958   6.651  0.00  0.00     0.260 C 
HETATM   25  O   UNK N   1      34.342  18.026   6.482  0.00  0.00    -0.267 OA
HETATM   26  N   UNK N   1      32.713  16.639   5.866  0.00  0.00    -0.355 N 
HETATM   27  H   UNK N   1      32.254  15.780   6.005  0.00  0.00     0.162 HD
BRANCH  26  28
HETATM   28  C   UNK N   1      32.243  17.526   4.831  0.00  0.00     0.148 C 
BRANCH  28  29
HETATM   29  C   UNK N   1      32.755  17.049   3.490  0.00  0.00     0.183 C 
BRANCH  29  30
HETATM   30  O   UNK N   1      31.805  17.325   2.509  0.00  0.00    -0.399 OA
HETATM   31  H   UNK N   1      31.031  16.750   2.408  0.00  0.00     0.209 HD
ENDBRANCH  29  30
ENDBRANCH  28  29
ENDBRANCH  26  28
ENDBRANCH  11  24
TORSDOF 7
ENDMDL
MODEL 6
REMARK VINA RESULT:      -7.5      5.998     11.485
REMARK  7 active torsions:
REMARK  status: ('A' for Active; 'I' for Inactive)
REMARK    1  A    between atoms: C_5  and  C_21 
REMARK    2  A    between atoms: C_10  and  O_20 
REMARK    3  A    between atoms: C_11  and  C_14 
REMARK       I    between atoms: C_14  and  N_16 
REMARK    4  A    between atoms: N_16  and  C_17 
REMARK    5  A    between atoms: C_17  and  C_18 
REMARK    6  A    between atoms: C_18  and  O_19 
REMARK    7  A    between atoms: C_21  and  C_22 
ROOT
HETATM    1  C   UNK N   1      34.092  11.333  10.046  0.00  0.00     0.159 C 
HETATM    2  N   UNK N   1      34.221  12.785  10.168  0.00  0.00    -0.316 N 
HETATM    3  C   UNK N   1      34.953  13.325  11.193  0.00  0.00     0.067 A 
HETATM    4  C   UNK N   1      35.597  12.516  12.153  0.00  0.00     0.041 A 
HETATM    5  C   UNK N   1      36.337  13.102  13.189  0.00  0.00    -0.036 A 
HETATM    6  C   UNK N   1      36.417  14.495  13.238  0.00  0.00     0.096 A 
HETATM    7  N   UNK N   1      35.797  15.264  12.316  0.00  0.00    -0.361 N 
ATOM      8  HN  UNK N   1      35.875  16.279  12.382  1.00  0.00     0.165 HD
HETATM    9  C   UNK N   1      35.075  14.722  11.306  0.00  0.00     0.094 A 
HETATM   10  C   UNK N   1      34.457  15.558  10.384  0.00  0.00     0.116 A 
HETATM   11  C   UNK N   1      33.703  15.014   9.326  0.00  0.00     0.135 A 
HETATM   12  C   UNK N   1      33.597  13.599   9.237  0.00  0.00     0.266 A 
HETATM   13  O   UNK N   1      32.951  13.090   8.333  0.00  0.00    -0.267 OA
ENDROOT
BRANCH   5  14
HETATM   14  C   UNK N   1      37.026  12.221  14.214  0.00  0.00     0.078 C 
BRANCH  14  15
HETATM   15  C   UNK N   1      36.403  12.031  15.589  0.00  0.00    -0.054 A 
HETATM   16  C   UNK N   1      36.526  10.783  16.214  0.00  0.00     0.010 A 
HETATM   17  C   UNK N   1      35.969  10.568  17.482  0.00  0.00     0.043 A 
HETATM   18  C   UNK N   1      35.284  11.599  18.134  0.00  0.00     0.116 A 
HETATM   19  C   UNK N   1      35.155  12.842  17.520  0.00  0.00     0.043 A 
HETATM   20  F   UNK N   1      34.746  11.397  19.360  0.00  0.00    -0.206 F 
HETATM   21  C   UNK N   1      35.710  13.052  16.259  0.00  0.00     0.010 A 
ENDBRANCH  14  15
ENDBRANCH   5  14
BRANCH  10  22
HETATM   22  O   UNK N   1      34.595  16.891  10.523  0.00  0.00    -0.357 OA
HETATM   23  H   UNK N   1      34.418  17.459   9.799  0.00  0.00     0.217 HD
ENDBRANCH  10  22
BRANCH  11  24
HETATM   24  C   UNK N   1      33.035  15.924   8.332  0.00  0.00     0.260 C 
HETATM   25  O   UNK N   1      32.475  16.943   8.714  0.00  0.00    -0.267 OA
HETATM   26  N   UNK N   1      33.046  15.629   7.010  0.00  0.00    -0.355 N 
HETATM   27  H   UNK N   1      33.497  14.809   6.706  0.00  0.00     0.162 HD
BRANCH  26  28
HETATM   28  C   UNK N   1      32.414  16.484   6.038  0.00  0.00     0.148 C 
BRANCH  28  29
HETATM   29  C   UNK N   1      33.471  17.290   5.315  0.00  0.00     0.183 C 
BRANCH  29  30
HETATM   30  O   UNK N   1      34.197  18.036   6.242  0.00  0.00    -0.399 OA
HETATM   31  H   UNK N   1      33.787  18.800   6.676  0.00  0.00     0.209 HD
ENDBRANCH  29  30
ENDBRANCH  28  29
ENDBRANCH  26  28
ENDBRANCH  11  24
TORSDOF 7
ENDMDL
MODEL 7
REMARK VINA RESULT:      -7.4      3.426      5.328
REMARK  7 active torsions:
REMARK  status: ('A' for Active; 'I' for Inactive)
REMARK    1  A    between atoms: C_5  and  C_21 
REMARK    2  A    between atoms: C_10  and  O_20 
REMARK    3  A    between atoms: C_11  and  C_14 
REMARK       I    between atoms: C_14  and  N_16 
REMARK    4  A    between atoms: N_16  and  C_17 
REMARK    5  A    between atoms: C_17  and  C_18 
REMARK    6  A    between atoms: C_18  and  O_19 
REMARK    7  A    between atoms: C_21  and  C_22 
ROOT
HETATM    1  C   UNK N   1      34.178  13.050   7.465  0.00  0.00     0.159 C 
HETATM    2  N   UNK N   1      34.398  14.073   8.487  0.00  0.00    -0.316 N 
HETATM    3  C   UNK N   1      34.264  15.399   8.171  0.00  0.00     0.067 A 
HETATM    4  C   UNK N   1      33.915  15.820   6.869  0.00  0.00     0.041 A 
HETATM    5  C   UNK N   1      33.788  17.186   6.580  0.00  0.00    -0.036 A 
HETATM    6  C   UNK N   1      34.011  18.103   7.609  0.00  0.00     0.096 A 
HETATM    7  N   UNK N   1      34.344  17.693   8.852  0.00  0.00    -0.361 N 
ATOM      8  HN  UNK N   1      34.501  18.391   9.580  1.00  0.00     0.165 HD
HETATM    9  C   UNK N   1      34.476  16.380   9.157  0.00  0.00     0.094 A 
HETATM   10  C   UNK N   1      34.821  16.010  10.451  0.00  0.00     0.116 A 
HETATM   11  C   UNK N   1      34.961  14.650  10.788  0.00  0.00     0.135 A 
HETATM   12  C   UNK N   1      34.741  13.681   9.772  0.00  0.00     0.266 A 
HETATM   13  O   UNK N   1      34.853  12.492  10.026  0.00  0.00    -0.267 OA
ENDROOT
BRANCH   5  14
HETATM   14  C   UNK N   1      33.412  17.626   5.178  0.00  0.00     0.078 C 
BRANCH  14  15
HETATM   15  C   UNK N   1      32.042  17.275   4.617  0.00  0.00    -0.054 A 
HETATM   16  C   UNK N   1      31.951  16.850   3.285  0.00  0.00     0.010 A 
HETATM   17  C   UNK N   1      30.708  16.515   2.731  0.00  0.00     0.043 A 
HETATM   18  C   UNK N   1      29.546  16.604   3.505  0.00  0.00     0.116 A 
HETATM   19  C   UNK N   1      29.626  17.027   4.829  0.00  0.00     0.043 A 
HETATM   20  F   UNK N   1      28.343  16.279   2.975  0.00  0.00    -0.206 F 
HETATM   21  C   UNK N   1      30.863  17.360   5.376  0.00  0.00     0.010 A 
ENDBRANCH  14  15
ENDBRANCH   5  14
BRANCH  10  22
HETATM   22  O   UNK N   1      35.016  16.977  11.370  0.00  0.00    -0.357 OA
HETATM   23  H   UNK N   1      34.350  17.618  11.524  0.00  0.00     0.217 HD
ENDBRANCH  10  22
BRANCH  11  24
HETATM   24  C   UNK N   1      35.336  14.257  12.191  0.00  0.00     0.260 C 
HETATM   25  O   UNK N   1      36.109  14.953  12.836  0.00  0.00    -0.267 OA
HETATM   26  N   UNK N   1      34.825  13.136  12.753  0.00  0.00    -0.355 N 
HETATM   27  H   UNK N   1      34.204  12.578  12.232  0.00  0.00     0.162 HD
BRANCH  26  28
HETATM   28  C   UNK N   1      35.168  12.738  14.095  0.00  0.00     0.148 C 
BRANCH  28  29
HETATM   29  C   UNK N   1      36.400  11.861  14.060  0.00  0.00     0.183 C 
BRANCH  29  30
HETATM   30  O   UNK N   1      37.524  12.634  14.345  0.00  0.00    -0.399 OA
HETATM   31  H   UNK N   1      37.533  13.577  14.122  0.00  0.00     0.209 HD
ENDBRANCH  29  30
ENDBRANCH  28  29
ENDBRANCH  26  28
ENDBRANCH  11  24
TORSDOF 7
ENDMDL
MODEL 8
REMARK VINA RESULT:      -7.2      5.464      9.408
REMARK  7 active torsions:
REMARK  status: ('A' for Active; 'I' for Inactive)
REMARK    1  A    between atoms: C_5  and  C_21 
REMARK    2  A    between atoms: C_10  and  O_20 
REMARK    3  A    between atoms: C_11  and  C_14 
REMARK       I    between atoms: C_14  and  N_16 
REMARK    4  A    between atoms: N_16  and  C_17 
REMARK    5  A    between atoms: C_17  and  C_18 
REMARK    6  A    between atoms: C_18  and  O_19 
REMARK    7  A    between atoms: C_21  and  C_22 
ROOT
HETATM    1  C   UNK N   1      27.942  19.887   4.638  0.00  0.00     0.159 C 
HETATM    2  N   UNK N   1      26.924  18.846   4.785  0.00  0.00    -0.316 N 
HETATM    3  C   UNK N   1      27.297  17.551   5.032  0.00  0.00     0.067 A 
HETATM    4  C   UNK N   1      28.653  17.179   5.152  0.00  0.00     0.041 A 
HETATM    5  C   UNK N   1      28.999  15.844   5.405  0.00  0.00    -0.036 A 
HETATM    6  C   UNK N   1      27.972  14.908   5.535  0.00  0.00     0.096 A 
HETATM    7  N   UNK N   1      26.675  15.271   5.419  0.00  0.00    -0.361 N 
ATOM      8  HN  UNK N   1      25.950  14.561   5.519  1.00  0.00     0.165 HD
HETATM    9  C   UNK N   1      26.315  16.554   5.173  0.00  0.00     0.094 A 
HETATM   10  C   UNK N   1      24.967  16.875   5.063  0.00  0.00     0.116 A 
HETATM   11  C   UNK N   1      24.573  18.203   4.808  0.00  0.00     0.135 A 
HETATM   12  C   UNK N   1      25.586  19.190   4.671  0.00  0.00     0.266 A 
HETATM   13  O   UNK N   1      25.283  20.352   4.450  0.00  0.00    -0.267 OA
ENDROOT
BRANCH   5  14
HETATM   14  C   UNK N   1      30.460  15.457   5.532  0.00  0.00     0.078 C 
BRANCH  14  15
HETATM   15  C   UNK N   1      31.418  16.359   6.296  0.00  0.00    -0.054 A 
HETATM   16  C   UNK N   1      32.598  16.773   5.663  0.00  0.00     0.010 A 
HETATM   17  C   UNK N   1      33.505  17.607   6.332  0.00  0.00     0.043 A 
HETATM   18  C   UNK N   1      33.240  18.033   7.637  0.00  0.00     0.116 A 
HETATM   19  C   UNK N   1      32.071  17.625   8.275  0.00  0.00     0.043 A 
HETATM   20  F   UNK N   1      34.112  18.840   8.286  0.00  0.00    -0.206 F 
HETATM   21  C   UNK N   1      31.172  16.797   7.608  0.00  0.00     0.010 A 
ENDBRANCH  14  15
ENDBRANCH   5  14
BRANCH  10  22
HETATM   22  O   UNK N   1      24.054  15.894   5.203  0.00  0.00    -0.357 OA
HETATM   23  H   UNK N   1      23.231  15.953   4.759  0.00  0.00     0.217 HD
ENDBRANCH  10  22
BRANCH  11  24
HETATM   24  C   UNK N   1      23.112  18.544   4.689  0.00  0.00     0.260 C 
HETATM   25  O   UNK N   1      22.339  18.249   5.591  0.00  0.00    -0.267 OA
HETATM   26  N   UNK N   1      22.639  19.177   3.590  0.00  0.00    -0.355 N 
HETATM   27  H   UNK N   1      23.263  19.412   2.866  0.00  0.00     0.162 HD
BRANCH  26  28
HETATM   28  C   UNK N   1      21.245  19.515   3.450  0.00  0.00     0.148 C 
BRANCH  28  29
HETATM   29  C   UNK N   1      21.111  20.747   2.584  0.00  0.00     0.183 C 
BRANCH  29  30
HETATM   30  O   UNK N   1      22.165  21.618   2.854  0.00  0.00    -0.399 OA
HETATM   31  H   UNK N   1      22.388  22.319   2.223  0.00  0.00     0.209 HD
ENDBRANCH  29  30
ENDBRANCH  28  29
ENDBRANCH  26  28
ENDBRANCH  11  24
TORSDOF 7
ENDMDL
MODEL 9
REMARK VINA RESULT:      -7.2      2.588      3.510
REMARK  7 active torsions:
REMARK  status: ('A' for Active; 'I' for Inactive)
REMARK    1  A    between atoms: C_5  and  C_21 
REMARK    2  A    between atoms: C_10  and  O_20 
REMARK    3  A    between atoms: C_11  and  C_14 
REMARK       I    between atoms: C_14  and  N_16 
REMARK    4  A    between atoms: N_16  and  C_17 
REMARK    5  A    between atoms: C_17  and  C_18 
REMARK    6  A    between atoms: C_18  and  O_19 
REMARK    7  A    between atoms: C_21  and  C_22 
ROOT
HETATM    1  C   UNK N   1      33.297  18.366   8.301  0.00  0.00     0.159 C 
HETATM    2  N   UNK N   1      33.126  16.913   8.270  0.00  0.00    -0.316 N 
HETATM    3  C   UNK N   1      32.217  16.348   7.415  0.00  0.00     0.067 A 
HETATM    4  C   UNK N   1      31.424  17.131   6.549  0.00  0.00     0.041 A 
HETATM    5  C   UNK N   1      30.503  16.519   5.688  0.00  0.00    -0.036 A 
HETATM    6  C   UNK N   1      30.398  15.128   5.713  0.00  0.00     0.096 A 
HETATM    7  N   UNK N   1      31.159  14.383   6.545  0.00  0.00    -0.361 N 
ATOM      8  HN  UNK N   1      31.056  13.368   6.539  1.00  0.00     0.165 HD
HETATM    9  C   UNK N   1      32.055  14.950   7.388  0.00  0.00     0.094 A 
HETATM   10  C   UNK N   1      32.814  14.140   8.224  0.00  0.00     0.116 A 
HETATM   11  C   UNK N   1      33.751  14.710   9.107  0.00  0.00     0.135 A 
HETATM   12  C   UNK N   1      33.893  16.125   9.113  0.00  0.00     0.266 A 
HETATM   13  O   UNK N   1      34.696  16.656   9.864  0.00  0.00    -0.267 OA
ENDROOT
BRANCH   5  14
HETATM   14  C   UNK N   1      29.658  17.373   4.760  0.00  0.00     0.078 C 
BRANCH  14  15
HETATM   15  C   UNK N   1      28.771  18.466   5.337  0.00  0.00    -0.054 A 
HETATM   16  C   UNK N   1      28.244  19.430   4.468  0.00  0.00     0.010 A 
HETATM   17  C   UNK N   1      27.420  20.453   4.959  0.00  0.00     0.043 A 
HETATM   18  C   UNK N   1      27.119  20.519   6.323  0.00  0.00     0.116 A 
HETATM   19  C   UNK N   1      27.640  19.567   7.195  0.00  0.00     0.043 A 
HETATM   20  F   UNK N   1      26.322  21.504   6.802  0.00  0.00    -0.206 F 
HETATM   21  C   UNK N   1      28.458  18.553   6.704  0.00  0.00     0.010 A 
ENDBRANCH  14  15
ENDBRANCH   5  14
BRANCH  10  22
HETATM   22  O   UNK N   1      32.633  12.806   8.171  0.00  0.00    -0.357 OA
HETATM   23  H   UNK N   1      33.323  12.251   7.864  0.00  0.00     0.217 HD
ENDBRANCH  10  22
BRANCH  11  24
HETATM   24  C   UNK N   1      34.569  13.828  10.010  0.00  0.00     0.260 C 
HETATM   25  O   UNK N   1      35.382  13.048   9.531  0.00  0.00    -0.267 OA
HETATM   26  N   UNK N   1      34.415  13.884  11.354  0.00  0.00    -0.355 N 
HETATM   27  H   UNK N   1      33.760  14.512  11.735  0.00  0.00     0.162 HD
BRANCH  26  28
HETATM   28  C   UNK N   1      35.186  13.050  12.241  0.00  0.00     0.148 C 
BRANCH  28  29
HETATM   29  C   UNK N   1      36.336  13.850  12.811  0.00  0.00     0.183 C 
BRANCH  29  30
HETATM   30  O   UNK N   1      37.533  13.184  12.553  0.00  0.00    -0.399 OA
HETATM   31  H   UNK N   1      37.831  13.060  11.639  0.00  0.00     0.209 HD
ENDBRANCH  29  30
ENDBRANCH  28  29
ENDBRANCH  26  28
ENDBRANCH  11  24
TORSDOF 7
ENDMDL
