MODEL 1
REMARK VINA RESULT:      -8.1      0.000      0.000
REMARK  7 active torsions:
REMARK  status: ('A' for Active; 'I' for Inactive)
REMARK    1  A    between atoms: C_12  and  C_11 
REMARK    2  A    between atoms: C_21  and  C_11 
REMARK    3  A    between atoms: N_24  and  C_12 
REMARK    4  A    between atoms: C_15  and  N_23 
REMARK    5  A    between atoms: S_29  and  C_16 
REMARK    6  A    between atoms: O_26  and  C_21 
REMARK    7  A    between atoms: S_29  and  N_23 
ROOT
HETATM    1  C   UNK N   1      20.192  14.881   0.575  0.00  0.00     0.001 A 
HETATM    2  C   UNK N   1      19.454  16.060   0.318  0.00  0.00     0.002 A 
HETATM    3  C   UNK N   1      21.141  14.843   1.615  0.00  0.00     0.014 A 
HETATM    4  C   UNK N   1      19.655  17.212   1.100  0.00  0.00     0.030 A 
HETATM    5  C   UNK N   1      23.850  17.493   5.372  0.00  0.00     0.032 C 
HETATM    6  C   UNK N   1      22.621  18.292   4.905  0.00  0.00     0.060 C 
HETATM    7  C   UNK N   1      23.177  15.406   4.079  0.00  0.00     0.067 C 
HETATM    8  C   UNK N   1      23.623  15.973   5.448  0.00  0.00     0.098 C 
HETATM    9  C   UNK N   1      21.313  15.996   2.374  0.00  0.00    -0.001 A 
HETATM   10  C   UNK N   1      22.153  16.276   3.430  0.00  0.00    -0.021 A 
HETATM   11  C   UNK N   1      20.596  17.141   2.129  0.00  0.00     0.045 A 
HETATM   12  C   UNK N   1      21.909  17.585   3.790  0.00  0.00     0.019 A 
HETATM   13  N   UNK N   1      20.959  18.118   2.984  0.00  0.00    -0.349 N 
ENDROOT
BRANCH   8  14
HETATM   14  N   UNK N   1      22.665  15.649   6.545  0.00  0.00    -0.310 N 
HETATM   15  H   UNK N   1      22.158  16.416   6.987  0.00  0.00     0.172 HD
BRANCH  14  16
HETATM   16  S   UNK N   1      22.356  13.948   7.137  0.00  0.00     0.259 S 
HETATM   17  O   UNK N   1      21.688  14.728   8.277  0.00  0.00    -0.201 OA
HETATM   18  O   UNK N   1      23.872  14.122   7.307  0.00  0.00    -0.201 OA
BRANCH  16  19
HETATM   19  C   UNK N   1      22.639  13.154   8.816  0.00  0.00     0.079 A 
HETATM   20  C   UNK N   1      21.504  12.882   9.611  0.00  0.00     0.028 A 
HETATM   21  C   UNK N   1      21.637  12.370  10.906  0.00  0.00     0.044 A 
HETATM   22  C   UNK N   1      22.903  12.098  11.430  0.00  0.00     0.116 A 
HETATM   23  C   UNK N   1      24.040  12.330  10.662  0.00  0.00     0.044 A 
HETATM   24  F   UNK N   1      23.028  11.612  12.687  0.00  0.00    -0.206 F 
HETATM   25  C   UNK N   1      23.917  12.859   9.379  0.00  0.00     0.028 A 
ENDBRANCH  16  19
ENDBRANCH  14  16
ENDBRANCH   8  14
BRANCH  13  26
HETATM   26  C   UNK N   1      20.464  19.486   2.995  0.00  0.00     0.139 C 
BRANCH  26  27
HETATM   27  C   UNK N   1      21.479  20.380   2.298  0.00  0.00     0.130 C 
BRANCH  27  28
HETATM   28  C   UNK N   1      20.931  20.925   1.023  0.00  0.00     0.140 C 
HETATM   29  O   UNK N   1      20.883  20.225   0.025  0.00  0.00    -0.650 OA
BRANCH  28  30
HETATM   30  O   UNK N   1      20.526  22.207   0.964  0.00  0.00    -0.776 OA
HETATM   31  H   UNK N   1      21.069  22.889   1.305  0.00  0.00     0.167 HD
ENDBRANCH  28  30
ENDBRANCH  27  28
ENDBRANCH  26  27
ENDBRANCH  13  26
TORSDOF 7
ENDMDL
MODEL 2
REMARK VINA RESULT:      -7.6      5.490      8.284
REMARK  7 active torsions:
REMARK  status: ('A' for Active; 'I' for Inactive)
REMARK    1  A    between atoms: C_12  and  C_11 
REMARK    2  A    between atoms: C_21  and  C_11 
REMARK    3  A    between atoms: N_24  and  C_12 
REMARK    4  A    between atoms: C_15  and  N_23 
REMARK    5  A    between atoms: S_29  and  C_16 
REMARK    6  A    between atoms: O_26  and  C_21 
REMARK    7  A    between atoms: S_29  and  N_23 
ROOT
HETATM    1  C   UNK N   1      22.804  11.769  11.091  0.00  0.00     0.001 A 
HETATM    2  C   UNK N   1      21.495  12.304  11.124  0.00  0.00     0.002 A 
HETATM    3  C   UNK N   1      23.709  12.154  10.084  0.00  0.00     0.014 A 
HETATM    4  C   UNK N   1      21.078  13.232  10.152  0.00  0.00     0.030 A 
HETATM    5  C   UNK N   1      24.562  14.819   5.539  0.00  0.00     0.032 C 
HETATM    6  C   UNK N   1      23.267  15.288   6.225  0.00  0.00     0.060 C 
HETATM    7  C   UNK N   1      25.272  13.386   7.520  0.00  0.00     0.067 C 
HETATM    8  C   UNK N   1      25.704  14.480   6.514  0.00  0.00     0.098 C 
HETATM    9  C   UNK N   1      23.270  13.077   9.139  0.00  0.00    -0.001 A 
HETATM   10  C   UNK N   1      23.899  13.633   8.047  0.00  0.00    -0.021 A 
HETATM   11  C   UNK N   1      22.001  13.600   9.171  0.00  0.00     0.045 A 
HETATM   12  C   UNK N   1      22.985  14.480   7.456  0.00  0.00     0.019 A 
HETATM   13  N   UNK N   1      21.816  14.452   8.143  0.00  0.00    -0.349 N 
ENDROOT
BRANCH   8  14
HETATM   14  N   UNK N   1      26.194  15.718   7.185  0.00  0.00    -0.310 N 
HETATM   15  H   UNK N   1      25.917  15.887   8.152  0.00  0.00     0.172 HD
BRANCH  14  16
HETATM   16  S   UNK N   1      27.265  16.949   6.361  0.00  0.00     0.259 S 
HETATM   17  O   UNK N   1      27.940  15.664   5.860  0.00  0.00    -0.201 OA
HETATM   18  O   UNK N   1      27.625  17.091   7.846  0.00  0.00    -0.201 OA
BRANCH  16  19
HETATM   19  C   UNK N   1      29.135  17.101   6.281  0.00  0.00     0.079 A 
HETATM   20  C   UNK N   1      29.734  17.160   5.003  0.00  0.00     0.028 A 
HETATM   21  C   UNK N   1      31.125  17.190   4.859  0.00  0.00     0.044 A 
HETATM   22  C   UNK N   1      31.951  17.182   5.985  0.00  0.00     0.116 A 
HETATM   23  C   UNK N   1      31.392  17.151   7.260  0.00  0.00     0.044 A 
HETATM   24  F   UNK N   1      33.297  17.200   5.841  0.00  0.00    -0.206 F 
HETATM   25  C   UNK N   1      30.008  17.101   7.411  0.00  0.00     0.028 A 
ENDBRANCH  16  19
ENDBRANCH  14  16
ENDBRANCH   8  14
BRANCH  13  26
HETATM   26  C   UNK N   1      20.586  15.154   7.812  0.00  0.00     0.139 C 
BRANCH  26  27
HETATM   27  C   UNK N   1      20.554  16.472   8.573  0.00  0.00     0.130 C 
BRANCH  27  28
HETATM   28  C   UNK N   1      19.159  16.849   8.939  0.00  0.00     0.140 C 
HETATM   29  O   UNK N   1      18.298  15.991   9.047  0.00  0.00    -0.650 OA
BRANCH  28  30
HETATM   30  O   UNK N   1      18.842  18.145   9.113  0.00  0.00    -0.776 OA
HETATM   31  H   UNK N   1      18.310  18.589   8.482  0.00  0.00     0.167 HD
ENDBRANCH  28  30
ENDBRANCH  27  28
ENDBRANCH  26  27
ENDBRANCH  13  26
TORSDOF 7
ENDMDL
MODEL 3
REMARK VINA RESULT:      -7.5      1.894      3.233
REMARK  7 active torsions:
REMARK  status: ('A' for Active; 'I' for Inactive)
REMARK    1  A    between atoms: C_12  and  C_11 
REMARK    2  A    between atoms: C_21  and  C_11 
REMARK    3  A    between atoms: N_24  and  C_12 
REMARK    4  A    between atoms: C_15  and  N_23 
REMARK    5  A    between atoms: S_29  and  C_16 
REMARK    6  A    between atoms: O_26  and  C_21 
REMARK    7  A    between atoms: S_29  and  N_23 
ROOT
HETATM    1  C   UNK N   1      25.152  19.439   4.660  0.00  0.00     0.001 A 
HETATM    2  C   UNK N   1      24.787  20.029   3.428  0.00  0.00     0.002 A 
HETATM    3  C   UNK N   1      24.260  18.582   5.335  0.00  0.00     0.014 A 
HETATM    4  C   UNK N   1      23.528  19.768   2.855  0.00  0.00     0.030 A 
HETATM    5  C   UNK N   1      19.376  16.451   5.628  0.00  0.00     0.032 C 
HETATM    6  C   UNK N   1      19.646  17.033   4.229  0.00  0.00     0.060 C 
HETATM    7  C   UNK N   1      21.782  16.773   6.394  0.00  0.00     0.067 C 
HETATM    8  C   UNK N   1      20.600  15.782   6.279  0.00  0.00     0.098 C 
HETATM    9  C   UNK N   1      23.025  18.339   4.742  0.00  0.00    -0.001 A 
HETATM   10  C   UNK N   1      21.953  17.574   5.148  0.00  0.00    -0.021 A 
HETATM   11  C   UNK N   1      22.670  18.908   3.544  0.00  0.00     0.045 A 
HETATM   12  C   UNK N   1      20.985  17.706   4.174  0.00  0.00     0.019 A 
HETATM   13  N   UNK N   1      21.423  18.533   3.194  0.00  0.00    -0.349 N 
ENDROOT
BRANCH   8  14
HETATM   14  N   UNK N   1      20.962  14.538   5.541  0.00  0.00    -0.310 N 
HETATM   15  H   UNK N   1      21.026  14.580   4.524  0.00  0.00     0.172 HD
BRANCH  14  16
HETATM   16  S   UNK N   1      21.293  12.942   6.367  0.00  0.00     0.259 S 
HETATM   17  O   UNK N   1      20.412  13.593   7.441  0.00  0.00    -0.201 OA
HETATM   18  O   UNK N   1      22.649  13.660   6.408  0.00  0.00    -0.201 OA
BRANCH  16  19
HETATM   19  C   UNK N   1      21.874  12.551   8.110  0.00  0.00     0.079 A 
HETATM   20  C   UNK N   1      22.979  11.683   8.254  0.00  0.00     0.028 A 
HETATM   21  C   UNK N   1      23.419  11.278   9.518  0.00  0.00     0.044 A 
HETATM   22  C   UNK N   1      22.780  11.745  10.669  0.00  0.00     0.116 A 
HETATM   23  C   UNK N   1      21.704  12.622  10.563  0.00  0.00     0.044 A 
HETATM   24  F   UNK N   1      23.202  11.342  11.891  0.00  0.00    -0.206 F 
HETATM   25  C   UNK N   1      21.248  13.013   9.307  0.00  0.00     0.028 A 
ENDBRANCH  16  19
ENDBRANCH  14  16
ENDBRANCH   8  14
BRANCH  13  26
HETATM   26  C   UNK N   1      20.683  18.978   2.023  0.00  0.00     0.139 C 
BRANCH  26  27
HETATM   27  C   UNK N   1      20.370  20.460   2.174  0.00  0.00     0.130 C 
BRANCH  27  28
HETATM   28  C   UNK N   1      20.680  21.206   0.922  0.00  0.00     0.140 C 
HETATM   29  O   UNK N   1      21.192  20.633  -0.026  0.00  0.00    -0.650 OA
BRANCH  28  30
HETATM   30  O   UNK N   1      20.430  22.527   0.853  0.00  0.00    -0.776 OA
HETATM   31  H   UNK N   1      19.548  22.838   0.811  0.00  0.00     0.167 HD
ENDBRANCH  28  30
ENDBRANCH  27  28
ENDBRANCH  26  27
ENDBRANCH  13  26
TORSDOF 7
ENDMDL
MODEL 4
REMARK VINA RESULT:      -7.4     10.004     12.003
REMARK  7 active torsions:
REMARK  status: ('A' for Active; 'I' for Inactive)
REMARK    1  A    between atoms: C_12  and  C_11 
REMARK    2  A    between atoms: C_21  and  C_11 
REMARK    3  A    between atoms: N_24  and  C_12 
REMARK    4  A    between atoms: C_15  and  N_23 
REMARK    5  A    between atoms: S_29  and  C_16 
REMARK    6  A    between atoms: O_26  and  C_21 
REMARK    7  A    between atoms: S_29  and  N_23 
ROOT
HETATM    1  C   UNK N   1      31.545  16.608   2.563  0.00  0.00     0.001 A 
HETATM    2  C   UNK N   1      30.172  16.481   2.878  0.00  0.00     0.002 A 
HETATM    3  C   UNK N   1      32.490  16.867   3.576  0.00  0.00     0.014 A 
HETATM    4  C   UNK N   1      29.729  16.609   4.207  0.00  0.00     0.030 A 
HETATM    5  C   UNK N   1      33.435  18.046   8.694  0.00  0.00     0.032 C 
HETATM    6  C   UNK N   1      32.008  17.505   8.502  0.00  0.00     0.060 C 
HETATM    7  C   UNK N   1      34.127  17.501   6.305  0.00  0.00     0.067 C 
HETATM    8  C   UNK N   1      34.492  17.368   7.803  0.00  0.00     0.098 C 
HETATM    9  C   UNK N   1      32.022  16.983   4.881  0.00  0.00    -0.001 A 
HETATM   10  C   UNK N   1      32.679  17.239   6.065  0.00  0.00    -0.021 A 
HETATM   11  C   UNK N   1      30.690  16.857   5.189  0.00  0.00     0.045 A 
HETATM   12  C   UNK N   1      31.716  17.255   7.053  0.00  0.00     0.019 A 
HETATM   13  N   UNK N   1      30.494  17.029   6.511  0.00  0.00    -0.349 N 
ENDROOT
BRANCH   8  14
HETATM   14  N   UNK N   1      34.688  15.951   8.224  0.00  0.00    -0.310 N 
HETATM   15  H   UNK N   1      34.936  15.264   7.512  0.00  0.00     0.172 HD
BRANCH  14  16
HETATM   16  S   UNK N   1      34.503  15.383   9.952  0.00  0.00     0.259 S 
HETATM   17  O   UNK N   1      35.953  15.881  10.012  0.00  0.00    -0.201 OA
HETATM   18  O   UNK N   1      34.513  14.080   9.141  0.00  0.00    -0.201 OA
BRANCH  16  19
HETATM   19  C   UNK N   1      35.598  14.287  11.015  0.00  0.00     0.079 A 
HETATM   20  C   UNK N   1      36.789  13.794  10.437  0.00  0.00     0.028 A 
HETATM   21  C   UNK N   1      37.614  12.905  11.133  0.00  0.00     0.044 A 
HETATM   22  C   UNK N   1      37.283  12.504  12.430  0.00  0.00     0.116 A 
HETATM   23  C   UNK N   1      36.129  12.994  13.038  0.00  0.00     0.044 A 
HETATM   24  F   UNK N   1      38.078  11.636  13.097  0.00  0.00    -0.206 F 
HETATM   25  C   UNK N   1      35.292  13.862  12.342  0.00  0.00     0.028 A 
ENDBRANCH  16  19
ENDBRANCH  14  16
ENDBRANCH   8  14
BRANCH  13  26
HETATM   26  C   UNK N   1      29.213  17.026   7.203  0.00  0.00     0.139 C 
BRANCH  26  27
HETATM   27  C   UNK N   1      28.921  18.436   7.698  0.00  0.00     0.130 C 
BRANCH  27  28
HETATM   28  C   UNK N   1      28.543  18.433   9.140  0.00  0.00     0.140 C 
HETATM   29  O   UNK N   1      29.334  18.822   9.984  0.00  0.00    -0.650 OA
BRANCH  28  30
HETATM   30  O   UNK N   1      27.340  17.962   9.514  0.00  0.00    -0.776 OA
HETATM   31  H   UNK N   1      27.200  17.671  10.394  0.00  0.00     0.167 HD
ENDBRANCH  28  30
ENDBRANCH  27  28
ENDBRANCH  26  27
ENDBRANCH  13  26
TORSDOF 7
ENDMDL
MODEL 5
REMARK VINA RESULT:      -7.3      7.145     10.513
REMARK  7 active torsions:
REMARK  status: ('A' for Active; 'I' for Inactive)
REMARK    1  A    between atoms: C_12  and  C_11 
REMARK    2  A    between atoms: C_21  and  C_11 
REMARK    3  A    between atoms: N_24  and  C_12 
REMARK    4  A    between atoms: C_15  and  N_23 
REMARK    5  A    between atoms: S_29  and  C_16 
REMARK    6  A    between atoms: O_26  and  C_21 
REMARK    7  A    between atoms: S_29  and  N_23 
ROOT
HETATM    1  C   UNK N   1      28.328  18.676   8.777  0.00  0.00     0.001 A 
HETATM    2  C   UNK N   1      29.500  18.428   9.528  0.00  0.00     0.002 A 
HETATM    3  C   UNK N   1      28.259  18.315   7.418  0.00  0.00     0.014 A 
HETATM    4  C   UNK N   1      30.616  17.815   8.929  0.00  0.00     0.030 A 
HETATM    5  C   UNK N   1      30.779  16.470   3.090  0.00  0.00     0.032 C 
HETATM    6  C   UNK N   1      31.570  16.156   4.371  0.00  0.00     0.060 C 
HETATM    7  C   UNK N   1      28.745  17.310   4.370  0.00  0.00     0.067 C 
HETATM    8  C   UNK N   1      29.251  16.368   3.252  0.00  0.00     0.098 C 
HETATM    9  C   UNK N   1      29.376  17.706   6.854  0.00  0.00    -0.001 A 
HETATM   10  C   UNK N   1      29.621  17.255   5.575  0.00  0.00    -0.021 A 
HETATM   11  C   UNK N   1      30.515  17.462   7.582  0.00  0.00     0.045 A 
HETATM   12  C   UNK N   1      30.904  16.748   5.576  0.00  0.00     0.019 A 
HETATM   13  N   UNK N   1      31.455  16.884   6.808  0.00  0.00    -0.349 N 
ENDROOT
BRANCH   8  14
HETATM   14  N   UNK N   1      28.849  14.948   3.468  0.00  0.00    -0.310 N 
HETATM   15  H   UNK N   1      29.323  14.417   4.199  0.00  0.00     0.172 HD
BRANCH  14  16
HETATM   16  S   UNK N   1      27.552  14.112   2.489  0.00  0.00     0.259 S 
HETATM   17  O   UNK N   1      27.250  15.566   2.103  0.00  0.00    -0.201 OA
HETATM   18  O   UNK N   1      27.086  13.930   3.940  0.00  0.00    -0.201 OA
BRANCH  16  19
HETATM   19  C   UNK N   1      25.711  14.449   2.337  0.00  0.00     0.079 A 
HETATM   20  C   UNK N   1      25.151  15.426   3.191  0.00  0.00     0.028 A 
HETATM   21  C   UNK N   1      23.775  15.674   3.197  0.00  0.00     0.044 A 
HETATM   22  C   UNK N   1      22.927  14.970   2.338  0.00  0.00     0.116 A 
HETATM   23  C   UNK N   1      23.451  14.020   1.466  0.00  0.00     0.044 A 
HETATM   24  F   UNK N   1      21.594  15.206   2.355  0.00  0.00    -0.206 F 
HETATM   25  C   UNK N   1      24.818  13.752   1.469  0.00  0.00     0.028 A 
ENDBRANCH  16  19
ENDBRANCH  14  16
ENDBRANCH   8  14
BRANCH  13  26
HETATM   26  C   UNK N   1      32.808  16.531   7.208  0.00  0.00     0.139 C 
BRANCH  26  27
HETATM   27  C   UNK N   1      33.709  17.743   7.014  0.00  0.00     0.130 C 
BRANCH  27  28
HETATM   28  C   UNK N   1      34.318  18.174   8.304  0.00  0.00     0.140 C 
HETATM   29  O   UNK N   1      35.051  19.150   8.342  0.00  0.00    -0.650 OA
BRANCH  28  30
HETATM   30  O   UNK N   1      34.092  17.461   9.422  0.00  0.00    -0.776 OA
HETATM   31  H   UNK N   1      33.330  17.627   9.941  0.00  0.00     0.167 HD
ENDBRANCH  28  30
ENDBRANCH  27  28
ENDBRANCH  26  27
ENDBRANCH  13  26
TORSDOF 7
ENDMDL
MODEL 6
REMARK VINA RESULT:      -7.3      2.019      2.803
REMARK  7 active torsions:
REMARK  status: ('A' for Active; 'I' for Inactive)
REMARK    1  A    between atoms: C_12  and  C_11 
REMARK    2  A    between atoms: C_21  and  C_11 
REMARK    3  A    between atoms: N_24  and  C_12 
REMARK    4  A    between atoms: C_15  and  N_23 
REMARK    5  A    between atoms: S_29  and  C_16 
REMARK    6  A    between atoms: O_26  and  C_21 
REMARK    7  A    between atoms: S_29  and  N_23 
ROOT
HETATM    1  C   UNK N   1      19.487  18.270   2.812  0.00  0.00     0.001 A 
HETATM    2  C   UNK N   1      20.160  19.505   2.965  0.00  0.00     0.002 A 
HETATM    3  C   UNK N   1      20.125  17.061   3.148  0.00  0.00     0.014 A 
HETATM    4  C   UNK N   1      21.477  19.544   3.458  0.00  0.00     0.030 A 
HETATM    5  C   UNK N   1      24.596  14.567   4.655  0.00  0.00     0.032 C 
HETATM    6  C   UNK N   1      24.686  16.080   4.922  0.00  0.00     0.060 C 
HETATM    7  C   UNK N   1      22.129  14.667   4.037  0.00  0.00     0.067 C 
HETATM    8  C   UNK N   1      23.202  13.965   4.903  0.00  0.00     0.098 C 
HETATM    9  C   UNK N   1      21.426  17.132   3.638  0.00  0.00    -0.001 A 
HETATM   10  C   UNK N   1      22.305  16.148   4.036  0.00  0.00    -0.021 A 
HETATM   11  C   UNK N   1      22.081  18.329   3.790  0.00  0.00     0.045 A 
HETATM   12  C   UNK N   1      23.464  16.790   4.420  0.00  0.00     0.019 A 
HETATM   13  N   UNK N   1      23.327  18.129   4.260  0.00  0.00    -0.349 N 
ENDROOT
BRANCH   8  14
HETATM   14  N   UNK N   1      22.878  13.996   6.359  0.00  0.00    -0.310 N 
HETATM   15  H   UNK N   1      22.708  14.900   6.798  0.00  0.00     0.172 HD
BRANCH  14  16
HETATM   16  S   UNK N   1      22.772  12.494   7.395  0.00  0.00     0.259 S 
HETATM   17  O   UNK N   1      21.937  13.446   8.261  0.00  0.00    -0.201 OA
HETATM   18  O   UNK N   1      24.237  12.931   7.537  0.00  0.00    -0.201 OA
BRANCH  16  19
HETATM   19  C   UNK N   1      23.064  12.239   9.233  0.00  0.00     0.079 A 
HETATM   20  C   UNK N   1      21.930  12.197  10.076  0.00  0.00     0.028 A 
HETATM   21  C   UNK N   1      22.068  12.095  11.464  0.00  0.00     0.044 A 
HETATM   22  C   UNK N   1      23.336  12.011  12.043  0.00  0.00     0.116 A 
HETATM   23  C   UNK N   1      24.472  12.024  11.238  0.00  0.00     0.044 A 
HETATM   24  F   UNK N   1      23.466  11.923  13.387  0.00  0.00    -0.206 F 
HETATM   25  C   UNK N   1      24.344  12.146   9.856  0.00  0.00     0.028 A 
ENDBRANCH  16  19
ENDBRANCH  14  16
ENDBRANCH   8  14
BRANCH  13  26
HETATM   26  C   UNK N   1      24.338  19.149   4.494  0.00  0.00     0.139 C 
BRANCH  26  27
HETATM   27  C   UNK N   1      25.296  19.169   3.311  0.00  0.00     0.130 C 
BRANCH  27  28
HETATM   28  C   UNK N   1      25.255  20.481   2.606  0.00  0.00     0.140 C 
HETATM   29  O   UNK N   1      24.199  20.915   2.175  0.00  0.00    -0.650 OA
BRANCH  28  30
HETATM   30  O   UNK N   1      26.394  21.170   2.410  0.00  0.00    -0.776 OA
HETATM   31  H   UNK N   1      26.638  21.856   2.999  0.00  0.00     0.167 HD
ENDBRANCH  28  30
ENDBRANCH  27  28
ENDBRANCH  26  27
ENDBRANCH  13  26
TORSDOF 7
ENDMDL
MODEL 7
REMARK VINA RESULT:      -7.2     14.631     16.907
REMARK  7 active torsions:
REMARK  status: ('A' for Active; 'I' for Inactive)
REMARK    1  A    between atoms: C_12  and  C_11 
REMARK    2  A    between atoms: C_21  and  C_11 
REMARK    3  A    between atoms: N_24  and  C_12 
REMARK    4  A    between atoms: C_15  and  N_23 
REMARK    5  A    between atoms: S_29  and  C_16 
REMARK    6  A    between atoms: O_26  and  C_21 
REMARK    7  A    between atoms: S_29  and  N_23 
ROOT
HETATM    1  C   UNK N   1      30.555  18.840  -9.159  0.00  0.00     0.001 A 
HETATM    2  C   UNK N   1      31.699  18.976  -8.338  0.00  0.00     0.002 A 
HETATM    3  C   UNK N   1      29.420  19.645  -8.943  0.00  0.00     0.014 A 
HETATM    4  C   UNK N   1      31.721  19.919  -7.295  0.00  0.00     0.030 A 
HETATM    5  C   UNK N   1      26.942  23.255  -5.891  0.00  0.00     0.032 C 
HETATM    6  C   UNK N   1      28.450  23.208  -5.585  0.00  0.00     0.060 C 
HETATM    7  C   UNK N   1      27.150  21.725  -7.915  0.00  0.00     0.067 C 
HETATM    8  C   UNK N   1      26.595  23.066  -7.378  0.00  0.00     0.098 C 
HETATM    9  C   UNK N   1      29.474  20.572  -7.907  0.00  0.00    -0.001 A 
HETATM   10  C   UNK N   1      28.543  21.478  -7.444  0.00  0.00    -0.021 A 
HETATM   11  C   UNK N   1      30.584  20.708  -7.110  0.00  0.00     0.045 A 
HETATM   12  C   UNK N   1      29.129  22.135  -6.382  0.00  0.00     0.019 A 
HETATM   13  N   UNK N   1      30.379  21.655  -6.173  0.00  0.00    -0.349 N 
ENDROOT
BRANCH   8  14
HETATM   14  N   UNK N   1      27.061  24.241  -8.170  0.00  0.00    -0.310 N 
HETATM   15  H   UNK N   1      27.831  24.108  -8.825  0.00  0.00     0.172 HD
BRANCH  14  16
HETATM   16  S   UNK N   1      26.321  25.906  -8.024  0.00  0.00     0.259 S 
HETATM   17  O   UNK N   1      27.673  26.180  -7.353  0.00  0.00    -0.201 OA
HETATM   18  O   UNK N   1      25.501  25.057  -7.043  0.00  0.00    -0.201 OA
BRANCH  16  19
HETATM   19  C   UNK N   1      26.174  27.067  -6.555  0.00  0.00     0.079 A 
HETATM   20  C   UNK N   1      27.170  28.057  -6.400  0.00  0.00     0.028 A 
HETATM   21  C   UNK N   1      27.177  28.904  -5.288  0.00  0.00     0.044 A 
HETATM   22  C   UNK N   1      26.180  28.799  -4.315  0.00  0.00     0.116 A 
HETATM   23  C   UNK N   1      25.170  27.852  -4.452  0.00  0.00     0.044 A 
HETATM   24  F   UNK N   1      26.197  29.614  -3.234  0.00  0.00    -0.206 F 
HETATM   25  C   UNK N   1      25.167  26.990  -5.546  0.00  0.00     0.028 A 
ENDBRANCH  16  19
ENDBRANCH  14  16
ENDBRANCH   8  14
BRANCH  13  26
HETATM   26  C   UNK N   1      31.302  22.039  -5.116  0.00  0.00     0.139 C 
BRANCH  26  27
HETATM   27  C   UNK N   1      31.094  21.115  -3.924  0.00  0.00     0.130 C 
BRANCH  27  28
HETATM   28  C   UNK N   1      31.661  21.705  -2.679  0.00  0.00     0.140 C 
HETATM   29  O   UNK N   1      31.165  22.707  -2.191  0.00  0.00    -0.650 OA
BRANCH  28  30
HETATM   30  O   UNK N   1      32.751  21.152  -2.114  0.00  0.00    -0.776 OA
HETATM   31  H   UNK N   1      32.686  20.728  -1.281  0.00  0.00     0.167 HD
ENDBRANCH  28  30
ENDBRANCH  27  28
ENDBRANCH  26  27
ENDBRANCH  13  26
TORSDOF 7
ENDMDL
MODEL 8
REMARK VINA RESULT:      -7.1      4.775      5.765
REMARK  7 active torsions:
REMARK  status: ('A' for Active; 'I' for Inactive)
REMARK    1  A    between atoms: C_12  and  C_11 
REMARK    2  A    between atoms: C_21  and  C_11 
REMARK    3  A    between atoms: N_24  and  C_12 
REMARK    4  A    between atoms: C_15  and  N_23 
REMARK    5  A    between atoms: S_29  and  C_16 
REMARK    6  A    between atoms: O_26  and  C_21 
REMARK    7  A    between atoms: S_29  and  N_23 
ROOT
HETATM    1  C   UNK N   1      22.313  14.078   3.416  0.00  0.00     0.001 A 
HETATM    2  C   UNK N   1      21.079  14.768   3.453  0.00  0.00     0.002 A 
HETATM    3  C   UNK N   1      23.529  14.781   3.524  0.00  0.00     0.014 A 
HETATM    4  C   UNK N   1      21.047  16.167   3.601  0.00  0.00     0.030 A 
HETATM    5  C   UNK N   1      26.036  19.487   3.744  0.00  0.00     0.032 C 
HETATM    6  C   UNK N   1      24.536  19.640   4.050  0.00  0.00     0.060 C 
HETATM    7  C   UNK N   1      25.937  16.943   3.769  0.00  0.00     0.067 C 
HETATM    8  C   UNK N   1      26.665  18.199   4.305  0.00  0.00     0.098 C 
HETATM    9  C   UNK N   1      23.465  16.162   3.675  0.00  0.00    -0.001 A 
HETATM   10  C   UNK N   1      24.455  17.113   3.793  0.00  0.00    -0.021 A 
HETATM   11  C   UNK N   1      22.268  16.834   3.715  0.00  0.00     0.045 A 
HETATM   12  C   UNK N   1      23.818  18.332   3.905  0.00  0.00     0.019 A 
HETATM   13  N   UNK N   1      22.475  18.159   3.847  0.00  0.00    -0.349 N 
ENDROOT
BRANCH   8  14
HETATM   14  N   UNK N   1      26.704  18.251   5.795  0.00  0.00    -0.310 N 
HETATM   15  H   UNK N   1      25.830  18.133   6.306  0.00  0.00     0.172 HD
BRANCH  14  16
HETATM   16  S   UNK N   1      28.240  18.516   6.749  0.00  0.00     0.259 S 
HETATM   17  O   UNK N   1      28.850  17.968   5.452  0.00  0.00    -0.201 OA
HETATM   18  O   UNK N   1      27.570  17.332   7.461  0.00  0.00    -0.201 OA
BRANCH  16  19
HETATM   19  C   UNK N   1      29.708  17.387   7.064  0.00  0.00     0.079 A 
HETATM   20  C   UNK N   1      30.007  16.412   6.086  0.00  0.00     0.028 A 
HETATM   21  C   UNK N   1      31.030  15.481   6.285  0.00  0.00     0.044 A 
HETATM   22  C   UNK N   1      31.793  15.511   7.455  0.00  0.00     0.116 A 
HETATM   23  C   UNK N   1      31.541  16.475   8.427  0.00  0.00     0.044 A 
HETATM   24  F   UNK N   1      32.776  14.601   7.649  0.00  0.00    -0.206 F 
HETATM   25  C   UNK N   1      30.510  17.393   8.245  0.00  0.00     0.028 A 
ENDBRANCH  16  19
ENDBRANCH  14  16
ENDBRANCH   8  14
BRANCH  13  26
HETATM   26  C   UNK N   1      21.455  19.196   3.867  0.00  0.00     0.139 C 
BRANCH  26  27
HETATM   27  C   UNK N   1      20.881  19.346   2.465  0.00  0.00     0.130 C 
BRANCH  27  28
HETATM   28  C   UNK N   1      21.322  20.623   1.836  0.00  0.00     0.140 C 
HETATM   29  O   UNK N   1      21.337  20.737   0.621  0.00  0.00    -0.650 OA
BRANCH  28  30
HETATM   30  O   UNK N   1      21.743  21.639   2.611  0.00  0.00    -0.776 OA
HETATM   31  H   UNK N   1      22.275  22.319   2.248  0.00  0.00     0.167 HD
ENDBRANCH  28  30
ENDBRANCH  27  28
ENDBRANCH  26  27
ENDBRANCH  13  26
TORSDOF 7
ENDMDL
MODEL 9
REMARK VINA RESULT:      -7.1      9.554     11.739
REMARK  7 active torsions:
REMARK  status: ('A' for Active; 'I' for Inactive)
REMARK    1  A    between atoms: C_12  and  C_11 
REMARK    2  A    between atoms: C_21  and  C_11 
REMARK    3  A    between atoms: N_24  and  C_12 
REMARK    4  A    between atoms: C_15  and  N_23 
REMARK    5  A    between atoms: S_29  and  C_16 
REMARK    6  A    between atoms: O_26  and  C_21 
REMARK    7  A    between atoms: S_29  and  N_23 
ROOT
HETATM    1  C   UNK N   1      29.784  14.551   4.956  0.00  0.00     0.001 A 
HETATM    2  C   UNK N   1      28.921  15.614   5.311  0.00  0.00     0.002 A 
HETATM    3  C   UNK N   1      31.034  14.403   5.588  0.00  0.00     0.014 A 
HETATM    4  C   UNK N   1      29.298  16.538   6.303  0.00  0.00     0.030 A 
HETATM    5  C   UNK N   1      34.680  16.393   8.938  0.00  0.00     0.032 C 
HETATM    6  C   UNK N   1      33.312  17.067   9.140  0.00  0.00     0.060 C 
HETATM    7  C   UNK N   1      33.751  14.636   7.348  0.00  0.00     0.067 C 
HETATM    8  C   UNK N   1      34.601  14.890   8.615  0.00  0.00     0.098 C 
HETATM    9  C   UNK N   1      31.376  15.329   6.568  0.00  0.00    -0.001 A 
HETATM   10  C   UNK N   1      32.507  15.459   7.344  0.00  0.00    -0.021 A 
HETATM   11  C   UNK N   1      30.539  16.360   6.917  0.00  0.00     0.045 A 
HETATM   12  C   UNK N   1      32.311  16.567   8.142  0.00  0.00     0.019 A 
HETATM   13  N   UNK N   1      31.105  17.125   7.871  0.00  0.00    -0.349 N 
ENDROOT
BRANCH   8  14
HETATM   14  N   UNK N   1      34.108  14.134   9.802  0.00  0.00    -0.310 N 
HETATM   15  H   UNK N   1      33.104  13.979   9.894  0.00  0.00     0.172 HD
BRANCH  14  16
HETATM   16  S   UNK N   1      35.211  13.471  11.099  0.00  0.00     0.259 S 
HETATM   17  O   UNK N   1      34.434  12.192  10.764  0.00  0.00    -0.201 OA
HETATM   18  O   UNK N   1      34.251  14.387  11.872  0.00  0.00    -0.201 OA
BRANCH  16  19
HETATM   19  C   UNK N   1      34.844  12.432  12.620  0.00  0.00     0.079 A 
HETATM   20  C   UNK N   1      35.157  12.985  13.882  0.00  0.00     0.028 A 
HETATM   21  C   UNK N   1      34.992  12.242  15.055  0.00  0.00     0.044 A 
HETATM   22  C   UNK N   1      34.491  10.939  15.001  0.00  0.00     0.116 A 
HETATM   23  C   UNK N   1      34.148  10.375  13.775  0.00  0.00     0.044 A 
HETATM   24  F   UNK N   1      34.343  10.220  16.138  0.00  0.00    -0.206 F 
HETATM   25  C   UNK N   1      34.330  11.101  12.600  0.00  0.00     0.028 A 
ENDBRANCH  16  19
ENDBRANCH  14  16
ENDBRANCH   8  14
BRANCH  13  26
HETATM   26  C   UNK N   1      30.548  18.338   8.451  0.00  0.00     0.139 C 
BRANCH  26  27
HETATM   27  C   UNK N   1      29.782  17.971   9.713  0.00  0.00     0.130 C 
BRANCH  27  28
HETATM   28  C   UNK N   1      28.324  17.830   9.438  0.00  0.00     0.140 C 
HETATM   29  O   UNK N   1      27.729  16.820   9.776  0.00  0.00    -0.650 OA
BRANCH  28  30
HETATM   30  O   UNK N   1      27.672  18.804   8.777  0.00  0.00    -0.776 OA
HETATM   31  H   UNK N   1      27.994  19.684   8.796  0.00  0.00     0.167 HD
ENDBRANCH  28  30
ENDBRANCH  27  28
ENDBRANCH  26  27
ENDBRANCH  13  26
TORSDOF 7
ENDMDL
