MODEL 1
REMARK VINA RESULT:      -8.4      0.000      0.000
REMARK  5 active torsions:
REMARK  status: ('A' for Active; 'I' for Inactive)
REMARK    1  A    between atoms: N_8  and  C_11 
REMARK    2  A    between atoms: C_11  and  C_12 
REMARK    3  A    between atoms: N_15  and  C_18 
REMARK    4  A    between atoms: C_18  and  C_19 
REMARK    5  A    between atoms: C_19  and  C_21 
ROOT
HETATM    1  C   UNK N   1      21.420  15.506   6.122  0.00  0.00     0.007 C 
HETATM    2  C   UNK N   1      20.810  15.362   4.735  0.00  0.00     0.026 C 
HETATM    3  C   UNK N   1      19.951  16.571   4.400  0.00  0.00     0.117 C 
HETATM    4  N   UNK N   1      20.698  17.822   4.550  0.00  0.00    -0.405 N 
HETATM    5  C   UNK N   1      21.250  18.038   5.893  0.00  0.00     0.117 C 
HETATM    6  C   UNK N   1      22.097  16.856   6.375  0.00  0.00     0.026 C 
ENDROOT
BRANCH   1   7
HETATM    7  C   UNK N   1      20.633  14.898   7.289  0.00  0.00     0.131 C 
BRANCH   7   8
HETATM    8  N   UNK N   1      21.409  14.354   8.388  0.00  0.00    -0.343 N 
HETATM    9  C   UNK N   1      22.828  14.032   8.330  0.00  0.00     0.165 A 
HETATM   10  C   UNK N   1      22.999  13.238   9.601  0.00  0.00    -0.025 A 
HETATM   11  C   UNK N   1      21.809  13.137  10.273  0.00  0.00     0.040 A 
HETATM   12  C   UNK N   1      24.150  12.613  10.078  0.00  0.00     0.010 A 
HETATM   13  C   UNK N   1      21.682  12.397  11.448  0.00  0.00     0.017 A 
HETATM   14  C   UNK N   1      20.832  13.843   9.498  0.00  0.00     0.254 A 
HETATM   15  C   UNK N   1      22.829  11.757  11.948  0.00  0.00     0.001 A 
HETATM   16  C   UNK N   1      24.060  11.867  11.267  0.00  0.00     0.001 A 
HETATM   17  O   UNK N   1      19.640  13.906   9.744  0.00  0.00    -0.267 OA
ENDBRANCH   7   8
ENDBRANCH   1   7
BRANCH   4  18
HETATM   18  C   UNK N   1      21.582  18.124   3.417  0.00  0.00     0.200 C 
BRANCH  18  19
HETATM   19  C   UNK N   1      22.215  19.497   3.389  0.00  0.00     0.176 C 
HETATM   20  O   UNK N   1      21.514  20.497   3.434  0.00  0.00    -0.291 OA
BRANCH  19  21
HETATM   21  C   UNK N   1      23.689  19.612   3.450  0.00  0.00     0.011 A 
HETATM   22  C   UNK N   1      24.368  20.583   2.695  0.00  0.00     0.018 A 
HETATM   23  C   UNK N   1      25.752  20.738   2.832  0.00  0.00     0.043 A 
HETATM   24  C   UNK N   1      26.465  19.915   3.710  0.00  0.00     0.116 A 
HETATM   25  C   UNK N   1      25.799  18.930   4.441  0.00  0.00     0.043 A 
HETATM   26  F   UNK N   1      27.801  20.078   3.864  0.00  0.00    -0.206 F 
HETATM   27  C   UNK N   1      24.416  18.787   4.319  0.00  0.00     0.018 A 
ENDBRANCH  19  21
ENDBRANCH  18  19
ENDBRANCH   4  18
TORSDOF 5
ENDMDL
MODEL 2
REMARK VINA RESULT:      -7.9     12.004     14.113
REMARK  5 active torsions:
REMARK  status: ('A' for Active; 'I' for Inactive)
REMARK    1  A    between atoms: N_8  and  C_11 
REMARK    2  A    between atoms: C_11  and  C_12 
REMARK    3  A    between atoms: N_15  and  C_18 
REMARK    4  A    between atoms: C_18  and  C_19 
REMARK    5  A    between atoms: C_19  and  C_21 
ROOT
HETATM    1  C   UNK N   1      36.108  13.052  11.851  0.00  0.00     0.007 C 
HETATM    2  C   UNK N   1      35.051  14.124  12.076  0.00  0.00     0.026 C 
HETATM    3  C   UNK N   1      35.583  15.492  11.680  0.00  0.00     0.117 C 
HETATM    4  N   UNK N   1      36.093  15.496  10.307  0.00  0.00    -0.405 N 
HETATM    5  C   UNK N   1      37.164  14.523  10.058  0.00  0.00     0.117 C 
HETATM    6  C   UNK N   1      36.770  13.102  10.471  0.00  0.00     0.026 C 
ENDROOT
BRANCH   1   7
HETATM    7  C   UNK N   1      37.013  12.715  13.041  0.00  0.00     0.131 C 
BRANCH   7   8
HETATM    8  N   UNK N   1      36.376  12.617  14.341  0.00  0.00    -0.343 N 
HETATM    9  C   UNK N   1      36.016  13.750  15.183  0.00  0.00     0.165 A 
HETATM   10  C   UNK N   1      35.702  13.057  16.486  0.00  0.00    -0.025 A 
HETATM   11  C   UNK N   1      35.874  11.703  16.368  0.00  0.00     0.040 A 
HETATM   12  C   UNK N   1      35.334  13.634  17.701  0.00  0.00     0.010 A 
HETATM   13  C   UNK N   1      35.710  10.839  17.449  0.00  0.00     0.017 A 
HETATM   14  C   UNK N   1      36.293  11.453  15.020  0.00  0.00     0.254 A 
HETATM   15  C   UNK N   1      35.341  11.396  18.686  0.00  0.00     0.001 A 
HETATM   16  C   UNK N   1      35.150  12.789  18.810  0.00  0.00     0.001 A 
HETATM   17  O   UNK N   1      36.615  10.368  14.567  0.00  0.00    -0.267 OA
ENDBRANCH   7   8
ENDBRANCH   1   7
BRANCH   4  18
HETATM   18  C   UNK N   1      35.044  15.598   9.286  0.00  0.00     0.200 C 
BRANCH  18  19
HETATM   19  C   UNK N   1      34.608  16.992   8.887  0.00  0.00     0.176 C 
HETATM   20  O   UNK N   1      35.178  17.969   9.349  0.00  0.00    -0.291 OA
BRANCH  19  21
HETATM   21  C   UNK N   1      33.585  17.152   7.830  0.00  0.00     0.011 A 
HETATM   22  C   UNK N   1      33.958  17.320   6.487  0.00  0.00     0.018 A 
HETATM   23  C   UNK N   1      32.978  17.380   5.488  0.00  0.00     0.043 A 
HETATM   24  C   UNK N   1      31.624  17.288   5.829  0.00  0.00     0.116 A 
HETATM   25  C   UNK N   1      31.249  17.151   7.166  0.00  0.00     0.043 A 
HETATM   26  F   UNK N   1      30.675  17.322   4.864  0.00  0.00    -0.206 F 
HETATM   27  C   UNK N   1      32.225  17.073   8.160  0.00  0.00     0.018 A 
ENDBRANCH  19  21
ENDBRANCH  18  19
ENDBRANCH   4  18
TORSDOF 5
ENDMDL
MODEL 3
REMARK VINA RESULT:      -7.9      5.517      7.983
REMARK  5 active torsions:
REMARK  status: ('A' for Active; 'I' for Inactive)
REMARK    1  A    between atoms: N_8  and  C_11 
REMARK    2  A    between atoms: C_11  and  C_12 
REMARK    3  A    between atoms: N_15  and  C_18 
REMARK    4  A    between atoms: C_18  and  C_19 
REMARK    5  A    between atoms: C_19  and  C_21 
ROOT
HETATM    1  C   UNK N   1      27.215  17.288   6.029  0.00  0.00     0.007 C 
HETATM    2  C   UNK N   1      27.563  18.768   5.953  0.00  0.00     0.026 C 
HETATM    3  C   UNK N   1      27.532  19.252   4.513  0.00  0.00     0.117 C 
HETATM    4  N   UNK N   1      26.252  18.951   3.869  0.00  0.00    -0.405 N 
HETATM    5  C   UNK N   1      25.903  17.524   3.857  0.00  0.00     0.117 C 
HETATM    6  C   UNK N   1      25.953  16.898   5.254  0.00  0.00     0.026 C 
ENDROOT
BRANCH   1   7
HETATM    7  C   UNK N   1      28.387  16.301   5.984  0.00  0.00     0.131 C 
BRANCH   7   8
HETATM    8  N   UNK N   1      29.709  16.842   6.242  0.00  0.00    -0.343 N 
HETATM    9  C   UNK N   1      30.793  16.896   5.271  0.00  0.00     0.165 A 
HETATM   10  C   UNK N   1      31.963  17.243   6.159  0.00  0.00    -0.025 A 
HETATM   11  C   UNK N   1      31.562  17.360   7.464  0.00  0.00     0.040 A 
HETATM   12  C   UNK N   1      33.302  17.389   5.801  0.00  0.00     0.010 A 
HETATM   13  C   UNK N   1      32.464  17.613   8.496  0.00  0.00     0.017 A 
HETATM   14  C   UNK N   1      30.151  17.108   7.490  0.00  0.00     0.254 A 
HETATM   15  C   UNK N   1      33.821  17.762   8.161  0.00  0.00     0.001 A 
HETATM   16  C   UNK N   1      34.238  17.654   6.817  0.00  0.00     0.001 A 
HETATM   17  O   UNK N   1      29.459  17.050   8.492  0.00  0.00    -0.267 OA
ENDBRANCH   7   8
ENDBRANCH   1   7
BRANCH   4  18
HETATM   18  C   UNK N   1      25.178  19.889   4.218  0.00  0.00     0.200 C 
BRANCH  18  19
HETATM   19  C   UNK N   1      24.269  20.338   3.094  0.00  0.00     0.176 C 
HETATM   20  O   UNK N   1      24.730  20.938   2.135  0.00  0.00    -0.291 OA
BRANCH  19  21
HETATM   21  C   UNK N   1      22.850  19.920   3.106  0.00  0.00     0.011 A 
HETATM   22  C   UNK N   1      21.888  20.614   2.353  0.00  0.00     0.018 A 
HETATM   23  C   UNK N   1      20.567  20.152   2.303  0.00  0.00     0.043 A 
HETATM   24  C   UNK N   1      20.199  19.007   3.017  0.00  0.00     0.116 A 
HETATM   25  C   UNK N   1      21.144  18.331   3.789  0.00  0.00     0.043 A 
HETATM   26  F   UNK N   1      18.928  18.544   2.952  0.00  0.00    -0.206 F 
HETATM   27  C   UNK N   1      22.465  18.780   3.825  0.00  0.00     0.018 A 
ENDBRANCH  19  21
ENDBRANCH  18  19
ENDBRANCH   4  18
TORSDOF 5
ENDMDL
MODEL 4
REMARK VINA RESULT:      -7.8     11.389     13.397
REMARK  5 active torsions:
REMARK  status: ('A' for Active; 'I' for Inactive)
REMARK    1  A    between atoms: N_8  and  C_11 
REMARK    2  A    between atoms: C_11  and  C_12 
REMARK    3  A    between atoms: N_15  and  C_18 
REMARK    4  A    between atoms: C_18  and  C_19 
REMARK    5  A    between atoms: C_19  and  C_21 
ROOT
HETATM    1  C   UNK N   1      35.413  14.037  11.320  0.00  0.00     0.007 C 
HETATM    2  C   UNK N   1      34.987  15.460  11.651  0.00  0.00     0.026 C 
HETATM    3  C   UNK N   1      35.604  16.445  10.671  0.00  0.00     0.117 C 
HETATM    4  N   UNK N   1      35.305  16.086   9.284  0.00  0.00    -0.405 N 
HETATM    5  C   UNK N   1      35.758  14.744   8.896  0.00  0.00     0.117 C 
HETATM    6  C   UNK N   1      35.246  13.657   9.846  0.00  0.00     0.026 C 
ENDROOT
BRANCH   1   7
HETATM    7  C   UNK N   1      36.662  13.507  12.033  0.00  0.00     0.131 C 
BRANCH   7   8
HETATM    8  N   UNK N   1      36.475  12.971  13.369  0.00  0.00    -0.343 N 
HETATM    9  C   UNK N   1      36.000  11.628  13.671  0.00  0.00     0.165 A 
HETATM   10  C   UNK N   1      35.710  11.746  15.147  0.00  0.00    -0.025 A 
HETATM   11  C   UNK N   1      35.992  13.009  15.596  0.00  0.00     0.040 A 
HETATM   12  C   UNK N   1      35.180  10.779  16.000  0.00  0.00     0.010 A 
HETATM   13  C   UNK N   1      35.750  13.398  16.913  0.00  0.00     0.017 A 
HETATM   14  C   UNK N   1      36.469  13.755  14.469  0.00  0.00     0.254 A 
HETATM   15  C   UNK N   1      35.214  12.442  17.793  0.00  0.00     0.001 A 
HETATM   16  C   UNK N   1      34.933  11.136  17.339  0.00  0.00     0.001 A 
HETATM   17  O   UNK N   1      36.748  14.941  14.469  0.00  0.00    -0.267 OA
ENDBRANCH   7   8
ENDBRANCH   1   7
BRANCH   4  18
HETATM   18  C   UNK N   1      33.960  16.479   8.846  0.00  0.00     0.200 C 
BRANCH  18  19
HETATM   19  C   UNK N   1      33.868  17.605   7.840  0.00  0.00     0.176 C 
HETATM   20  O   UNK N   1      34.632  18.556   7.912  0.00  0.00    -0.291 OA
BRANCH  19  21
HETATM   21  C   UNK N   1      32.943  17.472   6.693  0.00  0.00     0.011 A 
HETATM   22  C   UNK N   1      33.414  17.570   5.373  0.00  0.00     0.018 A 
HETATM   23  C   UNK N   1      32.542  17.352   4.299  0.00  0.00     0.043 A 
HETATM   24  C   UNK N   1      31.197  17.053   4.538  0.00  0.00     0.116 A 
HETATM   25  C   UNK N   1      30.719  16.984   5.847  0.00  0.00     0.043 A 
HETATM   26  F   UNK N   1      30.357  16.818   3.502  0.00  0.00    -0.206 F 
HETATM   27  C   UNK N   1      31.590  17.182   6.919  0.00  0.00     0.018 A 
ENDBRANCH  19  21
ENDBRANCH  18  19
ENDBRANCH   4  18
TORSDOF 5
ENDMDL
MODEL 5
REMARK VINA RESULT:      -7.7     14.096     16.952
REMARK  5 active torsions:
REMARK  status: ('A' for Active; 'I' for Inactive)
REMARK    1  A    between atoms: N_8  and  C_11 
REMARK    2  A    between atoms: C_11  and  C_12 
REMARK    3  A    between atoms: N_15  and  C_18 
REMARK    4  A    between atoms: C_18  and  C_19 
REMARK    5  A    between atoms: C_19  and  C_21 
ROOT
HETATM    1  C   UNK N   1      26.401  24.008  -5.736  0.00  0.00     0.007 C 
HETATM    2  C   UNK N   1      27.696  23.262  -6.024  0.00  0.00     0.026 C 
HETATM    3  C   UNK N   1      28.868  23.934  -5.329  0.00  0.00     0.117 C 
HETATM    4  N   UNK N   1      28.626  24.091  -3.893  0.00  0.00    -0.405 N 
HETATM    5  C   UNK N   1      27.421  24.864  -3.564  0.00  0.00     0.117 C 
HETATM    6  C   UNK N   1      26.169  24.316  -4.254  0.00  0.00     0.026 C 
ENDROOT
BRANCH   1   7
HETATM    7  C   UNK N   1      25.991  25.091  -6.740  0.00  0.00     0.131 C 
BRANCH   7   8
HETATM    8  N   UNK N   1      26.525  26.423  -6.521  0.00  0.00    -0.343 N 
HETATM    9  C   UNK N   1      27.881  26.843  -6.848  0.00  0.00     0.165 A 
HETATM   10  C   UNK N   1      27.956  28.169  -6.131  0.00  0.00    -0.025 A 
HETATM   11  C   UNK N   1      26.778  28.438  -5.486  0.00  0.00     0.040 A 
HETATM   12  C   UNK N   1      29.043  29.037  -6.039  0.00  0.00     0.010 A 
HETATM   13  C   UNK N   1      26.609  29.573  -4.695  0.00  0.00     0.017 A 
HETATM   14  C   UNK N   1      25.901  27.335  -5.745  0.00  0.00     0.254 A 
HETATM   15  C   UNK N   1      27.691  30.464  -4.585  0.00  0.00     0.001 A 
HETATM   16  C   UNK N   1      28.903  30.199  -5.257  0.00  0.00     0.001 A 
HETATM   17  O   UNK N   1      24.787  27.186  -5.271  0.00  0.00    -0.267 OA
ENDBRANCH   7   8
ENDBRANCH   1   7
BRANCH   4  18
HETATM   18  C   UNK N   1      28.857  22.866  -3.116  0.00  0.00     0.200 C 
BRANCH  18  19
HETATM   19  C   UNK N   1      30.248  22.659  -2.560  0.00  0.00     0.176 C 
HETATM   20  O   UNK N   1      30.578  23.199  -1.514  0.00  0.00    -0.291 OA
BRANCH  19  21
HETATM   21  C   UNK N   1      31.150  21.689  -3.218  0.00  0.00     0.011 A 
HETATM   22  C   UNK N   1      30.696  20.886  -4.277  0.00  0.00     0.018 A 
HETATM   23  C   UNK N   1      31.586  20.039  -4.948  0.00  0.00     0.043 A 
HETATM   24  C   UNK N   1      32.926  19.978  -4.555  0.00  0.00     0.116 A 
HETATM   25  C   UNK N   1      33.376  20.753  -3.485  0.00  0.00     0.043 A 
HETATM   26  F   UNK N   1      33.795  19.178  -5.217  0.00  0.00    -0.206 F 
HETATM   27  C   UNK N   1      32.494  21.611  -2.826  0.00  0.00     0.018 A 
ENDBRANCH  19  21
ENDBRANCH  18  19
ENDBRANCH   4  18
TORSDOF 5
ENDMDL
MODEL 6
REMARK VINA RESULT:      -7.7     11.844     15.579
REMARK  5 active torsions:
REMARK  status: ('A' for Active; 'I' for Inactive)
REMARK    1  A    between atoms: N_8  and  C_11 
REMARK    2  A    between atoms: C_11  and  C_12 
REMARK    3  A    between atoms: N_15  and  C_18 
REMARK    4  A    between atoms: C_18  and  C_19 
REMARK    5  A    between atoms: C_19  and  C_21 
ROOT
HETATM    1  C   UNK N   1      34.442  14.498   9.997  0.00  0.00     0.007 C 
HETATM    2  C   UNK N   1      34.740  13.013  10.140  0.00  0.00     0.026 C 
HETATM    3  C   UNK N   1      36.095  12.799  10.795  0.00  0.00     0.117 C 
HETATM    4  N   UNK N   1      36.196  13.509  12.071  0.00  0.00    -0.405 N 
HETATM    5  C   UNK N   1      35.982  14.959  11.974  0.00  0.00     0.117 C 
HETATM    6  C   UNK N   1      34.665  15.310  11.276  0.00  0.00     0.026 C 
ENDROOT
BRANCH   1   7
HETATM    7  C   UNK N   1      34.853  15.161   8.677  0.00  0.00     0.131 C 
BRANCH   7   8
HETATM    8  N   UNK N   1      33.822  15.893   7.964  0.00  0.00    -0.343 N 
HETATM    9  C   UNK N   1      32.418  15.948   8.350  0.00  0.00     0.165 A 
HETATM   10  C   UNK N   1      31.800  16.558   7.116  0.00  0.00    -0.025 A 
HETATM   11  C   UNK N   1      32.757  16.803   6.166  0.00  0.00     0.040 A 
HETATM   12  C   UNK N   1      30.454  16.820   6.867  0.00  0.00     0.010 A 
HETATM   13  C   UNK N   1      32.438  17.307   4.906  0.00  0.00     0.017 A 
HETATM   14  C   UNK N   1      34.010  16.382   6.720  0.00  0.00     0.254 A 
HETATM   15  C   UNK N   1      31.087  17.578   4.630  0.00  0.00     0.001 A 
HETATM   16  C   UNK N   1      30.098  17.339   5.608  0.00  0.00     0.001 A 
HETATM   17  O   UNK N   1      35.079  16.377   6.134  0.00  0.00    -0.267 OA
ENDBRANCH   7   8
ENDBRANCH   1   7
BRANCH   4  18
HETATM   18  C   UNK N   1      35.537  12.819  13.187  0.00  0.00     0.200 C 
BRANCH  18  19
HETATM   19  C   UNK N   1      36.360  12.596  14.437  0.00  0.00     0.176 C 
HETATM   20  O   UNK N   1      37.143  11.660  14.498  0.00  0.00    -0.291 OA
BRANCH  19  21
HETATM   21  C   UNK N   1      36.309  13.602  15.521  0.00  0.00     0.011 A 
HETATM   22  C   UNK N   1      35.462  13.426  16.628  0.00  0.00     0.018 A 
HETATM   23  C   UNK N   1      35.492  14.340  17.688  0.00  0.00     0.043 A 
HETATM   24  C   UNK N   1      36.354  15.440  17.640  0.00  0.00     0.116 A 
HETATM   25  C   UNK N   1      37.177  15.634  16.529  0.00  0.00     0.043 A 
HETATM   26  F   UNK N   1      36.403  16.313  18.674  0.00  0.00    -0.206 F 
HETATM   27  C   UNK N   1      37.161  14.714  15.480  0.00  0.00     0.018 A 
ENDBRANCH  19  21
ENDBRANCH  18  19
ENDBRANCH   4  18
TORSDOF 5
ENDMDL
MODEL 7
REMARK VINA RESULT:      -7.6     11.477     15.058
REMARK  5 active torsions:
REMARK  status: ('A' for Active; 'I' for Inactive)
REMARK    1  A    between atoms: N_8  and  C_11 
REMARK    2  A    between atoms: C_11  and  C_12 
REMARK    3  A    between atoms: N_15  and  C_18 
REMARK    4  A    between atoms: C_18  and  C_19 
REMARK    5  A    between atoms: C_19  and  C_21 
ROOT
HETATM    1  C   UNK N   1      34.300  16.122   9.858  0.00  0.00     0.007 C 
HETATM    2  C   UNK N   1      34.116  14.807   9.115  0.00  0.00     0.026 C 
HETATM    3  C   UNK N   1      35.461  14.229   8.708  0.00  0.00     0.117 C 
HETATM    4  N   UNK N   1      36.361  14.096   9.855  0.00  0.00    -0.405 N 
HETATM    5  C   UNK N   1      36.624  15.354  10.566  0.00  0.00     0.117 C 
HETATM    6  C   UNK N   1      35.336  16.068  10.985  0.00  0.00     0.026 C 
ENDROOT
BRANCH   1   7
HETATM    7  C   UNK N   1      34.260  17.402   9.016  0.00  0.00     0.131 C 
BRANCH   7   8
HETATM    8  N   UNK N   1      33.177  17.521   8.057  0.00  0.00    -0.343 N 
HETATM    9  C   UNK N   1      31.764  17.347   8.368  0.00  0.00     0.165 A 
HETATM   10  C   UNK N   1      31.169  17.270   6.983  0.00  0.00    -0.025 A 
HETATM   11  C   UNK N   1      32.145  17.386   6.029  0.00  0.00     0.040 A 
HETATM   12  C   UNK N   1      29.837  17.060   6.629  0.00  0.00     0.010 A 
HETATM   13  C   UNK N   1      31.866  17.283   4.667  0.00  0.00     0.017 A 
HETATM   14  C   UNK N   1      33.389  17.544   6.724  0.00  0.00     0.254 A 
HETATM   15  C   UNK N   1      30.531  17.069   4.284  0.00  0.00     0.001 A 
HETATM   16  C   UNK N   1      29.519  16.961   5.262  0.00  0.00     0.001 A 
HETATM   17  O   UNK N   1      34.490  17.601   6.204  0.00  0.00    -0.267 OA
ENDBRANCH   7   8
ENDBRANCH   1   7
BRANCH   4  18
HETATM   18  C   UNK N   1      36.094  12.913  10.683  0.00  0.00     0.200 C 
BRANCH  18  19
HETATM   19  C   UNK N   1      37.145  12.541  11.706  0.00  0.00     0.176 C 
HETATM   20  O   UNK N   1      38.309  12.394  11.364  0.00  0.00    -0.291 OA
BRANCH  19  21
HETATM   21  C   UNK N   1      36.774  12.497  13.137  0.00  0.00     0.011 A 
HETATM   22  C   UNK N   1      35.831  13.394  13.665  0.00  0.00     0.018 A 
HETATM   23  C   UNK N   1      35.424  13.280  15.000  0.00  0.00     0.043 A 
HETATM   24  C   UNK N   1      35.968  12.282  15.816  0.00  0.00     0.116 A 
HETATM   25  C   UNK N   1      36.927  11.408  15.303  0.00  0.00     0.043 A 
HETATM   26  F   UNK N   1      35.560  12.154  17.100  0.00  0.00    -0.206 F 
HETATM   27  C   UNK N   1      37.321  11.508  13.968  0.00  0.00     0.018 A 
ENDBRANCH  19  21
ENDBRANCH  18  19
ENDBRANCH   4  18
TORSDOF 5
ENDMDL
MODEL 8
REMARK VINA RESULT:      -7.6     10.716     12.708
REMARK  5 active torsions:
REMARK  status: ('A' for Active; 'I' for Inactive)
REMARK    1  A    between atoms: N_8  and  C_11 
REMARK    2  A    between atoms: C_11  and  C_12 
REMARK    3  A    between atoms: N_15  and  C_18 
REMARK    4  A    between atoms: C_18  and  C_19 
REMARK    5  A    between atoms: C_19  and  C_21 
ROOT
HETATM    1  C   UNK N   1      34.661  13.837  10.650  0.00  0.00     0.007 C 
HETATM    2  C   UNK N   1      34.179  15.253  10.931  0.00  0.00     0.026 C 
HETATM    3  C   UNK N   1      34.936  16.255  10.076  0.00  0.00     0.117 C 
HETATM    4  N   UNK N   1      34.861  15.917   8.653  0.00  0.00    -0.405 N 
HETATM    5  C   UNK N   1      35.377  14.582   8.322  0.00  0.00     0.117 C 
HETATM    6  C   UNK N   1      34.729  13.479   9.163  0.00  0.00     0.026 C 
ENDROOT
BRANCH   1   7
HETATM    7  C   UNK N   1      35.786  13.300  11.543  0.00  0.00     0.131 C 
BRANCH   7   8
HETATM    8  N   UNK N   1      35.412  12.867  12.877  0.00  0.00    -0.343 N 
HETATM    9  C   UNK N   1      35.769  13.556  14.110  0.00  0.00     0.165 A 
HETATM   10  C   UNK N   1      35.402  12.517  15.141  0.00  0.00    -0.025 A 
HETATM   11  C   UNK N   1      34.906  11.391  14.539  0.00  0.00     0.040 A 
HETATM   12  C   UNK N   1      35.561  12.584  16.524  0.00  0.00     0.010 A 
HETATM   13  C   UNK N   1      34.552  10.256  15.267  0.00  0.00     0.017 A 
HETATM   14  C   UNK N   1      34.920  11.634  13.126  0.00  0.00     0.254 A 
HETATM   15  C   UNK N   1      34.704  10.298  16.664  0.00  0.00     0.001 A 
HETATM   16  C   UNK N   1      35.203  11.460  17.291  0.00  0.00     0.001 A 
HETATM   17  O   UNK N   1      34.620  10.827  12.264  0.00  0.00    -0.267 OA
ENDBRANCH   7   8
ENDBRANCH   1   7
BRANCH   4  18
HETATM   18  C   UNK N   1      33.598  16.312   8.016  0.00  0.00     0.200 C 
BRANCH  18  19
HETATM   19  C   UNK N   1      33.679  17.358   6.926  0.00  0.00     0.176 C 
HETATM   20  O   UNK N   1      34.549  18.215   6.961  0.00  0.00    -0.291 OA
BRANCH  19  21
HETATM   21  C   UNK N   1      32.785  17.245   5.752  0.00  0.00     0.011 A 
HETATM   22  C   UNK N   1      33.306  17.247   4.448  0.00  0.00     0.018 A 
HETATM   23  C   UNK N   1      32.456  17.048   3.352  0.00  0.00     0.043 A 
HETATM   24  C   UNK N   1      31.085  16.865   3.554  0.00  0.00     0.116 A 
HETATM   25  C   UNK N   1      30.559  16.892   4.847  0.00  0.00     0.043 A 
HETATM   26  F   UNK N   1      30.263  16.650   2.499  0.00  0.00    -0.206 F 
HETATM   27  C   UNK N   1      31.407  17.071   5.940  0.00  0.00     0.018 A 
ENDBRANCH  19  21
ENDBRANCH  18  19
ENDBRANCH   4  18
TORSDOF 5
ENDMDL
MODEL 9
REMARK VINA RESULT:      -7.5     14.932     17.125
REMARK  5 active torsions:
REMARK  status: ('A' for Active; 'I' for Inactive)
REMARK    1  A    between atoms: N_8  and  C_11 
REMARK    2  A    between atoms: C_11  and  C_12 
REMARK    3  A    between atoms: N_15  and  C_18 
REMARK    4  A    between atoms: C_18  and  C_19 
REMARK    5  A    between atoms: C_19  and  C_21 
ROOT
HETATM    1  C   UNK N   1      26.759  23.156  -7.148  0.00  0.00     0.007 C 
HETATM    2  C   UNK N   1      26.437  21.761  -7.662  0.00  0.00     0.026 C 
HETATM    3  C   UNK N   1      27.460  21.324  -8.699  0.00  0.00     0.117 C 
HETATM    4  N   UNK N   1      28.827  21.423  -8.184  0.00  0.00    -0.405 N 
HETATM    5  C   UNK N   1      29.207  22.769  -7.736  0.00  0.00     0.117 C 
HETATM    6  C   UNK N   1      28.217  23.350  -6.723  0.00  0.00     0.026 C 
ENDROOT
BRANCH   1   7
HETATM    7  C   UNK N   1      26.087  24.330  -7.870  0.00  0.00     0.131 C 
BRANCH   7   8
HETATM    8  N   UNK N   1      26.104  25.613  -7.191  0.00  0.00    -0.343 N 
HETATM    9  C   UNK N   1      26.978  26.727  -7.531  0.00  0.00     0.165 A 
HETATM   10  C   UNK N   1      26.782  27.626  -6.335  0.00  0.00    -0.025 A 
HETATM   11  C   UNK N   1      25.905  27.065  -5.445  0.00  0.00     0.040 A 
HETATM   12  C   UNK N   1      27.403  28.845  -6.064  0.00  0.00     0.010 A 
HETATM   13  C   UNK N   1      25.602  27.666  -4.224  0.00  0.00     0.017 A 
HETATM   14  C   UNK N   1      25.494  25.810  -6.002  0.00  0.00     0.254 A 
HETATM   15  C   UNK N   1      26.216  28.894  -3.927  0.00  0.00     0.001 A 
HETATM   16  C   UNK N   1      27.111  29.484  -4.845  0.00  0.00     0.001 A 
HETATM   17  O   UNK N   1      24.773  24.993  -5.455  0.00  0.00    -0.267 OA
ENDBRANCH   7   8
ENDBRANCH   1   7
BRANCH   4  18
HETATM   18  C   UNK N   1      29.216  20.305  -7.315  0.00  0.00     0.200 C 
BRANCH  18  19
HETATM   19  C   UNK N   1      30.698  20.057  -7.140  0.00  0.00     0.176 C 
HETATM   20  O   UNK N   1      31.390  19.771  -8.105  0.00  0.00    -0.291 OA
BRANCH  19  21
HETATM   21  C   UNK N   1      31.318  20.302  -5.819  0.00  0.00     0.011 A 
HETATM   22  C   UNK N   1      32.663  19.972  -5.582  0.00  0.00     0.018 A 
HETATM   23  C   UNK N   1      33.259  20.293  -4.357  0.00  0.00     0.043 A 
HETATM   24  C   UNK N   1      32.513  20.928  -3.360  0.00  0.00     0.116 A 
HETATM   25  C   UNK N   1      31.168  21.231  -3.580  0.00  0.00     0.043 A 
HETATM   26  F   UNK N   1      33.093  21.261  -2.182  0.00  0.00    -0.206 F 
HETATM   27  C   UNK N   1      30.577  20.929  -4.807  0.00  0.00     0.018 A 
ENDBRANCH  19  21
ENDBRANCH  18  19
ENDBRANCH   4  18
TORSDOF 5
ENDMDL
