MODEL 1
REMARK VINA RESULT:      -8.4      0.000      0.000
REMARK  6 active torsions:
REMARK  status: ('A' for Active; 'I' for Inactive)
REMARK    1  A    between atoms: C_5  and  O_19 
REMARK    2  A    between atoms: C_7  and  N_8 
REMARK       I    between atoms: N_8  and  C_9 
REMARK    3  A    between atoms: C_9  and  C_11 
REMARK    4  A    between atoms: O_19  and  C_20 
REMARK    5  A    between atoms: C_26  and  N_31 
REMARK       I    between atoms: N_31  and  C_32 
REMARK    6  A    between atoms: C_32  and  C_34 
ROOT
HETATM    1  C   UNK N   1      28.966  14.792   2.652  0.00  0.00     0.050 C 
HETATM    2  C   UNK N   1      30.085  15.473   3.344  0.00  0.00    -0.035 A 
HETATM    3  C   UNK N   1      31.260  14.738   3.384  0.00  0.00     0.012 A 
HETATM    4  C   UNK N   1      32.393  15.243   3.989  0.00  0.00     0.038 A 
HETATM    5  C   UNK N   1      32.411  16.512   4.574  0.00  0.00     0.080 A 
HETATM    6  C   UNK N   1      31.226  17.264   4.553  0.00  0.00     0.067 A 
HETATM    7  C   UNK N   1      30.044  16.775   3.948  0.00  0.00     0.043 A 
ENDROOT
BRANCH   5   8
HETATM    8  O   UNK N   1      33.545  17.017   5.166  0.00  0.00    -0.293 OA
BRANCH   8   9
HETATM    9  C   UNK N   1      33.851  16.962   6.505  0.00  0.00     0.163 A 
HETATM   10  C   UNK N   1      33.419  17.976   7.392  0.00  0.00     0.061 A 
HETATM   11  C   UNK N   1      33.761  17.953   8.734  0.00  0.00     0.055 A 
HETATM   12  C   UNK N   1      34.526  16.896   9.154  0.00  0.00     0.128 A 
HETATM   13  N   UNK N   1      34.984  16.718  10.394  0.00  0.00    -0.326 N 
HETATM   14  N   UNK N   1      34.909  15.928   8.313  0.00  0.00    -0.245 N 
HETATM   15  C   UNK N   1      35.692  15.572  10.325  0.00  0.00     0.127 A 
ATOM     16  HN  UNK N   1      34.833  17.314  11.209  1.00  0.00     0.169 HD
HETATM   17  C   UNK N   1      35.652  15.057   9.024  0.00  0.00     0.167 A 
HETATM   18  N   UNK N   1      34.597  15.924   7.010  0.00  0.00    -0.272 N 
ATOM     19  HN  UNK N   1      34.908  15.165   6.404  1.00  0.00     0.189 HD
BRANCH  15  20
HETATM   20  N   UNK N   1      36.418  15.039  11.427  0.00  0.00    -0.312 N 
HETATM   21  C   UNK N   1      35.833  14.248  12.375  0.00  0.00     0.227 C 
HETATM   22  O   UNK N   1      34.637  13.992  12.329  0.00  0.00    -0.273 OA
HETATM   23  H   UNK N   1      37.377  15.249  11.509  0.00  0.00     0.170 HD
BRANCH  21  24
HETATM   24  C   UNK N   1      36.634  13.729  13.529  0.00  0.00     0.078 A 
HETATM   25  C   UNK N   1      36.614  14.737  14.668  0.00  0.00     0.015 A 
HETATM   26  C   UNK N   1      35.737  13.509  14.732  0.00  0.00     0.015 A 
ENDBRANCH  21  24
ENDBRANCH  15  20
ENDBRANCH   8   9
ENDBRANCH   5   8
BRANCH   7  27
HETATM   27  N   UNK N   1      28.903  17.650   4.004  0.00  0.00    -0.321 N 
HETATM   28  C   UNK N   1      27.769  17.670   4.763  0.00  0.00     0.274 C 
HETATM   29  O   UNK N   1      27.541  16.827   5.605  0.00  0.00    -0.266 OA
HETATM   30  H   UNK N   1      28.952  18.391   3.359  0.00  0.00     0.169 HD
BRANCH  28  31
HETATM   31  C   UNK N   1      26.788  18.754   4.561  0.00  0.00     0.120 A 
HETATM   32  C   UNK N   1      25.848  18.799   3.548  0.00  0.00     0.063 A 
HETATM   33  C   UNK N   1      25.181  19.990   3.773  0.00  0.00     0.024 A 
HETATM   34  N   UNK N   1      25.690  20.614   4.852  0.00  0.00    -0.303 N 
HETATM   35  C   UNK N   1      24.061  20.524   2.956  0.00  0.00     0.070 C 
HETATM   36  N   UNK N   1      26.665  19.860   5.326  0.00  0.00    -0.291 N 
ATOM     37  HN  UNK N   1      25.378  21.507   5.233  1.00  0.00     0.186 HD
HETATM   38  C   UNK N   1      27.449  20.223   6.496  0.00  0.00     0.178 C 
ENDBRANCH  28  31
ENDBRANCH   7  27
TORSDOF 6
ENDMDL
MODEL 2
REMARK VINA RESULT:      -8.4      2.860     11.585
REMARK  6 active torsions:
REMARK  status: ('A' for Active; 'I' for Inactive)
REMARK    1  A    between atoms: C_5  and  O_19 
REMARK    2  A    between atoms: C_7  and  N_8 
REMARK       I    between atoms: N_8  and  C_9 
REMARK    3  A    between atoms: C_9  and  C_11 
REMARK    4  A    between atoms: O_19  and  C_20 
REMARK    5  A    between atoms: C_26  and  N_31 
REMARK       I    between atoms: N_31  and  C_32 
REMARK    6  A    between atoms: C_32  and  C_34 
ROOT
HETATM    1  C   UNK N   1      37.958  11.774  11.856  0.00  0.00     0.050 C 
HETATM    2  C   UNK N   1      37.248  13.061  11.674  0.00  0.00    -0.035 A 
HETATM    3  C   UNK N   1      37.380  13.611  10.409  0.00  0.00     0.012 A 
HETATM    4  C   UNK N   1      36.771  14.806  10.086  0.00  0.00     0.038 A 
HETATM    5  C   UNK N   1      35.989  15.505  11.010  0.00  0.00     0.080 A 
HETATM    6  C   UNK N   1      35.856  14.969  12.300  0.00  0.00     0.067 A 
HETATM    7  C   UNK N   1      36.473  13.750  12.668  0.00  0.00     0.043 A 
ENDROOT
BRANCH   5   8
HETATM    8  O   UNK N   1      35.373  16.691  10.681  0.00  0.00    -0.293 OA
BRANCH   8   9
HETATM    9  C   UNK N   1      34.515  16.891   9.626  0.00  0.00     0.163 A 
HETATM   10  C   UNK N   1      34.733  17.938   8.700  0.00  0.00     0.061 A 
HETATM   11  C   UNK N   1      33.849  18.175   7.661  0.00  0.00     0.055 A 
HETATM   12  C   UNK N   1      32.766  17.340   7.573  0.00  0.00     0.128 A 
HETATM   13  N   UNK N   1      31.791  17.431   6.668  0.00  0.00    -0.326 N 
HETATM   14  N   UNK N   1      32.582  16.336   8.438  0.00  0.00    -0.245 N 
HETATM   15  C   UNK N   1      30.949  16.425   6.985  0.00  0.00     0.127 A 
ATOM     16  HN  UNK N   1      31.701  18.107   5.909  1.00  0.00     0.169 HD
HETATM   17  C   UNK N   1      31.433  15.721   8.094  0.00  0.00     0.167 A 
HETATM   18  N   UNK N   1      33.416  16.083   9.455  0.00  0.00    -0.272 N 
ATOM     19  HN  UNK N   1      33.239  15.306  10.092  1.00  0.00     0.189 HD
BRANCH  15  20
HETATM   20  N   UNK N   1      29.721  16.196   6.303  0.00  0.00    -0.312 N 
HETATM   21  C   UNK N   1      28.758  17.157   6.186  0.00  0.00     0.227 C 
HETATM   22  O   UNK N   1      28.903  18.258   6.702  0.00  0.00    -0.273 OA
HETATM   23  H   UNK N   1      29.560  15.312   5.900  0.00  0.00     0.170 HD
BRANCH  21  24
HETATM   24  C   UNK N   1      27.473  16.861   5.477  0.00  0.00     0.078 A 
HETATM   25  C   UNK N   1      27.549  17.353   4.040  0.00  0.00     0.015 A 
HETATM   26  C   UNK N   1      27.714  15.882   4.343  0.00  0.00     0.015 A 
ENDBRANCH  21  24
ENDBRANCH  15  20
ENDBRANCH   8   9
ENDBRANCH   5   8
BRANCH   7  27
HETATM   27  N   UNK N   1      36.255  13.321  14.023  0.00  0.00    -0.321 N 
HETATM   28  C   UNK N   1      35.242  12.651  14.648  0.00  0.00     0.274 C 
HETATM   29  O   UNK N   1      34.248  12.287  14.054  0.00  0.00    -0.266 OA
HETATM   30  H   UNK N   1      36.993  13.559  14.628  0.00  0.00     0.169 HD
BRANCH  28  31
HETATM   31  C   UNK N   1      35.357  12.355  16.089  0.00  0.00     0.120 A 
HETATM   32  C   UNK N   1      34.938  13.189  17.109  0.00  0.00     0.063 A 
HETATM   33  C   UNK N   1      35.260  12.487  18.257  0.00  0.00     0.024 A 
HETATM   34  N   UNK N   1      35.833  11.311  17.941  0.00  0.00    -0.303 N 
HETATM   35  C   UNK N   1      35.017  12.946  19.650  0.00  0.00     0.070 C 
HETATM   36  N   UNK N   1      35.890  11.236  16.624  0.00  0.00    -0.291 N 
ATOM     37  HN  UNK N   1      36.163  10.606  18.600  1.00  0.00     0.186 HD
HETATM   38  C   UNK N   1      36.453  10.095  15.919  0.00  0.00     0.178 C 
ENDBRANCH  28  31
ENDBRANCH   7  27
TORSDOF 6
ENDMDL
MODEL 3
REMARK VINA RESULT:      -8.2      4.407      7.580
REMARK  6 active torsions:
REMARK  status: ('A' for Active; 'I' for Inactive)
REMARK    1  A    between atoms: C_5  and  O_19 
REMARK    2  A    between atoms: C_7  and  N_8 
REMARK       I    between atoms: N_8  and  C_9 
REMARK    3  A    between atoms: C_9  and  C_11 
REMARK    4  A    between atoms: O_19  and  C_20 
REMARK    5  A    between atoms: C_26  and  N_31 
REMARK       I    between atoms: N_31  and  C_32 
REMARK    6  A    between atoms: C_32  and  C_34 
ROOT
HETATM    1  C   UNK N   1      20.692  19.404   3.216  0.00  0.00     0.050 C 
HETATM    2  C   UNK N   1      22.142  19.467   3.511  0.00  0.00    -0.035 A 
HETATM    3  C   UNK N   1      22.835  20.405   2.762  0.00  0.00     0.012 A 
HETATM    4  C   UNK N   1      24.193  20.585   2.929  0.00  0.00     0.038 A 
HETATM    5  C   UNK N   1      24.923  19.843   3.861  0.00  0.00     0.080 A 
HETATM    6  C   UNK N   1      24.239  18.880   4.619  0.00  0.00     0.067 A 
HETATM    7  C   UNK N   1      22.849  18.664   4.469  0.00  0.00     0.043 A 
ENDROOT
BRANCH   5   8
HETATM    8  O   UNK N   1      26.275  20.033   4.034  0.00  0.00    -0.293 OA
BRANCH   8   9
HETATM    9  C   UNK N   1      27.029  19.570   5.087  0.00  0.00     0.163 A 
HETATM   10  C   UNK N   1      26.950  20.180   6.361  0.00  0.00     0.061 A 
HETATM   11  C   UNK N   1      27.738  19.751   7.415  0.00  0.00     0.055 A 
HETATM   12  C   UNK N   1      28.585  18.703   7.161  0.00  0.00     0.128 A 
HETATM   13  N   UNK N   1      29.445  18.176   8.032  0.00  0.00    -0.326 N 
HETATM   14  N   UNK N   1      28.635  18.116   5.959  0.00  0.00    -0.245 N 
HETATM   15  C   UNK N   1      30.067  17.200   7.337  0.00  0.00     0.127 A 
ATOM     16  HN  UNK N   1      29.598  18.447   9.005  1.00  0.00     0.169 HD
HETATM   17  C   UNK N   1      29.567  17.145   6.030  0.00  0.00     0.167 A 
HETATM   18  N   UNK N   1      27.888  18.511   4.919  0.00  0.00    -0.272 N 
ATOM     19  HN  UNK N   1      27.956  18.034   4.020  1.00  0.00     0.189 HD
BRANCH  15  20
HETATM   20  N   UNK N   1      31.124  16.414   7.876  0.00  0.00    -0.312 N 
HETATM   21  C   UNK N   1      32.269  16.969   8.374  0.00  0.00     0.227 C 
HETATM   22  O   UNK N   1      32.445  18.181   8.342  0.00  0.00    -0.273 OA
HETATM   23  H   UNK N   1      31.026  15.435   7.892  0.00  0.00     0.170 HD
BRANCH  21  24
HETATM   24  C   UNK N   1      33.362  16.099   8.912  0.00  0.00     0.078 A 
HETATM   25  C   UNK N   1      34.557  16.129   7.972  0.00  0.00     0.015 A 
HETATM   26  C   UNK N   1      34.580  16.937   9.248  0.00  0.00     0.015 A 
ENDBRANCH  21  24
ENDBRANCH  15  20
ENDBRANCH   8   9
ENDBRANCH   5   8
BRANCH   7  27
HETATM   27  N   UNK N   1      22.279  17.643   5.306  0.00  0.00    -0.321 N 
HETATM   28  C   UNK N   1      21.426  17.667   6.372  0.00  0.00     0.274 C 
HETATM   29  O   UNK N   1      20.981  18.704   6.819  0.00  0.00    -0.266 OA
HETATM   30  H   UNK N   1      22.563  16.734   5.057  0.00  0.00     0.169 HD
BRANCH  28  31
HETATM   31  C   UNK N   1      21.026  16.393   7.001  0.00  0.00     0.120 A 
HETATM   32  C   UNK N   1      21.049  16.134   8.359  0.00  0.00     0.063 A 
HETATM   33  C   UNK N   1      20.597  14.829   8.450  0.00  0.00     0.024 A 
HETATM   34  N   UNK N   1      20.323  14.343   7.225  0.00  0.00    -0.303 N 
HETATM   35  C   UNK N   1      20.432  14.055   9.708  0.00  0.00     0.070 C 
HETATM   36  N   UNK N   1      20.584  15.295   6.350  0.00  0.00    -0.291 N 
ATOM     37  HN  UNK N   1      19.976  13.408   7.013  1.00  0.00     0.186 HD
HETATM   38  C   UNK N   1      20.405  15.126   4.917  0.00  0.00     0.178 C 
ENDBRANCH  28  31
ENDBRANCH   7  27
TORSDOF 6
ENDMDL
MODEL 4
REMARK VINA RESULT:      -8.0      2.266      3.650
REMARK  6 active torsions:
REMARK  status: ('A' for Active; 'I' for Inactive)
REMARK    1  A    between atoms: C_5  and  O_19 
REMARK    2  A    between atoms: C_7  and  N_8 
REMARK       I    between atoms: N_8  and  C_9 
REMARK    3  A    between atoms: C_9  and  C_11 
REMARK    4  A    between atoms: O_19  and  C_20 
REMARK    5  A    between atoms: C_26  and  N_31 
REMARK       I    between atoms: N_31  and  C_32 
REMARK    6  A    between atoms: C_32  and  C_34 
ROOT
HETATM    1  C   UNK N   1      27.873  18.453   8.449  0.00  0.00     0.050 C 
HETATM    2  C   UNK N   1      29.264  18.099   8.082  0.00  0.00    -0.035 A 
HETATM    3  C   UNK N   1      30.219  18.530   8.989  0.00  0.00     0.012 A 
HETATM    4  C   UNK N   1      31.559  18.270   8.787  0.00  0.00     0.038 A 
HETATM    5  C   UNK N   1      32.010  17.555   7.674  0.00  0.00     0.080 A 
HETATM    6  C   UNK N   1      31.057  17.122   6.739  0.00  0.00     0.067 A 
HETATM    7  C   UNK N   1      29.676  17.377   6.910  0.00  0.00     0.043 A 
ENDROOT
BRANCH   5   8
HETATM    8  O   UNK N   1      33.346  17.287   7.481  0.00  0.00    -0.293 OA
BRANCH   8   9
HETATM    9  C   UNK N   1      34.118  16.441   8.240  0.00  0.00     0.163 A 
HETATM   10  C   UNK N   1      34.605  15.225   7.706  0.00  0.00     0.061 A 
HETATM   11  C   UNK N   1      35.345  14.345   8.478  0.00  0.00     0.055 A 
HETATM   12  C   UNK N   1      35.587  14.718   9.774  0.00  0.00     0.128 A 
HETATM   13  N   UNK N   1      36.244  13.992  10.679  0.00  0.00    -0.326 N 
HETATM   14  N   UNK N   1      35.143  15.883  10.264  0.00  0.00    -0.245 N 
HETATM   15  C   UNK N   1      36.213  14.747  11.797  0.00  0.00     0.127 A 
ATOM     16  HN  UNK N   1      36.675  13.075  10.553  1.00  0.00     0.169 HD
HETATM   17  C   UNK N   1      35.528  15.943  11.554  0.00  0.00     0.167 A 
HETATM   18  N   UNK N   1      34.423  16.753   9.544  0.00  0.00    -0.272 N 
ATOM     19  HN  UNK N   1      34.106  17.631   9.956  1.00  0.00     0.189 HD
BRANCH  15  20
HETATM   20  N   UNK N   1      36.752  14.313  13.042  0.00  0.00    -0.312 N 
HETATM   21  C   UNK N   1      36.033  13.565  13.930  0.00  0.00     0.227 C 
HETATM   22  O   UNK N   1      34.869  13.264  13.700  0.00  0.00    -0.273 OA
HETATM   23  H   UNK N   1      37.677  14.562  13.270  0.00  0.00     0.170 HD
BRANCH  21  24
HETATM   24  C   UNK N   1      36.637  13.152  15.236  0.00  0.00     0.078 A 
HETATM   25  C   UNK N   1      36.726  14.350  16.168  0.00  0.00     0.015 A 
HETATM   26  C   UNK N   1      35.630  13.327  16.357  0.00  0.00     0.015 A 
ENDBRANCH  21  24
ENDBRANCH  15  20
ENDBRANCH   8   9
ENDBRANCH   5   8
BRANCH   7  27
HETATM   27  N   UNK N   1      28.813  16.879   5.873  0.00  0.00    -0.321 N 
HETATM   28  C   UNK N   1      28.216  17.453   4.788  0.00  0.00     0.274 C 
HETATM   29  O   UNK N   1      28.350  18.631   4.526  0.00  0.00    -0.266 OA
HETATM   30  H   UNK N   1      28.611  15.920   5.964  0.00  0.00     0.169 HD
BRANCH  28  31
HETATM   31  C   UNK N   1      27.384  16.619   3.899  0.00  0.00     0.120 A 
HETATM   32  C   UNK N   1      26.006  16.524   3.956  0.00  0.00     0.063 A 
HETATM   33  C   UNK N   1      25.698  15.632   2.944  0.00  0.00     0.024 A 
HETATM   34  N   UNK N   1      26.820  15.223   2.323  0.00  0.00    -0.303 N 
HETATM   35  C   UNK N   1      24.332  15.176   2.577  0.00  0.00     0.070 C 
HETATM   36  N   UNK N   1      27.841  15.825   2.907  0.00  0.00    -0.291 N 
ATOM     37  HN  UNK N   1      26.872  14.568   1.544  1.00  0.00     0.186 HD
HETATM   38  C   UNK N   1      29.221  15.620   2.497  0.00  0.00     0.178 C 
ENDBRANCH  28  31
ENDBRANCH   7  27
TORSDOF 6
ENDMDL
MODEL 5
REMARK VINA RESULT:      -8.0      1.673      2.234
REMARK  6 active torsions:
REMARK  status: ('A' for Active; 'I' for Inactive)
REMARK    1  A    between atoms: C_5  and  O_19 
REMARK    2  A    between atoms: C_7  and  N_8 
REMARK       I    between atoms: N_8  and  C_9 
REMARK    3  A    between atoms: C_9  and  C_11 
REMARK    4  A    between atoms: O_19  and  C_20 
REMARK    5  A    between atoms: C_26  and  N_31 
REMARK       I    between atoms: N_31  and  C_32 
REMARK    6  A    between atoms: C_32  and  C_34 
ROOT
HETATM    1  C   UNK N   1      30.010  14.510   3.588  0.00  0.00     0.050 C 
HETATM    2  C   UNK N   1      31.141  15.078   4.357  0.00  0.00    -0.035 A 
HETATM    3  C   UNK N   1      32.308  14.334   4.287  0.00  0.00     0.012 A 
HETATM    4  C   UNK N   1      33.450  14.740   4.947  0.00  0.00     0.038 A 
HETATM    5  C   UNK N   1      33.485  15.916   5.701  0.00  0.00     0.080 A 
HETATM    6  C   UNK N   1      32.308  16.675   5.792  0.00  0.00     0.067 A 
HETATM    7  C   UNK N   1      31.117  16.286   5.135  0.00  0.00     0.043 A 
ENDROOT
BRANCH   5   8
HETATM    8  O   UNK N   1      34.629  16.324   6.348  0.00  0.00    -0.293 OA
BRANCH   8   9
HETATM    9  C   UNK N   1      34.892  16.183   7.690  0.00  0.00     0.163 A 
HETATM   10  C   UNK N   1      34.638  17.240   8.596  0.00  0.00     0.061 A 
HETATM   11  C   UNK N   1      34.943  17.123   9.941  0.00  0.00     0.055 A 
HETATM   12  C   UNK N   1      35.490  15.934  10.346  0.00  0.00     0.128 A 
HETATM   13  N   UNK N   1      35.883  15.646  11.588  0.00  0.00    -0.326 N 
HETATM   14  N   UNK N   1      35.704  14.930   9.487  0.00  0.00    -0.245 N 
HETATM   15  C   UNK N   1      36.368  14.390  11.500  0.00  0.00     0.127 A 
ATOM     16  HN  UNK N   1      35.828  16.240  12.416  1.00  0.00     0.169 HD
HETATM   17  C   UNK N   1      36.259  13.921  10.186  0.00  0.00     0.167 A 
HETATM   18  N   UNK N   1      35.422  15.014   8.179  0.00  0.00    -0.272 N 
ATOM     19  HN  UNK N   1      35.600  14.224   7.559  1.00  0.00     0.189 HD
BRANCH  15  20
HETATM   20  N   UNK N   1      36.960  13.707  12.600  0.00  0.00    -0.312 N 
HETATM   21  C   UNK N   1      36.253  13.371  13.720  0.00  0.00     0.227 C 
HETATM   22  O   UNK N   1      35.074  13.681  13.835  0.00  0.00    -0.273 OA
HETATM   23  H   UNK N   1      37.914  13.468  12.551  0.00  0.00     0.170 HD
BRANCH  21  24
HETATM   24  C   UNK N   1      36.926  12.672  14.860  0.00  0.00     0.078 A 
HETATM   25  C   UNK N   1      36.443  11.233  14.942  0.00  0.00     0.015 A 
HETATM   26  C   UNK N   1      37.794  11.542  14.341  0.00  0.00     0.015 A 
ENDBRANCH  21  24
ENDBRANCH  15  20
ENDBRANCH   8   9
ENDBRANCH   5   8
BRANCH   7  27
HETATM   27  N   UNK N   1      29.986  17.155   5.319  0.00  0.00    -0.321 N 
HETATM   28  C   UNK N   1      29.143  17.395   6.366  0.00  0.00     0.274 C 
HETATM   29  O   UNK N   1      29.251  16.814   7.426  0.00  0.00    -0.266 OA
HETATM   30  H   UNK N   1      29.777  17.693   4.522  0.00  0.00     0.169 HD
BRANCH  28  31
HETATM   31  C   UNK N   1      28.069  18.394   6.209  0.00  0.00     0.120 A 
HETATM   32  C   UNK N   1      28.100  19.683   6.708  0.00  0.00     0.063 A 
HETATM   33  C   UNK N   1      26.885  20.216   6.314  0.00  0.00     0.024 A 
HETATM   34  N   UNK N   1      26.177  19.304   5.623  0.00  0.00    -0.303 N 
HETATM   35  C   UNK N   1      26.411  21.594   6.600  0.00  0.00     0.070 C 
HETATM   36  N   UNK N   1      26.899  18.200   5.562  0.00  0.00    -0.291 N 
ATOM     37  HN  UNK N   1      25.250  19.441   5.221  1.00  0.00     0.186 HD
HETATM   38  C   UNK N   1      26.446  16.993   4.889  0.00  0.00     0.178 C 
ENDBRANCH  28  31
ENDBRANCH   7  27
TORSDOF 6
ENDMDL
MODEL 6
REMARK VINA RESULT:      -8.0      3.062     11.576
REMARK  6 active torsions:
REMARK  status: ('A' for Active; 'I' for Inactive)
REMARK    1  A    between atoms: C_5  and  O_19 
REMARK    2  A    between atoms: C_7  and  N_8 
REMARK       I    between atoms: N_8  and  C_9 
REMARK    3  A    between atoms: C_9  and  C_11 
REMARK    4  A    between atoms: O_19  and  C_20 
REMARK    5  A    between atoms: C_26  and  N_31 
REMARK       I    between atoms: N_31  and  C_32 
REMARK    6  A    between atoms: C_32  and  C_34 
ROOT
HETATM    1  C   UNK N   1      34.943  10.234  12.764  0.00  0.00     0.050 C 
HETATM    2  C   UNK N   1      34.874  11.508  12.011  0.00  0.00    -0.035 A 
HETATM    3  C   UNK N   1      34.728  11.353  10.641  0.00  0.00     0.012 A 
HETATM    4  C   UNK N   1      34.644  12.449   9.808  0.00  0.00     0.038 A 
HETATM    5  C   UNK N   1      34.688  13.755  10.303  0.00  0.00     0.080 A 
HETATM    6  C   UNK N   1      34.847  13.930  11.686  0.00  0.00     0.067 A 
HETATM    7  C   UNK N   1      34.945  12.829  12.570  0.00  0.00     0.043 A 
ENDROOT
BRANCH   5   8
HETATM    8  O   UNK N   1      34.591  14.846   9.470  0.00  0.00    -0.293 OA
BRANCH   8   9
HETATM    9  C   UNK N   1      33.479  15.218   8.752  0.00  0.00     0.163 A 
HETATM   10  C   UNK N   1      33.227  14.677   7.470  0.00  0.00     0.061 A 
HETATM   11  C   UNK N   1      32.135  15.080   6.720  0.00  0.00     0.055 A 
HETATM   12  C   UNK N   1      31.312  16.018   7.288  0.00  0.00     0.128 A 
HETATM   13  N   UNK N   1      30.238  16.556   6.711  0.00  0.00    -0.326 N 
HETATM   14  N   UNK N   1      31.545  16.506   8.512  0.00  0.00    -0.245 N 
HETATM   15  C   UNK N   1      29.770  17.429   7.627  0.00  0.00     0.127 A 
ATOM     16  HN  UNK N   1      29.855  16.352   5.786  1.00  0.00     0.169 HD
HETATM   17  C   UNK N   1      30.577  17.408   8.770  0.00  0.00     0.167 A 
HETATM   18  N   UNK N   1      32.594  16.139   9.260  0.00  0.00    -0.272 N 
ATOM     19  HN  UNK N   1      32.733  16.535  10.190  1.00  0.00     0.189 HD
BRANCH  15  20
HETATM   20  N   UNK N   1      28.652  18.278   7.391  0.00  0.00    -0.312 N 
HETATM   21  C   UNK N   1      28.302  18.695   6.138  0.00  0.00     0.227 C 
HETATM   22  O   UNK N   1      28.966  18.377   5.160  0.00  0.00    -0.273 OA
HETATM   23  H   UNK N   1      28.113  18.576   8.159  0.00  0.00     0.170 HD
BRANCH  21  24
HETATM   24  C   UNK N   1      27.130  19.607   5.943  0.00  0.00     0.078 A 
HETATM   25  C   UNK N   1      27.573  21.055   6.071  0.00  0.00     0.015 A 
HETATM   26  C   UNK N   1      27.330  20.459   4.704  0.00  0.00     0.015 A 
ENDBRANCH  21  24
ENDBRANCH  15  20
ENDBRANCH   8   9
ENDBRANCH   5   8
BRANCH   7  27
HETATM   27  N   UNK N   1      35.110  13.155  13.961  0.00  0.00    -0.321 N 
HETATM   28  C   UNK N   1      36.146  13.030  14.841  0.00  0.00     0.274 C 
HETATM   29  O   UNK N   1      37.214  12.552  14.517  0.00  0.00    -0.266 OA
HETATM   30  H   UNK N   1      34.305  13.553  14.364  0.00  0.00     0.169 HD
BRANCH  28  31
HETATM   31  C   UNK N   1      35.969  13.495  16.231  0.00  0.00     0.120 A 
HETATM   32  C   UNK N   1      35.246  12.833  17.206  0.00  0.00     0.063 A 
HETATM   33  C   UNK N   1      35.369  13.652  18.315  0.00  0.00     0.024 A 
HETATM   34  N   UNK N   1      36.118  14.730  18.020  0.00  0.00    -0.303 N 
HETATM   35  C   UNK N   1      34.769  13.397  19.650  0.00  0.00     0.070 C 
HETATM   36  N   UNK N   1      36.480  14.631  16.754  0.00  0.00    -0.291 N 
ATOM     37  HN  UNK N   1      36.361  15.487  18.659  1.00  0.00     0.186 HD
HETATM   38  C   UNK N   1      37.302  15.626  16.084  0.00  0.00     0.178 C 
ENDBRANCH  28  31
ENDBRANCH   7  27
TORSDOF 6
ENDMDL
MODEL 7
REMARK VINA RESULT:      -7.9      1.999      3.035
REMARK  6 active torsions:
REMARK  status: ('A' for Active; 'I' for Inactive)
REMARK    1  A    between atoms: C_5  and  O_19 
REMARK    2  A    between atoms: C_7  and  N_8 
REMARK       I    between atoms: N_8  and  C_9 
REMARK    3  A    between atoms: C_9  and  C_11 
REMARK    4  A    between atoms: O_19  and  C_20 
REMARK    5  A    between atoms: C_26  and  N_31 
REMARK       I    between atoms: N_31  and  C_32 
REMARK    6  A    between atoms: C_32  and  C_34 
ROOT
HETATM    1  C   UNK N   1      31.843  17.071   3.101  0.00  0.00     0.050 C 
HETATM    2  C   UNK N   1      32.120  17.127   4.556  0.00  0.00    -0.035 A 
HETATM    3  C   UNK N   1      33.457  16.973   4.887  0.00  0.00     0.012 A 
HETATM    4  C   UNK N   1      33.871  17.008   6.202  0.00  0.00     0.038 A 
HETATM    5  C   UNK N   1      32.971  17.212   7.252  0.00  0.00     0.080 A 
HETATM    6  C   UNK N   1      31.612  17.358   6.935  0.00  0.00     0.067 A 
HETATM    7  C   UNK N   1      31.150  17.320   5.598  0.00  0.00     0.043 A 
ENDROOT
BRANCH   5   8
HETATM    8  O   UNK N   1      33.390  17.259   8.562  0.00  0.00    -0.293 OA
BRANCH   8   9
HETATM    9  C   UNK N   1      33.797  16.186   9.319  0.00  0.00     0.163 A 
HETATM   10  C   UNK N   1      33.426  14.866   8.969  0.00  0.00     0.061 A 
HETATM   11  C   UNK N   1      33.793  13.785   9.751  0.00  0.00     0.055 A 
HETATM   12  C   UNK N   1      34.538  14.059  10.869  0.00  0.00     0.128 A 
HETATM   13  N   UNK N   1      34.953  13.160  11.762  0.00  0.00    -0.326 N 
HETATM   14  N   UNK N   1      34.905  15.308  11.178  0.00  0.00    -0.245 N 
HETATM   15  C   UNK N   1      35.620  13.888  12.681  0.00  0.00     0.127 A 
ATOM     16  HN  UNK N   1      34.801  12.150  11.751  1.00  0.00     0.169 HD
HETATM   17  C   UNK N   1      35.605  15.242  12.328  0.00  0.00     0.167 A 
HETATM   18  N   UNK N   1      34.564  16.375  10.444  0.00  0.00    -0.272 N 
ATOM     19  HN  UNK N   1      34.866  17.311  10.715  1.00  0.00     0.189 HD
BRANCH  15  20
HETATM   20  N   UNK N   1      36.182  13.323  13.861  0.00  0.00    -0.312 N 
HETATM   21  C   UNK N   1      35.410  12.830  14.875  0.00  0.00     0.227 C 
HETATM   22  O   UNK N   1      34.188  12.888  14.821  0.00  0.00    -0.273 OA
HETATM   23  H   UNK N   1      37.162  13.287  13.949  0.00  0.00     0.170 HD
BRANCH  21  24
HETATM   24  C   UNK N   1      36.048  12.265  16.106  0.00  0.00     0.078 A 
HETATM   25  C   UNK N   1      35.413  10.927  16.451  0.00  0.00     0.015 A 
HETATM   26  C   UNK N   1      36.764  10.969  15.777  0.00  0.00     0.015 A 
ENDBRANCH  21  24
ENDBRANCH  15  20
ENDBRANCH   8   9
ENDBRANCH   5   8
BRANCH   7  27
HETATM   27  N   UNK N   1      29.732  17.479   5.419  0.00  0.00    -0.321 N 
HETATM   28  C   UNK N   1      28.744  16.660   4.953  0.00  0.00     0.274 C 
HETATM   29  O   UNK N   1      28.970  15.532   4.566  0.00  0.00    -0.266 OA
HETATM   30  H   UNK N   1      29.404  18.365   5.693  0.00  0.00     0.169 HD
BRANCH  28  31
HETATM   31  C   UNK N   1      27.354  17.157   4.922  0.00  0.00     0.120 A 
HETATM   32  C   UNK N   1      26.885  18.156   4.091  0.00  0.00     0.063 A 
HETATM   33  C   UNK N   1      25.548  18.265   4.433  0.00  0.00     0.024 A 
HETATM   34  N   UNK N   1      25.241  17.385   5.405  0.00  0.00    -0.303 N 
HETATM   35  C   UNK N   1      24.573  19.209   3.829  0.00  0.00     0.070 C 
HETATM   36  N   UNK N   1      26.341  16.715   5.698  0.00  0.00    -0.291 N 
ATOM     37  HN  UNK N   1      24.326  17.260   5.836  1.00  0.00     0.186 HD
HETATM   38  C   UNK N   1      26.388  15.675   6.713  0.00  0.00     0.178 C 
ENDBRANCH  28  31
ENDBRANCH   7  27
TORSDOF 6
ENDMDL
MODEL 8
REMARK VINA RESULT:      -7.8      2.422     10.990
REMARK  6 active torsions:
REMARK  status: ('A' for Active; 'I' for Inactive)
REMARK    1  A    between atoms: C_5  and  O_19 
REMARK    2  A    between atoms: C_7  and  N_8 
REMARK       I    between atoms: N_8  and  C_9 
REMARK    3  A    between atoms: C_9  and  C_11 
REMARK    4  A    between atoms: O_19  and  C_20 
REMARK    5  A    between atoms: C_26  and  N_31 
REMARK       I    between atoms: N_31  and  C_32 
REMARK    6  A    between atoms: C_32  and  C_34 
ROOT
HETATM    1  C   UNK N   1      35.520  11.120   9.214  0.00  0.00     0.050 C 
HETATM    2  C   UNK N   1      35.125  12.534   9.011  0.00  0.00    -0.035 A 
HETATM    3  C   UNK N   1      35.138  12.943   7.687  0.00  0.00     0.012 A 
HETATM    4  C   UNK N   1      34.788  14.231   7.339  0.00  0.00     0.038 A 
HETATM    5  C   UNK N   1      34.397  15.171   8.296  0.00  0.00     0.080 A 
HETATM    6  C   UNK N   1      34.391  14.777   9.642  0.00  0.00     0.067 A 
HETATM    7  C   UNK N   1      34.751  13.466  10.037  0.00  0.00     0.043 A 
ENDROOT
BRANCH   5   8
HETATM    8  O   UNK N   1      34.037  16.452   7.944  0.00  0.00    -0.293 OA
BRANCH   8   9
HETATM    9  C   UNK N   1      33.079  16.798   7.020  0.00  0.00     0.163 A 
HETATM   10  C   UNK N   1      33.440  17.178   5.706  0.00  0.00     0.061 A 
HETATM   11  C   UNK N   1      32.487  17.572   4.783  0.00  0.00     0.055 A 
HETATM   12  C   UNK N   1      31.183  17.563   5.205  0.00  0.00     0.128 A 
HETATM   13  N   UNK N   1      30.131  17.942   4.478  0.00  0.00    -0.326 N 
HETATM   14  N   UNK N   1      30.848  17.177   6.443  0.00  0.00    -0.245 N 
HETATM   15  C   UNK N   1      29.078  17.782   5.307  0.00  0.00     0.127 A 
ATOM     16  HN  UNK N   1      30.125  18.276   3.513  1.00  0.00     0.169 HD
HETATM   17  C   UNK N   1      29.510  17.297   6.547  0.00  0.00     0.167 A 
HETATM   18  N   UNK N   1      31.747  16.794   7.359  0.00  0.00    -0.272 N 
ATOM     19  HN  UNK N   1      31.448  16.506   8.291  1.00  0.00     0.189 HD
BRANCH  15  20
HETATM   20  N   UNK N   1      27.747  18.137   4.949  0.00  0.00    -0.312 N 
HETATM   21  C   UNK N   1      27.351  19.435   4.800  0.00  0.00     0.227 C 
HETATM   22  O   UNK N   1      28.129  20.358   5.005  0.00  0.00    -0.273 OA
HETATM   23  H   UNK N   1      27.089  17.419   4.803  0.00  0.00     0.170 HD
BRANCH  21  24
HETATM   24  C   UNK N   1      25.933  19.759   4.443  0.00  0.00     0.078 A 
HETATM   25  C   UNK N   1      25.859  20.241   3.002  0.00  0.00     0.015 A 
HETATM   26  C   UNK N   1      25.444  18.830   3.348  0.00  0.00     0.015 A 
ENDBRANCH  21  24
ENDBRANCH  15  20
ENDBRANCH   8   9
ENDBRANCH   5   8
BRANCH   7  27
HETATM   27  N   UNK N   1      34.704  13.201  11.449  0.00  0.00    -0.321 N 
HETATM   28  C   UNK N   1      35.661  13.019  12.406  0.00  0.00     0.274 C 
HETATM   29  O   UNK N   1      36.847  13.056  12.147  0.00  0.00    -0.266 OA
HETATM   30  H   UNK N   1      33.787  13.139  11.802  0.00  0.00     0.169 HD
BRANCH  28  31
HETATM   31  C   UNK N   1      35.247  12.776  13.801  0.00  0.00     0.120 A 
HETATM   32  C   UNK N   1      35.563  13.583  14.878  0.00  0.00     0.063 A 
HETATM   33  C   UNK N   1      34.963  12.945  15.951  0.00  0.00     0.024 A 
HETATM   34  N   UNK N   1      34.330  11.832  15.538  0.00  0.00    -0.303 N 
HETATM   35  C   UNK N   1      35.000  13.406  17.363  0.00  0.00     0.070 C 
HETATM   36  N   UNK N   1      34.505  11.733  14.233  0.00  0.00    -0.291 N 
ATOM     37  HN  UNK N   1      33.810  11.182  16.127  1.00  0.00     0.186 HD
HETATM   38  C   UNK N   1      33.958  10.644  13.441  0.00  0.00     0.178 C 
ENDBRANCH  28  31
ENDBRANCH   7  27
TORSDOF 6
ENDMDL
MODEL 9
REMARK VINA RESULT:      -7.8      3.107      6.274
REMARK  6 active torsions:
REMARK  status: ('A' for Active; 'I' for Inactive)
REMARK    1  A    between atoms: C_5  and  O_19 
REMARK    2  A    between atoms: C_7  and  N_8 
REMARK       I    between atoms: N_8  and  C_9 
REMARK    3  A    between atoms: C_9  and  C_11 
REMARK    4  A    between atoms: O_19  and  C_20 
REMARK    5  A    between atoms: C_26  and  N_31 
REMARK       I    between atoms: N_31  and  C_32 
REMARK    6  A    between atoms: C_32  and  C_34 
ROOT
HETATM    1  C   UNK N   1      35.625  14.129   5.049  0.00  0.00     0.050 C 
HETATM    2  C   UNK N   1      35.841  14.327   6.502  0.00  0.00    -0.035 A 
HETATM    3  C   UNK N   1      37.017  13.773   6.983  0.00  0.00     0.012 A 
HETATM    4  C   UNK N   1      37.359  13.881   8.315  0.00  0.00     0.038 A 
HETATM    5  C   UNK N   1      36.549  14.560   9.230  0.00  0.00     0.080 A 
HETATM    6  C   UNK N   1      35.349  15.116   8.761  0.00  0.00     0.067 A 
HETATM    7  C   UNK N   1      34.963  15.018   7.403  0.00  0.00     0.043 A 
ENDROOT
BRANCH   5   8
HETATM    8  O   UNK N   1      36.899  14.676  10.556  0.00  0.00    -0.293 OA
BRANCH   8   9
HETATM    9  C   UNK N   1      36.398  13.927  11.593  0.00  0.00     0.163 A 
HETATM   10  C   UNK N   1      35.483  12.874  11.354  0.00  0.00     0.061 A 
HETATM   11  C   UNK N   1      34.938  12.144  12.396  0.00  0.00     0.055 A 
HETATM   12  C   UNK N   1      35.337  12.487  13.662  0.00  0.00     0.128 A 
HETATM   13  N   UNK N   1      34.898  11.928  14.790  0.00  0.00    -0.326 N 
HETATM   14  N   UNK N   1      36.222  13.467  13.877  0.00  0.00    -0.245 N 
HETATM   15  C   UNK N   1      35.547  12.596  15.766  0.00  0.00     0.127 A 
ATOM     16  HN  UNK N   1      34.224  11.168  14.891  1.00  0.00     0.169 HD
HETATM   17  C   UNK N   1      36.389  13.566  15.211  0.00  0.00     0.167 A 
HETATM   18  N   UNK N   1      36.765  14.194  12.891  0.00  0.00    -0.272 N 
ATOM     19  HN  UNK N   1      37.438  14.932  13.099  1.00  0.00     0.189 HD
BRANCH  15  20
HETATM   20  N   UNK N   1      35.321  12.359  17.152  0.00  0.00    -0.312 N 
HETATM   21  C   UNK N   1      35.314  11.103  17.689  0.00  0.00     0.227 C 
HETATM   22  O   UNK N   1      35.471  10.116  16.981  0.00  0.00    -0.273 OA
HETATM   23  H   UNK N   1      35.164  13.130  17.744  0.00  0.00     0.170 HD
BRANCH  21  24
HETATM   24  C   UNK N   1      35.050  10.904  19.149  0.00  0.00     0.078 A 
HETATM   25  C   UNK N   1      36.366  10.812  19.905  0.00  0.00     0.015 A 
HETATM   26  C   UNK N   1      35.565  12.092  19.940  0.00  0.00     0.015 A 
ENDBRANCH  21  24
ENDBRANCH  15  20
ENDBRANCH   8   9
ENDBRANCH   5   8
BRANCH   7  27
HETATM   27  N   UNK N   1      33.707  15.630   7.063  0.00  0.00    -0.321 N 
HETATM   28  C   UNK N   1      33.360  16.851   6.559  0.00  0.00     0.274 C 
HETATM   29  O   UNK N   1      34.188  17.702   6.304  0.00  0.00    -0.266 OA
HETATM   30  H   UNK N   1      32.933  15.045   7.227  0.00  0.00     0.169 HD
BRANCH  28  31
HETATM   31  C   UNK N   1      31.937  17.149   6.311  0.00  0.00     0.120 A 
HETATM   32  C   UNK N   1      31.331  17.159   5.068  0.00  0.00     0.063 A 
HETATM   33  C   UNK N   1      30.017  17.492   5.348  0.00  0.00     0.024 A 
HETATM   34  N   UNK N   1      29.851  17.666   6.672  0.00  0.00    -0.303 N 
HETATM   35  C   UNK N   1      28.928  17.640   4.347  0.00  0.00     0.070 C 
HETATM   36  N   UNK N   1      31.018  17.457   7.252  0.00  0.00    -0.291 N 
ATOM     37  HN  UNK N   1      28.981  17.915   7.142  1.00  0.00     0.186 HD
HETATM   38  C   UNK N   1      31.220  17.560   8.688  0.00  0.00     0.178 C 
ENDBRANCH  28  31
ENDBRANCH   7  27
TORSDOF 6
ENDMDL
