REMARK  5 active torsions:
REMARK  status: ('A' for Active; 'I' for Inactive)
REMARK    1  A    between atoms: C_3  and  O_26 
REMARK    2  A    between atoms: C_10  and  C_19 
REMARK    3  A    between atoms: C_11  and  C_12 
REMARK    4  A    between atoms: C_15  and  O_18 
REMARK    5  A    between atoms: C_22  and  O_25 
ROOT
HETATM    1  C   UNK N   1      -1.011   2.845  -0.360  0.00  0.00     0.054 C 
HETATM    2  C   UNK N   1      -1.055   1.385  -0.044  0.00  0.00     0.005 A 
HETATM    3  C   UNK N   1      -2.289   0.751   0.178  0.00  0.00     0.074 A 
HETATM    4  C   UNK N   1      -2.330  -0.611   0.477  0.00  0.00     0.038 A 
HETATM    5  C   UNK N   1      -1.149  -1.350   0.558  0.00  0.00     0.013 A 
HETATM    6  C   UNK N   1       0.092  -0.734   0.331  0.00  0.00    -0.015 A 
HETATM    7  C   UNK N   1       0.136   0.644   0.031  0.00  0.00     0.084 A 
HETATM    8  O   UNK N   1       1.326   1.258  -0.199  0.00  0.00    -0.349 OA
HETATM    9  C   UNK N   1       2.549   0.630  -0.050  0.00  0.00     0.186 C 
HETATM   10  C   UNK N   1       2.487  -0.853  -0.453  0.00  0.00     0.056 C 
HETATM   11  C   UNK N   1       1.389  -1.520   0.406  0.00  0.00     0.065 C 
ENDROOT
BRANCH  10  12
HETATM   12  C   UNK N   1       3.840  -1.526  -0.310  0.00  0.00    -0.051 A 
HETATM   13  C   UNK N   1       4.919  -0.879   0.320  0.00  0.00     0.010 A 
HETATM   14  C   UNK N   1       6.159  -1.513   0.434  0.00  0.00     0.037 A 
HETATM   15  C   UNK N   1       6.337  -2.796  -0.086  0.00  0.00     0.065 A 
HETATM   16  C   UNK N   1       5.277  -3.444  -0.724  0.00  0.00     0.037 A 
HETATM   17  C   UNK N   1       4.036  -2.812  -0.837  0.00  0.00     0.010 A 
BRANCH  15  18
HETATM   18  O   UNK N   1       7.528  -3.406   0.026  0.00  0.00    -0.361 OA
HETATM   19  H   UNK N   1       7.575  -4.338   0.104  0.00  0.00     0.217 HD
ENDBRANCH  15  18
ENDBRANCH  10  12
BRANCH  11  20
HETATM   20  C   UNK N   1       1.208  -3.002   0.201  0.00  0.00    -0.049 A 
HETATM   21  C   UNK N   1       1.591  -3.879   1.222  0.00  0.00     0.011 A 
HETATM   22  C   UNK N   1       1.422  -5.257   1.067  0.00  0.00     0.037 A 
HETATM   23  C   UNK N   1       0.857  -5.764  -0.107  0.00  0.00     0.065 A 
HETATM   24  C   UNK N   1       0.472  -4.893  -1.131  0.00  0.00     0.037 A 
HETATM   25  C   UNK N   1       0.651  -3.513  -0.982  0.00  0.00     0.011 A 
BRANCH  23  26
HETATM   26  O   UNK N   1       0.684  -7.088  -0.249  0.00  0.00    -0.361 OA
HETATM   27  H   UNK N   1      -0.176  -7.445  -0.348  0.00  0.00     0.217 HD
ENDBRANCH  23  26
ENDBRANCH  11  20
BRANCH   3  28
HETATM   28  O   UNK N   1      -3.437   1.448   0.104  0.00  0.00    -0.360 OA
HETATM   29  H   UNK N   1      -3.417   2.383   0.053  0.00  0.00     0.217 HD
ENDBRANCH   3  28
TORSDOF 5
