MODEL 1
REMARK VINA RESULT:      -7.8      0.000      0.000
REMARK  7 active torsions:
REMARK  status: ('A' for Active; 'I' for Inactive)
REMARK    1  A    between atoms: C_4  and  O_8 
REMARK    2  A    between atoms: O_8  and  C_9 
REMARK    3  A    between atoms: N_12  and  C_15 
REMARK    4  A    between atoms: C_17  and  C_21 
REMARK    5  A    between atoms: N_25  and  C_28 
REMARK    6  A    between atoms: C_28  and  C_29 
REMARK    7  A    between atoms: C_29  and  O_31 
ROOT
HETATM    1  C   UNK N   1      26.852  18.836   3.755  0.00  0.00     0.126 A 
HETATM    2  C   UNK N   1      25.589  18.283   3.818  0.00  0.00     0.093 A 
HETATM    3  C   UNK N   1      24.776  19.373   3.594  0.00  0.00     0.148 A 
HETATM    4  O   UNK N   1      25.514  20.443   3.407  0.00  0.00    -0.232 OA
HETATM    5  N   UNK N   1      26.773  20.156   3.510  0.00  0.00    -0.244 N 
ATOM      6  HN  UNK N   1      27.554  20.806   3.421  1.00  0.00     0.196 HD
ENDROOT
BRANCH   1   7
HETATM    7  N   UNK N   1      28.064  18.168   4.035  0.00  0.00    -0.366 N 
HETATM    8  C   UNK N   1      28.328  16.846   3.517  0.00  0.00     0.127 C 
HETATM    9  C   UNK N   1      28.215  15.839   4.657  0.00  0.00     0.052 C 
HETATM   10  C   UNK N   1      29.017  16.277   5.888  0.00  0.00     0.132 C 
HETATM   11  C   UNK N   1      28.806  17.753   6.283  0.00  0.00     0.052 C 
HETATM   12  C   UNK N   1      28.911  18.684   5.073  0.00  0.00     0.127 C 
BRANCH  10  13
HETATM   13  O   UNK N   1      30.319  15.791   5.876  0.00  0.00    -0.344 OA
BRANCH  13  14
HETATM   14  C   UNK N   1      31.480  16.395   6.255  0.00  0.00     0.089 A 
HETATM   15  C   UNK N   1      32.353  16.870   5.265  0.00  0.00     0.044 A 
HETATM   16  C   UNK N   1      33.558  17.484   5.624  0.00  0.00     0.025 A 
HETATM   17 Br   UNK N   1      31.928  16.664   3.412  0.00  0.00    -0.048 Br
HETATM   18  C   UNK N   1      33.896  17.637   6.972  0.00  0.00     0.044 A 
HETATM   19  C   UNK N   1      33.028  17.178   7.962  0.00  0.00     0.119 A 
HETATM   20  C   UNK N   1      31.832  16.562   7.602  0.00  0.00     0.080 A 
HETATM   21  F   UNK N   1      33.345  17.323   9.270  0.00  0.00    -0.206 F 
ENDBRANCH  13  14
ENDBRANCH  10  13
ENDBRANCH   1   7
BRANCH   3  22
HETATM   22  C   UNK N   1      23.324  19.392   3.584  0.00  0.00     0.171 A 
HETATM   23  N   UNK N   1      22.517  18.594   4.312  0.00  0.00    -0.264 N 
HETATM   24  N   UNK N   1      21.285  18.918   3.949  0.00  0.00    -0.002 NA
ATOM     25  HN  UNK N   1      22.795  17.893   4.998  1.00  0.00     0.186 HD
HETATM   26  N   UNK N   1      21.349  19.875   3.039  0.00  0.00    -0.206 N 
HETATM   27  N   UNK N   1      22.603  20.201   2.798  0.00  0.00    -0.267 N 
ATOM     28  HN  UNK N   1      22.948  20.912   2.153  1.00  0.00     0.190 HD
BRANCH  26  29
HETATM   29  C   UNK N   1      20.204  20.448   2.348  0.00  0.00     0.276 C 
BRANCH  29  30
HETATM   30  C   UNK N   1      20.609  21.062   1.032  0.00  0.00     0.161 C 
HETATM   31  O   UNK N   1      21.020  20.345   0.137  0.00  0.00    -0.649 OA
BRANCH  30  32
HETATM   32  O   UNK N   1      20.501  22.390   0.821  0.00  0.00    -0.775 OA
HETATM   33  H   UNK N   1      20.879  22.867   0.108  0.00  0.00     0.167 HD
ENDBRANCH  30  32
ENDBRANCH  29  30
ENDBRANCH  26  29
ENDBRANCH   3  22
TORSDOF 7
ENDMDL
MODEL 2
REMARK VINA RESULT:      -7.8     10.322     14.238
REMARK  7 active torsions:
REMARK  status: ('A' for Active; 'I' for Inactive)
REMARK    1  A    between atoms: C_4  and  O_8 
REMARK    2  A    between atoms: O_8  and  C_9 
REMARK    3  A    between atoms: N_12  and  C_15 
REMARK    4  A    between atoms: C_17  and  C_21 
REMARK    5  A    between atoms: N_25  and  C_28 
REMARK    6  A    between atoms: C_28  and  C_29 
REMARK    7  A    between atoms: C_29  and  O_31 
ROOT
HETATM    1  C   UNK N   1      35.942  13.737  13.133  0.00  0.00     0.126 A 
HETATM    2  C   UNK N   1      34.938  13.603  12.197  0.00  0.00     0.093 A 
HETATM    3  C   UNK N   1      34.936  14.838  11.583  0.00  0.00     0.148 A 
HETATM    4  O   UNK N   1      35.866  15.596  12.116  0.00  0.00    -0.232 OA
HETATM    5  N   UNK N   1      36.485  14.966  13.064  0.00  0.00    -0.244 N 
ATOM      6  HN  UNK N   1      37.239  15.331  13.645  1.00  0.00     0.196 HD
ENDROOT
BRANCH   1   7
HETATM    7  N   UNK N   1      36.285  12.791  14.123  0.00  0.00    -0.366 N 
HETATM    8  C   UNK N   1      35.862  11.414  14.020  0.00  0.00     0.127 C 
HETATM    9  C   UNK N   1      34.748  11.164  15.031  0.00  0.00     0.052 C 
HETATM   10  C   UNK N   1      35.117  11.677  16.428  0.00  0.00     0.132 C 
HETATM   11  C   UNK N   1      35.716  13.098  16.437  0.00  0.00     0.052 C 
HETATM   12  C   UNK N   1      36.805  13.261  15.375  0.00  0.00     0.127 C 
BRANCH  10  13
HETATM   13  O   UNK N   1      35.742  10.707  17.203  0.00  0.00    -0.344 OA
BRANCH  13  14
HETATM   14  C   UNK N   1      35.237   9.563  17.744  0.00  0.00     0.089 A 
HETATM   15  C   UNK N   1      35.787   8.330  17.360  0.00  0.00     0.044 A 
HETATM   16  C   UNK N   1      35.280   7.138  17.890  0.00  0.00     0.025 A 
HETATM   17 Br   UNK N   1      37.215   8.253  16.091  0.00  0.00    -0.048 Br
HETATM   18  C   UNK N   1      34.230   7.167  18.812  0.00  0.00     0.044 A 
HETATM   19  C   UNK N   1      33.685   8.389  19.206  0.00  0.00     0.119 A 
HETATM   20  C   UNK N   1      34.187   9.574  18.673  0.00  0.00     0.080 A 
HETATM   21  F   UNK N   1      32.669   8.428  20.100  0.00  0.00    -0.206 F 
ENDBRANCH  13  14
ENDBRANCH  10  13
ENDBRANCH   1   7
BRANCH   3  22
HETATM   22  C   UNK N   1      34.046  15.287  10.527  0.00  0.00     0.171 A 
HETATM   23  N   UNK N   1      33.114  14.537   9.905  0.00  0.00    -0.264 N 
HETATM   24  N   UNK N   1      32.584  15.329   8.986  0.00  0.00    -0.002 NA
ATOM     25  HN  UNK N   1      32.869  13.567  10.101  1.00  0.00     0.186 HD
HETATM   26  N   UNK N   1      33.172  16.512   9.055  0.00  0.00    -0.206 N 
HETATM   27  N   UNK N   1      34.079  16.522  10.010  0.00  0.00    -0.267 N 
ATOM     28  HN  UNK N   1      34.677  17.299  10.295  1.00  0.00     0.190 HD
BRANCH  26  29
HETATM   29  C   UNK N   1      32.910  17.629   8.161  0.00  0.00     0.276 C 
BRANCH  29  30
HETATM   30  C   UNK N   1      34.189  18.196   7.600  0.00  0.00     0.161 C 
HETATM   31  O   UNK N   1      34.542  17.882   6.477  0.00  0.00    -0.649 OA
BRANCH  30  32
HETATM   32  O   UNK N   1      34.937  19.063   8.312  0.00  0.00    -0.775 OA
HETATM   33  H   UNK N   1      34.700  19.942   8.533  0.00  0.00     0.167 HD
ENDBRANCH  30  32
ENDBRANCH  29  30
ENDBRANCH  26  29
ENDBRANCH   3  22
TORSDOF 7
ENDMDL
MODEL 3
REMARK VINA RESULT:      -7.6     10.104     14.152
REMARK  7 active torsions:
REMARK  status: ('A' for Active; 'I' for Inactive)
REMARK    1  A    between atoms: C_4  and  O_8 
REMARK    2  A    between atoms: O_8  and  C_9 
REMARK    3  A    between atoms: N_12  and  C_15 
REMARK    4  A    between atoms: C_17  and  C_21 
REMARK    5  A    between atoms: N_25  and  C_28 
REMARK    6  A    between atoms: C_28  and  C_29 
REMARK    7  A    between atoms: C_29  and  O_31 
ROOT
HETATM    1  C   UNK N   1      35.789  13.618  13.267  0.00  0.00     0.126 A 
HETATM    2  C   UNK N   1      34.760  13.549  12.350  0.00  0.00     0.093 A 
HETATM    3  C   UNK N   1      34.928  14.710  11.626  0.00  0.00     0.148 A 
HETATM    4  O   UNK N   1      35.967  15.368  12.084  0.00  0.00    -0.232 OA
HETATM    5  N   UNK N   1      36.504  14.742  13.083  0.00  0.00    -0.244 N 
ATOM      6  HN  UNK N   1      37.313  15.044  13.626  1.00  0.00     0.196 HD
ENDROOT
BRANCH   1   7
HETATM    7  N   UNK N   1      36.006  12.724  14.338  0.00  0.00    -0.366 N 
HETATM    8  C   UNK N   1      37.294  12.629  14.985  0.00  0.00     0.127 C 
HETATM    9  C   UNK N   1      37.963  11.326  14.560  0.00  0.00     0.052 C 
HETATM   10  C   UNK N   1      37.020  10.126  14.705  0.00  0.00     0.132 C 
HETATM   11  C   UNK N   1      35.608  10.363  14.134  0.00  0.00     0.052 C 
HETATM   12  C   UNK N   1      35.029  11.704  14.592  0.00  0.00     0.127 C 
BRANCH  10  13
HETATM   13  O   UNK N   1      37.120   9.518  15.951  0.00  0.00    -0.344 OA
BRANCH  13  14
HETATM   14  C   UNK N   1      36.246   9.520  16.996  0.00  0.00     0.089 A 
HETATM   15  C   UNK N   1      35.523   8.351  17.280  0.00  0.00     0.044 A 
HETATM   16  C   UNK N   1      34.609   8.328  18.339  0.00  0.00     0.025 A 
HETATM   17 Br   UNK N   1      35.751   6.782  16.211  0.00  0.00    -0.048 Br
HETATM   18  C   UNK N   1      34.417   9.465  19.128  0.00  0.00     0.044 A 
HETATM   19  C   UNK N   1      35.139  10.628  18.859  0.00  0.00     0.119 A 
HETATM   20  C   UNK N   1      36.044  10.650  17.801  0.00  0.00     0.080 A 
HETATM   21  F   UNK N   1      34.963  11.734  19.619  0.00  0.00    -0.206 F 
ENDBRANCH  13  14
ENDBRANCH  10  13
ENDBRANCH   1   7
BRANCH   3  22
HETATM   22  C   UNK N   1      34.096  15.188  10.536  0.00  0.00     0.171 A 
HETATM   23  N   UNK N   1      33.293  14.430   9.761  0.00  0.00    -0.264 N 
HETATM   24  N   UNK N   1      32.775  15.264   8.873  0.00  0.00    -0.002 NA
ATOM     25  HN  UNK N   1      33.121  13.428   9.844  1.00  0.00     0.186 HD
HETATM   26  N   UNK N   1      33.245  16.478   9.106  0.00  0.00    -0.206 N 
HETATM   27  N   UNK N   1      34.062  16.467  10.141  0.00  0.00    -0.267 N 
ATOM     28  HN  UNK N   1      34.559  17.258  10.550  1.00  0.00     0.190 HD
BRANCH  26  29
HETATM   29  C   UNK N   1      32.960  17.653   8.298  0.00  0.00     0.276 C 
BRANCH  29  30
HETATM   30  C   UNK N   1      34.215  18.206   7.672  0.00  0.00     0.161 C 
HETATM   31  O   UNK N   1      34.505  17.892   6.531  0.00  0.00    -0.649 OA
BRANCH  30  32
HETATM   32  O   UNK N   1      35.011  19.062   8.346  0.00  0.00    -0.775 OA
HETATM   33  H   UNK N   1      35.021  19.190   9.274  0.00  0.00     0.167 HD
ENDBRANCH  30  32
ENDBRANCH  29  30
ENDBRANCH  26  29
ENDBRANCH   3  22
TORSDOF 7
ENDMDL
MODEL 4
REMARK VINA RESULT:      -7.5      1.847      2.342
REMARK  7 active torsions:
REMARK  status: ('A' for Active; 'I' for Inactive)
REMARK    1  A    between atoms: C_4  and  O_8 
REMARK    2  A    between atoms: O_8  and  C_9 
REMARK    3  A    between atoms: N_12  and  C_15 
REMARK    4  A    between atoms: C_17  and  C_21 
REMARK    5  A    between atoms: N_25  and  C_28 
REMARK    6  A    between atoms: C_28  and  C_29 
REMARK    7  A    between atoms: C_29  and  O_31 
ROOT
HETATM    1  C   UNK N   1      25.000  16.437   5.201  0.00  0.00     0.126 A 
HETATM    2  C   UNK N   1      24.287  17.076   4.207  0.00  0.00     0.093 A 
HETATM    3  C   UNK N   1      23.000  17.053   4.702  0.00  0.00     0.148 A 
HETATM    4  O   UNK N   1      22.990  16.466   5.876  0.00  0.00    -0.232 OA
HETATM    5  N   UNK N   1      24.180  16.071   6.202  0.00  0.00    -0.244 N 
ATOM      6  HN  UNK N   1      24.445  15.577   7.055  1.00  0.00     0.196 HD
ENDROOT
BRANCH   1   7
HETATM    7  N   UNK N   1      26.365  16.084   5.145  0.00  0.00    -0.366 N 
HETATM    8  C   UNK N   1      27.118  15.808   6.346  0.00  0.00     0.127 C 
HETATM    9  C   UNK N   1      28.057  16.978   6.619  0.00  0.00     0.052 C 
HETATM   10  C   UNK N   1      28.856  17.372   5.372  0.00  0.00     0.132 C 
HETATM   11  C   UNK N   1      28.006  17.488   4.091  0.00  0.00     0.052 C 
HETATM   12  C   UNK N   1      27.078  16.284   3.915  0.00  0.00     0.127 C 
BRANCH  10  13
HETATM   13  O   UNK N   1      30.070  16.700   5.284  0.00  0.00    -0.344 OA
BRANCH  13  14
HETATM   14  C   UNK N   1      31.288  17.026   5.800  0.00  0.00     0.089 A 
HETATM   15  C   UNK N   1      32.374  17.192   4.926  0.00  0.00     0.044 A 
HETATM   16  C   UNK N   1      33.639  17.514   5.429  0.00  0.00     0.025 A 
HETATM   17 Br   UNK N   1      32.152  16.953   3.042  0.00  0.00    -0.048 Br
HETATM   18  C   UNK N   1      33.829  17.684   6.803  0.00  0.00     0.044 A 
HETATM   19  C   UNK N   1      32.752  17.531   7.677  0.00  0.00     0.119 A 
HETATM   20  C   UNK N   1      31.495  17.205   7.175  0.00  0.00     0.080 A 
HETATM   21  F   UNK N   1      32.925  17.696   9.010  0.00  0.00    -0.206 F 
ENDBRANCH  13  14
ENDBRANCH  10  13
ENDBRANCH   1   7
BRANCH   3  22
HETATM   22  C   UNK N   1      21.805  17.561   4.052  0.00  0.00     0.171 A 
HETATM   23  N   UNK N   1      20.677  16.863   3.812  0.00  0.00    -0.264 N 
HETATM   24  N   UNK N   1      19.881  17.697   3.160  0.00  0.00    -0.002 NA
ATOM     25  HN  UNK N   1      20.478  15.898   4.077  1.00  0.00     0.186 HD
HETATM   26  N   UNK N   1      20.506  18.854   3.016  0.00  0.00    -0.206 N 
HETATM   27  N   UNK N   1      21.701  18.806   3.570  0.00  0.00    -0.267 N 
ATOM     28  HN  UNK N   1      22.394  19.553   3.621  1.00  0.00     0.190 HD
BRANCH  26  29
HETATM   29  C   UNK N   1      19.982  20.001   2.292  0.00  0.00     0.276 C 
BRANCH  29  30
HETATM   30  C   UNK N   1      20.939  20.456   1.219  0.00  0.00     0.161 C 
HETATM   31  O   UNK N   1      22.064  20.805   1.529  0.00  0.00    -0.649 OA
BRANCH  30  32
HETATM   32  O   UNK N   1      20.578  20.460  -0.081  0.00  0.00    -0.775 OA
HETATM   33  H   UNK N   1      19.708  20.347  -0.410  0.00  0.00     0.167 HD
ENDBRANCH  30  32
ENDBRANCH  29  30
ENDBRANCH  26  29
ENDBRANCH   3  22
TORSDOF 7
ENDMDL
MODEL 5
REMARK VINA RESULT:      -7.5      7.042     12.723
REMARK  7 active torsions:
REMARK  status: ('A' for Active; 'I' for Inactive)
REMARK    1  A    between atoms: C_4  and  O_8 
REMARK    2  A    between atoms: O_8  and  C_9 
REMARK    3  A    between atoms: N_12  and  C_15 
REMARK    4  A    between atoms: C_17  and  C_21 
REMARK    5  A    between atoms: N_25  and  C_28 
REMARK    6  A    between atoms: C_28  and  C_29 
REMARK    7  A    between atoms: C_29  and  O_31 
ROOT
HETATM    1  C   UNK N   1      33.967  16.438   9.510  0.00  0.00     0.126 A 
HETATM    2  C   UNK N   1      33.881  15.168  10.044  0.00  0.00     0.093 A 
HETATM    3  C   UNK N   1      34.769  15.228  11.097  0.00  0.00     0.148 A 
HETATM    4  O   UNK N   1      35.298  16.427  11.160  0.00  0.00    -0.232 OA
HETATM    5  N   UNK N   1      34.844  17.180  10.209  0.00  0.00    -0.244 N 
ATOM      6  HN  UNK N   1      35.102  18.150  10.025  1.00  0.00     0.196 HD
ENDROOT
BRANCH   1   7
HETATM    7  N   UNK N   1      33.341  16.883   8.325  0.00  0.00    -0.366 N 
HETATM    8  C   UNK N   1      32.544  18.087   8.306  0.00  0.00     0.127 C 
HETATM    9  C   UNK N   1      31.071  17.702   8.218  0.00  0.00     0.052 C 
HETATM   10  C   UNK N   1      30.814  16.678   7.106  0.00  0.00     0.132 C 
HETATM   11  C   UNK N   1      31.810  15.502   7.092  0.00  0.00     0.052 C 
HETATM   12  C   UNK N   1      33.258  15.983   7.211  0.00  0.00     0.127 C 
BRANCH  10  13
HETATM   13  O   UNK N   1      30.506  17.279   5.891  0.00  0.00    -0.344 OA
BRANCH  13  14
HETATM   14  C   UNK N   1      29.292  17.552   5.335  0.00  0.00     0.089 A 
HETATM   15  C   UNK N   1      28.910  16.870   4.170  0.00  0.00     0.044 A 
HETATM   16  C   UNK N   1      27.674  17.139   3.570  0.00  0.00     0.025 A 
HETATM   17 Br   UNK N   1      30.076  15.586   3.366  0.00  0.00    -0.048 Br
HETATM   18  C   UNK N   1      26.809  18.081   4.132  0.00  0.00     0.044 A 
HETATM   19  C   UNK N   1      27.177  18.755   5.296  0.00  0.00     0.119 A 
HETATM   20  C   UNK N   1      28.409  18.490   5.889  0.00  0.00     0.080 A 
HETATM   21  F   UNK N   1      26.345  19.668   5.851  0.00  0.00    -0.206 F 
ENDBRANCH  13  14
ENDBRANCH  10  13
ENDBRANCH   1   7
BRANCH   3  22
HETATM   22  C   UNK N   1      35.119  14.151  12.006  0.00  0.00     0.171 A 
HETATM   23  N   UNK N   1      34.589  12.911  12.006  0.00  0.00    -0.264 N 
HETATM   24  N   UNK N   1      35.156  12.288  13.028  0.00  0.00    -0.002 NA
ATOM     25  HN  UNK N   1      33.900  12.533  11.356  1.00  0.00     0.186 HD
HETATM   26  N   UNK N   1      35.997  13.120  13.618  0.00  0.00    -0.206 N 
HETATM   27  N   UNK N   1      36.006  14.285  13.001  0.00  0.00    -0.267 N 
ATOM     28  HN  UNK N   1      36.564  15.107  13.229  1.00  0.00     0.190 HD
BRANCH  26  29
HETATM   29  C   UNK N   1      36.759  12.824  14.822  0.00  0.00     0.276 C 
BRANCH  29  30
HETATM   30  C   UNK N   1      36.773  14.000  15.765  0.00  0.00     0.161 C 
HETATM   31  O   UNK N   1      35.971  14.043  16.681  0.00  0.00    -0.649 OA
BRANCH  30  32
HETATM   32  O   UNK N   1      37.676  14.993  15.627  0.00  0.00    -0.775 OA
HETATM   33  H   UNK N   1      37.576  15.874  15.930  0.00  0.00     0.167 HD
ENDBRANCH  30  32
ENDBRANCH  29  30
ENDBRANCH  26  29
ENDBRANCH   3  22
TORSDOF 7
ENDMDL
MODEL 6
REMARK VINA RESULT:      -7.4      1.745      2.294
REMARK  7 active torsions:
REMARK  status: ('A' for Active; 'I' for Inactive)
REMARK    1  A    between atoms: C_4  and  O_8 
REMARK    2  A    between atoms: O_8  and  C_9 
REMARK    3  A    between atoms: N_12  and  C_15 
REMARK    4  A    between atoms: C_17  and  C_21 
REMARK    5  A    between atoms: N_25  and  C_28 
REMARK    6  A    between atoms: C_28  and  C_29 
REMARK    7  A    between atoms: C_29  and  O_31 
ROOT
HETATM    1  C   UNK N   1      26.315  17.181   5.147  0.00  0.00     0.126 A 
HETATM    2  C   UNK N   1      26.058  18.249   4.312  0.00  0.00     0.093 A 
HETATM    3  C   UNK N   1      24.690  18.387   4.418  0.00  0.00     0.148 A 
HETATM    4  O   UNK N   1      24.219  17.487   5.249  0.00  0.00    -0.232 OA
HETATM    5  N   UNK N   1      25.173  16.734   5.699  0.00  0.00    -0.244 N 
ATOM      6  HN  UNK N   1      25.076  15.952   6.348  1.00  0.00     0.196 HD
ENDROOT
BRANCH   1   7
HETATM    7  N   UNK N   1      27.562  16.542   5.315  0.00  0.00    -0.366 N 
HETATM    8  C   UNK N   1      28.125  16.332   6.629  0.00  0.00     0.127 C 
HETATM    9  C   UNK N   1      29.282  17.306   6.831  0.00  0.00     0.052 C 
HETATM   10  C   UNK N   1      30.254  17.292   5.646  0.00  0.00     0.132 C 
HETATM   11  C   UNK N   1      29.566  17.355   4.268  0.00  0.00     0.052 C 
HETATM   12  C   UNK N   1      28.405  16.363   4.167  0.00  0.00     0.127 C 
BRANCH  10  13
HETATM   13  O   UNK N   1      31.284  16.373   5.814  0.00  0.00    -0.344 OA
BRANCH  13  14
HETATM   14  C   UNK N   1      32.435  16.474   6.535  0.00  0.00     0.089 A 
HETATM   15  C   UNK N   1      33.191  15.316   6.774  0.00  0.00     0.044 A 
HETATM   16  C   UNK N   1      34.372  15.388   7.522  0.00  0.00     0.025 A 
HETATM   17 Br   UNK N   1      32.610  13.620   6.110  0.00  0.00    -0.048 Br
HETATM   18  C   UNK N   1      34.812  16.614   8.027  0.00  0.00     0.044 A 
HETATM   19  C   UNK N   1      34.073  17.771   7.783  0.00  0.00     0.119 A 
HETATM   20  C   UNK N   1      32.895  17.697   7.044  0.00  0.00     0.080 A 
HETATM   21  F   UNK N   1      34.492  18.965   8.266  0.00  0.00    -0.206 F 
ENDBRANCH  13  14
ENDBRANCH  10  13
ENDBRANCH   1   7
BRANCH   3  22
HETATM   22  C   UNK N   1      23.852  19.345   3.719  0.00  0.00     0.171 A 
HETATM   23  N   UNK N   1      24.236  20.561   3.280  0.00  0.00    -0.264 N 
HETATM   24  N   UNK N   1      23.148  21.104   2.757  0.00  0.00    -0.002 NA
ATOM     25  HN  UNK N   1      25.167  20.973   3.337  1.00  0.00     0.186 HD
HETATM   26  N   UNK N   1      22.147  20.247   2.874  0.00  0.00    -0.206 N 
HETATM   27  N   UNK N   1      22.555  19.138   3.459  0.00  0.00    -0.267 N 
ATOM     28  HN  UNK N   1      22.004  18.305   3.668  1.00  0.00     0.190 HD
BRANCH  26  29
HETATM   29  C   UNK N   1      20.772  20.508   2.479  0.00  0.00     0.276 C 
BRANCH  29  30
HETATM   30  C   UNK N   1      20.683  20.884   1.022  0.00  0.00     0.161 C 
HETATM   31  O   UNK N   1      20.619  22.059   0.709  0.00  0.00    -0.649 OA
BRANCH  30  32
HETATM   32  O   UNK N   1      20.696  19.941   0.057  0.00  0.00    -0.775 OA
HETATM   33  H   UNK N   1      21.279  19.208   0.012  0.00  0.00     0.167 HD
ENDBRANCH  30  32
ENDBRANCH  29  30
ENDBRANCH  26  29
ENDBRANCH   3  22
TORSDOF 7
ENDMDL
MODEL 7
REMARK VINA RESULT:      -7.4      7.294     12.689
REMARK  7 active torsions:
REMARK  status: ('A' for Active; 'I' for Inactive)
REMARK    1  A    between atoms: C_4  and  O_8 
REMARK    2  A    between atoms: O_8  and  C_9 
REMARK    3  A    between atoms: N_12  and  C_15 
REMARK    4  A    between atoms: C_17  and  C_21 
REMARK    5  A    between atoms: N_25  and  C_28 
REMARK    6  A    between atoms: C_28  and  C_29 
REMARK    7  A    between atoms: C_29  and  O_31 
ROOT
HETATM    1  C   UNK N   1      34.560  16.287   9.651  0.00  0.00     0.126 A 
HETATM    2  C   UNK N   1      34.810  14.980  10.017  0.00  0.00     0.093 A 
HETATM    3  C   UNK N   1      35.477  15.128  11.214  0.00  0.00     0.148 A 
HETATM    4  O   UNK N   1      35.582  16.403  11.506  0.00  0.00    -0.232 OA
HETATM    5  N   UNK N   1      35.049  17.132  10.577  0.00  0.00    -0.244 N 
ATOM      6  HN  UNK N   1      35.007  18.151  10.552  1.00  0.00     0.196 HD
ENDROOT
BRANCH   1   7
HETATM    7  N   UNK N   1      33.997  16.713   8.430  0.00  0.00    -0.366 N 
HETATM    8  C   UNK N   1      33.437  18.036   8.283  0.00  0.00     0.127 C 
HETATM    9  C   UNK N   1      31.916  17.927   8.247  0.00  0.00     0.052 C 
HETATM   10  C   UNK N   1      31.444  16.858   7.256  0.00  0.00     0.132 C 
HETATM   11  C   UNK N   1      32.203  15.520   7.365  0.00  0.00     0.052 C 
HETATM   12  C   UNK N   1      33.717  15.731   7.421  0.00  0.00     0.127 C 
BRANCH  10  13
HETATM   13  O   UNK N   1      31.220  17.373   5.984  0.00  0.00    -0.344 OA
BRANCH  13  14
HETATM   14  C   UNK N   1      30.309  17.003   5.040  0.00  0.00     0.089 A 
HETATM   15  C   UNK N   1      30.761  16.669   3.755  0.00  0.00     0.044 A 
HETATM   16  C   UNK N   1      29.848  16.297   2.762  0.00  0.00     0.025 A 
HETATM   17 Br   UNK N   1      32.623  16.741   3.328  0.00  0.00    -0.048 Br
HETATM   18  C   UNK N   1      28.481  16.246   3.046  0.00  0.00     0.044 A 
HETATM   19  C   UNK N   1      28.025  16.566   4.324  0.00  0.00     0.119 A 
HETATM   20  C   UNK N   1      28.935  16.941   5.310  0.00  0.00     0.080 A 
HETATM   21  F   UNK N   1      26.702  16.518   4.611  0.00  0.00    -0.206 F 
ENDBRANCH  13  14
ENDBRANCH  10  13
ENDBRANCH   1   7
BRANCH   3  22
HETATM   22  C   UNK N   1      36.022  14.070  12.047  0.00  0.00     0.171 A 
HETATM   23  N   UNK N   1      37.235  13.498  11.906  0.00  0.00    -0.264 N 
HETATM   24  N   UNK N   1      37.287  12.556  12.836  0.00  0.00    -0.002 NA
ATOM     25  HN  UNK N   1      37.959  13.740  11.229  1.00  0.00     0.186 HD
HETATM   26  N   UNK N   1      36.151  12.564  13.512  0.00  0.00    -0.206 N 
HETATM   27  N   UNK N   1      35.346  13.502  13.053  0.00  0.00    -0.267 N 
ATOM     28  HN  UNK N   1      34.413  13.742  13.389  1.00  0.00     0.190 HD
BRANCH  26  29
HETATM   29  C   UNK N   1      35.802  11.629  14.570  0.00  0.00     0.276 C 
BRANCH  29  30
HETATM   30  C   UNK N   1      34.369  11.802  15.005  0.00  0.00     0.161 C 
HETATM   31  O   UNK N   1      34.044  12.807  15.612  0.00  0.00    -0.649 OA
BRANCH  30  32
HETATM   32  O   UNK N   1      33.435  10.874  14.711  0.00  0.00    -0.775 OA
HETATM   33  H   UNK N   1      32.655  10.703  15.203  0.00  0.00     0.167 HD
ENDBRANCH  30  32
ENDBRANCH  29  30
ENDBRANCH  26  29
ENDBRANCH   3  22
TORSDOF 7
ENDMDL
MODEL 8
REMARK VINA RESULT:      -7.3      2.085      2.859
REMARK  7 active torsions:
REMARK  status: ('A' for Active; 'I' for Inactive)
REMARK    1  A    between atoms: C_4  and  O_8 
REMARK    2  A    between atoms: O_8  and  C_9 
REMARK    3  A    between atoms: N_12  and  C_15 
REMARK    4  A    between atoms: C_17  and  C_21 
REMARK    5  A    between atoms: N_25  and  C_28 
REMARK    6  A    between atoms: C_28  and  C_29 
REMARK    7  A    between atoms: C_29  and  O_31 
ROOT
HETATM    1  C   UNK N   1      28.100  18.069   5.011  0.00  0.00     0.126 A 
HETATM    2  C   UNK N   1      26.751  17.964   4.737  0.00  0.00     0.093 A 
HETATM    3  C   UNK N   1      26.490  19.144   4.073  0.00  0.00     0.148 A 
HETATM    4  O   UNK N   1      27.595  19.844   3.968  0.00  0.00    -0.232 OA
HETATM    5  N   UNK N   1      28.585  19.229   4.535  0.00  0.00    -0.244 N 
ATOM      6  HN  UNK N   1      29.547  19.561   4.606  1.00  0.00     0.196 HD
ENDROOT
BRANCH   1   7
HETATM    7  N   UNK N   1      28.859  17.170   5.790  0.00  0.00    -0.366 N 
HETATM    8  C   UNK N   1      28.793  17.188   7.233  0.00  0.00     0.127 C 
HETATM    9  C   UNK N   1      30.081  17.797   7.777  0.00  0.00     0.052 C 
HETATM   10  C   UNK N   1      31.324  17.162   7.145  0.00  0.00     0.132 C 
HETATM   11  C   UNK N   1      31.251  17.026   5.611  0.00  0.00     0.052 C 
HETATM   12  C   UNK N   1      29.915  16.432   5.158  0.00  0.00     0.127 C 
BRANCH  10  13
HETATM   13  O   UNK N   1      31.791  16.070   7.869  0.00  0.00    -0.344 OA
BRANCH  13  14
HETATM   14  C   UNK N   1      33.050  15.785   8.304  0.00  0.00     0.089 A 
HETATM   15  C   UNK N   1      33.709  14.660   7.786  0.00  0.00     0.044 A 
HETATM   16  C   UNK N   1      34.998  14.335   8.224  0.00  0.00     0.025 A 
HETATM   17 Br   UNK N   1      32.852  13.537   6.497  0.00  0.00    -0.048 Br
HETATM   18  C   UNK N   1      35.641  15.134   9.173  0.00  0.00     0.044 A 
HETATM   19  C   UNK N   1      34.997  16.260   9.685  0.00  0.00     0.119 A 
HETATM   20  C   UNK N   1      33.712  16.578   9.251  0.00  0.00     0.080 A 
HETATM   21  F   UNK N   1      35.612  17.042  10.602  0.00  0.00    -0.206 F 
ENDBRANCH  13  14
ENDBRANCH  10  13
ENDBRANCH   1   7
BRANCH   3  22
HETATM   22  C   UNK N   1      25.205  19.598   3.571  0.00  0.00     0.171 A 
HETATM   23  N   UNK N   1      24.977  20.747   2.904  0.00  0.00    -0.264 N 
HETATM   24  N   UNK N   1      23.670  20.776   2.692  0.00  0.00    -0.002 NA
ATOM     25  HN  UNK N   1      25.665  21.445   2.620  1.00  0.00     0.186 HD
HETATM   26  N   UNK N   1      23.133  19.684   3.210  0.00  0.00    -0.206 N 
HETATM   27  N   UNK N   1      24.062  18.925   3.755  0.00  0.00    -0.267 N 
ATOM     28  HN  UNK N   1      23.939  18.023   4.216  1.00  0.00     0.190 HD
BRANCH  26  29
HETATM   29  C   UNK N   1      21.709  19.387   3.239  0.00  0.00     0.276 C 
BRANCH  29  30
HETATM   30  C   UNK N   1      20.885  20.626   2.999  0.00  0.00     0.161 C 
HETATM   31  O   UNK N   1      20.071  20.975   3.835  0.00  0.00    -0.649 OA
BRANCH  30  32
HETATM   32  O   UNK N   1      21.051  21.368   1.884  0.00  0.00    -0.775 OA
HETATM   33  H   UNK N   1      20.385  21.860   1.447  0.00  0.00     0.167 HD
ENDBRANCH  30  32
ENDBRANCH  29  30
ENDBRANCH  26  29
ENDBRANCH   3  22
TORSDOF 7
ENDMDL
MODEL 9
REMARK VINA RESULT:      -7.3      6.809     12.245
REMARK  7 active torsions:
REMARK  status: ('A' for Active; 'I' for Inactive)
REMARK    1  A    between atoms: C_4  and  O_8 
REMARK    2  A    between atoms: O_8  and  C_9 
REMARK    3  A    between atoms: N_12  and  C_15 
REMARK    4  A    between atoms: C_17  and  C_21 
REMARK    5  A    between atoms: N_25  and  C_28 
REMARK    6  A    between atoms: C_28  and  C_29 
REMARK    7  A    between atoms: C_29  and  O_31 
ROOT
HETATM    1  C   UNK N   1      33.822  17.196   8.741  0.00  0.00     0.126 A 
HETATM    2  C   UNK N   1      33.740  16.040   9.490  0.00  0.00     0.093 A 
HETATM    3  C   UNK N   1      34.802  16.173  10.359  0.00  0.00     0.148 A 
HETATM    4  O   UNK N   1      35.419  17.309  10.131  0.00  0.00    -0.232 OA
HETATM    5  N   UNK N   1      34.859  17.947   9.152  0.00  0.00    -0.244 N 
ATOM      6  HN  UNK N   1      35.150  18.846   8.766  1.00  0.00     0.196 HD
ENDROOT
BRANCH   1   7
HETATM    7  N   UNK N   1      33.030  17.512   7.616  0.00  0.00    -0.366 N 
HETATM    8  C   UNK N   1      31.588  17.498   7.686  0.00  0.00     0.127 C 
HETATM    9  C   UNK N   1      31.070  16.269   6.945  0.00  0.00     0.052 C 
HETATM   10  C   UNK N   1      31.701  16.133   5.555  0.00  0.00     0.132 C 
HETATM   11  C   UNK N   1      33.231  16.324   5.537  0.00  0.00     0.052 C 
HETATM   12  C   UNK N   1      33.657  17.564   6.326  0.00  0.00     0.127 C 
BRANCH  10  13
HETATM   13  O   UNK N   1      30.958  16.772   4.569  0.00  0.00    -0.344 OA
BRANCH  13  14
HETATM   14  C   UNK N   1      29.886  16.325   3.856  0.00  0.00     0.089 A 
HETATM   15  C   UNK N   1      28.648  16.967   4.018  0.00  0.00     0.044 A 
HETATM   16  C   UNK N   1      27.527  16.523   3.308  0.00  0.00     0.025 A 
HETATM   17 Br   UNK N   1      28.465  18.437   5.225  0.00  0.00    -0.048 Br
HETATM   18  C   UNK N   1      27.634  15.443   2.427  0.00  0.00     0.044 A 
HETATM   19  C   UNK N   1      28.863  14.807   2.253  0.00  0.00     0.119 A 
HETATM   20  C   UNK N   1      29.976  15.248   2.964  0.00  0.00     0.080 A 
HETATM   21  F   UNK N   1      28.977  13.762   1.400  0.00  0.00    -0.206 F 
ENDBRANCH  13  14
ENDBRANCH  10  13
ENDBRANCH   1   7
BRANCH   3  22
HETATM   22  C   UNK N   1      35.229  15.220  11.369  0.00  0.00     0.171 A 
HETATM   23  N   UNK N   1      36.395  15.252  12.045  0.00  0.00    -0.264 N 
HETATM   24  N   UNK N   1      36.384  14.174  12.813  0.00  0.00    -0.002 NA
ATOM     25  HN  UNK N   1      37.129  15.958  11.980  1.00  0.00     0.186 HD
HETATM   26  N   UNK N   1      35.253  13.519  12.609  0.00  0.00    -0.206 N 
HETATM   27  N   UNK N   1      34.507  14.150  11.724  0.00  0.00    -0.267 N 
ATOM     28  HN  UNK N   1      33.583  13.882  11.384  1.00  0.00     0.190 HD
BRANCH  26  29
HETATM   29  C   UNK N   1      34.902  12.247  13.220  0.00  0.00     0.276 C 
BRANCH  29  30
HETATM   30  C   UNK N   1      34.992  12.316  14.723  0.00  0.00     0.161 C 
HETATM   31  O   UNK N   1      34.277  13.093  15.331  0.00  0.00    -0.649 OA
BRANCH  30  32
HETATM   32  O   UNK N   1      35.835  11.516  15.408  0.00  0.00    -0.775 OA
HETATM   33  H   UNK N   1      36.189  10.702  15.106  0.00  0.00     0.167 HD
ENDBRANCH  30  32
ENDBRANCH  29  30
ENDBRANCH  26  29
ENDBRANCH   3  22
TORSDOF 7
ENDMDL
