MODEL 1
REMARK VINA RESULT:      -8.2      0.000      0.000
REMARK  11 active torsions:
REMARK  status: ('A' for Active; 'I' for Inactive)
REMARK    1  A    between atoms: C_3  and  O_40 
REMARK    2  A    between atoms: C_4  and  N_39 
REMARK    3  A    between atoms: C_6  and  O_8 
REMARK    4  A    between atoms: C_9  and  O_8 
REMARK    5  A    between atoms: C_11  and  C_34 
REMARK    6  A    between atoms: C_11  and  O_38 
REMARK    7  A    between atoms: C_15  and  O_33 
REMARK    8  A    between atoms: C_18  and  O_19 
REMARK    9  A    between atoms: C_26  and  O_31 
REMARK   10  A    between atoms: C_34  and  C_36 
REMARK   11  A    between atoms: C_36  and  O_37 
ROOT
HETATM    1  C   UNK N   1      23.617  17.127   4.851  0.00  0.00     0.164 C 
HETATM    2  C   UNK N   1      22.686  17.073   3.635  0.00  0.00     0.083 C 
HETATM    3  C   UNK N   1      21.387  17.888   3.890  0.00  0.00     0.127 C 
HETATM    4  C   UNK N   1      21.195  18.265   5.383  0.00  0.00     0.088 C 
HETATM    5  C   UNK N   1      21.602  17.104   6.257  0.00  0.00    -0.009 A 
HETATM    6  C   UNK N   1      22.848  16.530   6.007  0.00  0.00     0.014 A 
HETATM    7  C   UNK N   1      23.291  15.440   6.772  0.00  0.00     0.088 A 
HETATM    8  C   UNK N   1      22.464  14.912   7.794  0.00  0.00     0.042 A 
HETATM    9  C   UNK N   1      21.181  15.470   8.015  0.00  0.00     0.064 A 
HETATM   10  C   UNK N   1      20.760  16.585   7.246  0.00  0.00     0.088 A 
HETATM   11  C   UNK N   1      20.283  14.859   9.040  0.00  0.00     0.197 A 
HETATM   12  O   UNK N   1      19.157  15.298   9.217  0.00  0.00    -0.286 OA
HETATM   13  C   UNK N   1      20.749  13.713   9.856  0.00  0.00     0.030 A 
HETATM   14  C   UNK N   1      19.894  13.160  10.820  0.00  0.00     0.016 A 
HETATM   15  C   UNK N   1      20.322  12.114  11.631  0.00  0.00     0.004 A 
HETATM   16  C   UNK N   1      21.621  11.629  11.515  0.00  0.00     0.038 A 
HETATM   17  C   UNK N   1      22.499  12.159  10.555  0.00  0.00     0.081 A 
HETATM   18  C   UNK N   1      22.050  13.195   9.693  0.00  0.00     0.039 A 
HETATM   19  C   UNK N   1      22.933  13.764   8.634  0.00  0.00     0.054 A 
HETATM   20  N   UNK N   1      24.096  13.260   8.439  0.00  0.00    -0.398 N 
ATOM     21  HN  UNK N   1      24.436  12.551   9.089  1.00  0.00     0.156 HD
HETATM   22  H   UNK N   1      24.677  13.527   7.690  0.00  0.00     0.156 HD
ENDROOT
BRANCH   1  23
HETATM   23  O   UNK N   1      24.872  16.563   4.567  0.00  0.00    -0.351 OA
BRANCH  23  24
HETATM   24  C   UNK N   1      25.272  17.062   3.305  0.00  0.00     0.263 C 
HETATM   25  C   UNK N   1      26.213  16.138   2.513  0.00  0.00     0.088 C 
HETATM   26  C   UNK N   1      27.555  16.081   3.208  0.00  0.00     0.110 C 
HETATM   27  C   UNK N   1      28.084  17.500   3.375  0.00  0.00     0.169 C 
HETATM   28  C   UNK N   1      27.029  18.326   4.127  0.00  0.00     0.151 C 
HETATM   29  C   UNK N   1      27.528  19.748   4.314  0.00  0.00     0.042 C 
HETATM   30  O   UNK N   1      25.810  18.367   3.410  0.00  0.00    -0.354 OA
BRANCH  26  31
HETATM   31  N   UNK N   1      28.474  15.283   2.417  0.00  0.00    -0.423 N 
HETATM   32  H   UNK N   1      28.524  14.973   1.447  0.00  0.00     0.150 HD
HETATM   33  H   UNK N   1      29.265  14.951   2.967  0.00  0.00     0.150 HD
ENDBRANCH  26  31
BRANCH  27  34
HETATM   34  O   UNK N   1      29.280  17.468   4.094  0.00  0.00    -0.391 OA
HETATM   35  H   UNK N   1      29.762  18.213   4.486  0.00  0.00     0.210 HD
ENDBRANCH  27  34
ENDBRANCH  23  24
ENDBRANCH   1  23
BRANCH   3  36
HETATM   36  C   UNK N   1      21.451  19.132   3.033  0.00  0.00     0.184 C 
HETATM   37  O   UNK N   1      22.204  20.046   3.335  0.00  0.00    -0.292 OA
BRANCH  36  38
HETATM   38  C   UNK N   1      20.521  19.318   1.867  0.00  0.00     0.245 C 
BRANCH  38  39
HETATM   39  O   UNK N   1      19.191  19.327   2.279  0.00  0.00    -0.393 OA
HETATM   40  H   UNK N   1      18.235  19.470   2.194  0.00  0.00     0.209 HD
ENDBRANCH  38  39
ENDBRANCH  36  38
ENDBRANCH   3  36
BRANCH   3  41
HETATM   41  O   UNK N   1      20.291  17.108   3.512  0.00  0.00    -0.382 OA
HETATM   42  H   UNK N   1      20.116  16.160   3.404  0.00  0.00     0.211 HD
ENDBRANCH   3  41
BRANCH   7  43
HETATM   43  O   UNK N   1      24.490  14.892   6.515  0.00  0.00    -0.359 OA
HETATM   44  H   UNK N   1      25.270  15.389   6.365  0.00  0.00     0.217 HD
ENDBRANCH   7  43
BRANCH  10  45
HETATM   45  O   UNK N   1      19.555  17.149   7.446  0.00  0.00    -0.359 OA
HETATM   46  H   UNK N   1      18.822  16.685   7.801  0.00  0.00     0.217 HD
ENDBRANCH  10  45
BRANCH  17  47
HETATM   47  O   UNK N   1      23.776  11.707  10.471  0.00  0.00    -0.355 OA
HETATM   48  C   UNK N   1      24.730  11.936  11.436  0.00  0.00     0.210 C 
ENDBRANCH  17  47
TORSDOF 11
ENDMDL
MODEL 2
REMARK VINA RESULT:      -8.1      9.470     14.302
REMARK  11 active torsions:
REMARK  status: ('A' for Active; 'I' for Inactive)
REMARK    1  A    between atoms: C_3  and  O_40 
REMARK    2  A    between atoms: C_4  and  N_39 
REMARK    3  A    between atoms: C_6  and  O_8 
REMARK    4  A    between atoms: C_9  and  O_8 
REMARK    5  A    between atoms: C_11  and  C_34 
REMARK    6  A    between atoms: C_11  and  O_38 
REMARK    7  A    between atoms: C_15  and  O_33 
REMARK    8  A    between atoms: C_18  and  O_19 
REMARK    9  A    between atoms: C_26  and  O_31 
REMARK   10  A    between atoms: C_34  and  C_36 
REMARK   11  A    between atoms: C_36  and  O_37 
ROOT
HETATM    1  C   UNK N   1      35.942  13.726  10.558  0.00  0.00     0.164 C 
HETATM    2  C   UNK N   1      36.376  12.381   9.966  0.00  0.00     0.083 C 
HETATM    3  C   UNK N   1      37.271  12.586   8.712  0.00  0.00     0.127 C 
HETATM    4  C   UNK N   1      37.234  14.042   8.176  0.00  0.00     0.088 C 
HETATM    5  C   UNK N   1      35.826  14.578   8.257  0.00  0.00    -0.009 A 
HETATM    6  C   UNK N   1      35.165  14.441   9.477  0.00  0.00     0.014 A 
HETATM    7  C   UNK N   1      33.850  14.905   9.625  0.00  0.00     0.088 A 
HETATM    8  C   UNK N   1      33.184  15.505   8.528  0.00  0.00     0.042 A 
HETATM    9  C   UNK N   1      33.844  15.602   7.277  0.00  0.00     0.064 A 
HETATM   10  C   UNK N   1      35.181  15.146   7.153  0.00  0.00     0.088 A 
HETATM   11  C   UNK N   1      33.110  16.164   6.104  0.00  0.00     0.197 A 
HETATM   12  O   UNK N   1      33.646  16.217   5.007  0.00  0.00    -0.286 OA
HETATM   13  C   UNK N   1      31.723  16.663   6.258  0.00  0.00     0.030 A 
HETATM   14  C   UNK N   1      31.056  17.195   5.145  0.00  0.00     0.016 A 
HETATM   15  C   UNK N   1      29.770  17.714   5.271  0.00  0.00     0.004 A 
HETATM   16  C   UNK N   1      29.148  17.740   6.515  0.00  0.00     0.038 A 
HETATM   17  C   UNK N   1      29.790  17.209   7.647  0.00  0.00     0.081 A 
HETATM   18  C   UNK N   1      31.083  16.636   7.513  0.00  0.00     0.039 A 
HETATM   19  C   UNK N   1      31.789  16.028   8.677  0.00  0.00     0.054 A 
HETATM   20  N   UNK N   1      31.192  15.945   9.810  0.00  0.00    -0.398 N 
ATOM     21  HN  UNK N   1      30.285  16.400   9.917  1.00  0.00     0.156 HD
HETATM   22  H   UNK N   1      31.570  15.462  10.580  0.00  0.00     0.156 HD
ENDROOT
BRANCH   1  23
HETATM   23  O   UNK N   1      35.300  13.563  11.797  0.00  0.00    -0.351 OA
BRANCH  23  24
HETATM   24  C   UNK N   1      36.019  12.572  12.507  0.00  0.00     0.263 C 
HETATM   25  C   UNK N   1      35.159  11.421  13.058  0.00  0.00     0.088 C 
HETATM   26  C   UNK N   1      34.276  11.947  14.168  0.00  0.00     0.110 C 
HETATM   27  C   UNK N   1      35.152  12.618  15.218  0.00  0.00     0.169 C 
HETATM   28  C   UNK N   1      35.995  13.703  14.527  0.00  0.00     0.151 C 
HETATM   29  C   UNK N   1      36.878  14.396  15.549  0.00  0.00     0.042 C 
HETATM   30  O   UNK N   1      36.820  13.141  13.524  0.00  0.00    -0.354 OA
BRANCH  26  31
HETATM   31  N   UNK N   1      33.530  10.847  14.752  0.00  0.00    -0.423 N 
HETATM   32  H   UNK N   1      32.596  10.723  15.142  0.00  0.00     0.150 HD
HETATM   33  H   UNK N   1      34.075   9.987  14.779  0.00  0.00     0.150 HD
ENDBRANCH  26  31
BRANCH  27  34
HETATM   34  O   UNK N   1      34.343  13.186  16.203  0.00  0.00    -0.391 OA
HETATM   35  H   UNK N   1      33.947  14.071  16.216  0.00  0.00     0.210 HD
ENDBRANCH  27  34
ENDBRANCH  23  24
ENDBRANCH   1  23
BRANCH   3  36
HETATM   36  C   UNK N   1      38.683  12.195   9.088  0.00  0.00     0.184 C 
HETATM   37  O   UNK N   1      39.265  12.788   9.983  0.00  0.00    -0.292 OA
BRANCH  36  38
HETATM   38  C   UNK N   1      39.433  11.155   8.303  0.00  0.00     0.245 C 
BRANCH  38  39
HETATM   39  O   UNK N   1      39.637  11.565   6.989  0.00  0.00    -0.393 OA
HETATM   40  H   UNK N   1      39.556  12.146   6.216  0.00  0.00     0.209 HD
ENDBRANCH  38  39
ENDBRANCH  36  38
ENDBRANCH   3  36
BRANCH   3  41
HETATM   41  O   UNK N   1      36.805  11.754   7.691  0.00  0.00    -0.382 OA
HETATM   42  H   UNK N   1      36.305  11.876   6.868  0.00  0.00     0.211 HD
ENDBRANCH   3  41
BRANCH   7  43
HETATM   43  O   UNK N   1      33.223  14.760  10.804  0.00  0.00    -0.359 OA
HETATM   44  H   UNK N   1      32.603  14.081  10.985  0.00  0.00     0.217 HD
ENDBRANCH   7  43
BRANCH  10  45
HETATM   45  O   UNK N   1      35.841  15.243   5.984  0.00  0.00    -0.359 OA
HETATM   46  H   UNK N   1      36.775  15.206   5.917  0.00  0.00     0.217 HD
ENDBRANCH  10  45
BRANCH  17  47
HETATM   47  O   UNK N   1      29.194  17.270   8.865  0.00  0.00    -0.355 OA
HETATM   48  C   UNK N   1      28.191  18.159   9.178  0.00  0.00     0.210 C 
ENDBRANCH  17  47
TORSDOF 11
ENDMDL
MODEL 3
REMARK VINA RESULT:      -7.6      3.827      6.232
REMARK  11 active torsions:
REMARK  status: ('A' for Active; 'I' for Inactive)
REMARK    1  A    between atoms: C_3  and  O_40 
REMARK    2  A    between atoms: C_4  and  N_39 
REMARK    3  A    between atoms: C_6  and  O_8 
REMARK    4  A    between atoms: C_9  and  O_8 
REMARK    5  A    between atoms: C_11  and  C_34 
REMARK    6  A    between atoms: C_11  and  O_38 
REMARK    7  A    between atoms: C_15  and  O_33 
REMARK    8  A    between atoms: C_18  and  O_19 
REMARK    9  A    between atoms: C_26  and  O_31 
REMARK   10  A    between atoms: C_34  and  C_36 
REMARK   11  A    between atoms: C_36  and  O_37 
ROOT
HETATM    1  C   UNK N   1      20.345  15.996   6.172  0.00  0.00     0.164 C 
HETATM    2  C   UNK N   1      19.125  16.084   7.094  0.00  0.00     0.083 C 
HETATM    3  C   UNK N   1      19.557  16.204   8.582  0.00  0.00     0.127 C 
HETATM    4  C   UNK N   1      21.058  15.875   8.802  0.00  0.00     0.088 C 
HETATM    5  C   UNK N   1      21.453  14.701   7.942  0.00  0.00    -0.009 A 
HETATM    6  C   UNK N   1      21.112  14.763   6.590  0.00  0.00     0.014 A 
HETATM    7  C   UNK N   1      21.437  13.704   5.730  0.00  0.00     0.088 A 
HETATM    8  C   UNK N   1      22.102  12.560   6.236  0.00  0.00     0.042 A 
HETATM    9  C   UNK N   1      22.407  12.482   7.618  0.00  0.00     0.064 A 
HETATM   10  C   UNK N   1      22.090  13.572   8.468  0.00  0.00     0.088 A 
HETATM   11  C   UNK N   1      23.037  11.241   8.160  0.00  0.00     0.197 A 
HETATM   12  O   UNK N   1      23.269  11.136   9.355  0.00  0.00    -0.286 OA
HETATM   13  C   UNK N   1      23.389  10.123   7.253  0.00  0.00     0.030 A 
HETATM   14  C   UNK N   1      23.989   8.971   7.781  0.00  0.00     0.016 A 
HETATM   15  C   UNK N   1      24.372   7.925   6.946  0.00  0.00     0.004 A 
HETATM   16  C   UNK N   1      24.194   8.031   5.570  0.00  0.00     0.038 A 
HETATM   17  C   UNK N   1      23.590   9.171   5.013  0.00  0.00     0.081 A 
HETATM   18  C   UNK N   1      23.155  10.220   5.866  0.00  0.00     0.039 A 
HETATM   19  C   UNK N   1      22.477  11.432   5.325  0.00  0.00     0.054 A 
HETATM   20  N   UNK N   1      22.206  11.504   4.073  0.00  0.00    -0.398 N 
ATOM     21  HN  UNK N   1      22.562  10.774   3.455  1.00  0.00     0.156 HD
HETATM   22  H   UNK N   1      21.671  12.231   3.681  0.00  0.00     0.156 HD
ENDROOT
BRANCH   1  23
HETATM   23  O   UNK N   1      19.978  16.084   4.819  0.00  0.00    -0.351 OA
BRANCH  23  24
HETATM   24  C   UNK N   1      20.969  16.861   4.173  0.00  0.00     0.263 C 
HETATM   25  C   UNK N   1      20.530  18.288   3.801  0.00  0.00     0.088 C 
HETATM   26  C   UNK N   1      19.495  18.219   2.700  0.00  0.00     0.110 C 
HETATM   27  C   UNK N   1      20.071  17.428   1.532  0.00  0.00     0.169 C 
HETATM   28  C   UNK N   1      20.519  16.052   2.050  0.00  0.00     0.151 C 
HETATM   29  C   UNK N   1      21.095  15.235   0.908  0.00  0.00     0.042 C 
HETATM   30  O   UNK N   1      21.509  16.186   3.053  0.00  0.00    -0.354 OA
BRANCH  26  31
HETATM   31  N   UNK N   1      19.145  19.564   2.283  0.00  0.00    -0.423 N 
HETATM   32  H   UNK N   1      18.347  20.186   2.411  0.00  0.00     0.150 HD
HETATM   33  H   UNK N   1      19.879  19.995   1.722  0.00  0.00     0.150 HD
ENDBRANCH  26  31
BRANCH  27  34
HETATM   34  O   UNK N   1      19.094  17.280   0.545  0.00  0.00    -0.391 OA
HETATM   35  H   UNK N   1      18.847  16.476   0.064  0.00  0.00     0.210 HD
ENDBRANCH  27  34
ENDBRANCH  23  24
ENDBRANCH   1  23
BRANCH   3  36
HETATM   36  C   UNK N   1      19.251  17.614   9.036  0.00  0.00     0.184 C 
HETATM   37  O   UNK N   1      20.046  18.514   8.816  0.00  0.00    -0.292 OA
BRANCH  36  38
HETATM   38  C   UNK N   1      18.027  17.915   9.855  0.00  0.00     0.245 C 
BRANCH  38  39
HETATM   39  O   UNK N   1      18.172  19.108  10.558  0.00  0.00    -0.393 OA
HETATM   40  H   UNK N   1      18.490  19.689  11.267  0.00  0.00     0.209 HD
ENDBRANCH  38  39
ENDBRANCH  36  38
ENDBRANCH   3  36
BRANCH   3  41
HETATM   41  O   UNK N   1      18.815  15.291   9.337  0.00  0.00    -0.382 OA
HETATM   42  H   UNK N   1      18.960  14.398   9.687  0.00  0.00     0.211 HD
ENDBRANCH   3  41
BRANCH   7  43
HETATM   43  O   UNK N   1      21.096  13.774   4.432  0.00  0.00    -0.359 OA
HETATM   44  H   UNK N   1      21.586  13.373   3.742  0.00  0.00     0.217 HD
ENDBRANCH   7  43
BRANCH  10  45
HETATM   45  O   UNK N   1      22.383  13.536   9.781  0.00  0.00    -0.359 OA
HETATM   46  H   UNK N   1      23.200  13.831  10.133  0.00  0.00     0.217 HD
ENDBRANCH  10  45
BRANCH  17  47
HETATM   47  O   UNK N   1      23.452   9.284   3.667  0.00  0.00    -0.355 OA
HETATM   48  C   UNK N   1      24.425   8.912   2.767  0.00  0.00     0.210 C 
ENDBRANCH  17  47
TORSDOF 11
ENDMDL
MODEL 4
REMARK VINA RESULT:      -7.4      4.525      8.280
REMARK  11 active torsions:
REMARK  status: ('A' for Active; 'I' for Inactive)
REMARK    1  A    between atoms: C_3  and  O_40 
REMARK    2  A    between atoms: C_4  and  N_39 
REMARK    3  A    between atoms: C_6  and  O_8 
REMARK    4  A    between atoms: C_9  and  O_8 
REMARK    5  A    between atoms: C_11  and  C_34 
REMARK    6  A    between atoms: C_11  and  O_38 
REMARK    7  A    between atoms: C_15  and  O_33 
REMARK    8  A    between atoms: C_18  and  O_19 
REMARK    9  A    between atoms: C_26  and  O_31 
REMARK   10  A    between atoms: C_34  and  C_36 
REMARK   11  A    between atoms: C_36  and  O_37 
ROOT
HETATM    1  C   UNK N   1      24.721  17.964   3.718  0.00  0.00     0.164 C 
HETATM    2  C   UNK N   1      24.981  18.360   5.174  0.00  0.00     0.083 C 
HETATM    3  C   UNK N   1      26.366  19.050   5.327  0.00  0.00     0.127 C 
HETATM    4  C   UNK N   1      27.268  18.874   4.077  0.00  0.00     0.088 C 
HETATM    5  C   UNK N   1      27.122  17.473   3.538  0.00  0.00    -0.009 A 
HETATM    6  C   UNK N   1      25.824  17.006   3.330  0.00  0.00     0.014 A 
HETATM    7  C   UNK N   1      25.608  15.709   2.840  0.00  0.00     0.088 A 
HETATM    8  C   UNK N   1      26.712  14.864   2.568  0.00  0.00     0.042 A 
HETATM    9  C   UNK N   1      28.027  15.326   2.823  0.00  0.00     0.064 A 
HETATM   10  C   UNK N   1      28.226  16.648   3.297  0.00  0.00     0.088 A 
HETATM   11  C   UNK N   1      29.182  14.404   2.608  0.00  0.00     0.197 A 
HETATM   12  O   UNK N   1      30.321  14.768   2.862  0.00  0.00    -0.286 OA
HETATM   13  C   UNK N   1      28.960  13.036   2.084  0.00  0.00     0.030 A 
HETATM   14  C   UNK N   1      30.059  12.189   1.880  0.00  0.00     0.016 A 
HETATM   15  C   UNK N   1      29.884  10.916   1.346  0.00  0.00     0.004 A 
HETATM   16  C   UNK N   1      28.615  10.486   0.974  0.00  0.00     0.038 A 
HETATM   17  C   UNK N   1      27.494  11.309   1.171  0.00  0.00     0.081 A 
HETATM   18  C   UNK N   1      27.663  12.591   1.760  0.00  0.00     0.039 A 
HETATM   19  C   UNK N   1      26.499  13.486   2.022  0.00  0.00     0.054 A 
HETATM   20  N   UNK N   1      25.310  13.068   1.787  0.00  0.00    -0.398 N 
ATOM     21  HN  UNK N   1      25.193  12.168   1.318  1.00  0.00     0.156 HD
HETATM   22  H   UNK N   1      24.504  13.575   2.036  0.00  0.00     0.156 HD
ENDROOT
BRANCH   1  23
HETATM   23  O   UNK N   1      23.402  17.520   3.529  0.00  0.00    -0.351 OA
BRANCH  23  24
HETATM   24  C   UNK N   1      22.582  18.283   4.395  0.00  0.00     0.263 C 
HETATM   25  C   UNK N   1      21.369  17.529   4.966  0.00  0.00     0.088 C 
HETATM   26  C   UNK N   1      20.384  17.254   3.851  0.00  0.00     0.110 C 
HETATM   27  C   UNK N   1      20.028  18.570   3.172  0.00  0.00     0.169 C 
HETATM   28  C   UNK N   1      21.327  19.242   2.702  0.00  0.00     0.151 C 
HETATM   29  C   UNK N   1      21.006  20.558   2.015  0.00  0.00     0.042 C 
HETATM   30  O   UNK N   1      22.189  19.502   3.794  0.00  0.00    -0.354 OA
BRANCH  26  31
HETATM   31  N   UNK N   1      19.198  16.625   4.401  0.00  0.00    -0.423 N 
HETATM   32  H   UNK N   1      18.224  16.523   4.115  0.00  0.00     0.150 HD
HETATM   33  H   UNK N   1      19.384  16.173   5.296  0.00  0.00     0.150 HD
ENDBRANCH  26  31
BRANCH  27  34
HETATM   34  O   UNK N   1      19.189  18.320   2.085  0.00  0.00    -0.391 OA
HETATM   35  H   UNK N   1      18.529  18.911   1.690  0.00  0.00     0.210 HD
ENDBRANCH  27  34
ENDBRANCH  23  24
ENDBRANCH   1  23
BRANCH   3  36
HETATM   36  C   UNK N   1      26.119  20.517   5.601  0.00  0.00     0.184 C 
HETATM   37  O   UNK N   1      25.516  21.199   4.786  0.00  0.00    -0.292 OA
BRANCH  36  38
HETATM   38  C   UNK N   1      26.698  21.186   6.816  0.00  0.00     0.245 C 
BRANCH  38  39
HETATM   39  O   UNK N   1      25.974  20.867   7.961  0.00  0.00    -0.393 OA
HETATM   40  H   UNK N   1      25.637  20.295   8.669  0.00  0.00     0.209 HD
ENDBRANCH  38  39
ENDBRANCH  36  38
ENDBRANCH   3  36
BRANCH   3  41
HETATM   41  O   UNK N   1      27.034  18.472   6.409  0.00  0.00    -0.382 OA
HETATM   42  H   UNK N   1      27.798  18.706   6.960  0.00  0.00     0.211 HD
ENDBRANCH   3  41
BRANCH   7  43
HETATM   43  O   UNK N   1      24.353  15.271   2.652  0.00  0.00    -0.359 OA
HETATM   44  H   UNK N   1      23.905  14.701   3.245  0.00  0.00     0.217 HD
ENDBRANCH   7  43
BRANCH  10  45
HETATM   45  O   UNK N   1      29.463  17.122   3.530  0.00  0.00    -0.359 OA
HETATM   46  H   UNK N   1      30.064  16.719   4.126  0.00  0.00     0.217 HD
ENDBRANCH  10  45
BRANCH  17  47
HETATM   47  O   UNK N   1      26.263  10.898   0.772  0.00  0.00    -0.355 OA
HETATM   48  C   UNK N   1      25.863   9.581   0.768  0.00  0.00     0.210 C 
ENDBRANCH  17  47
TORSDOF 11
ENDMDL
MODEL 5
REMARK VINA RESULT:      -7.3      4.408      6.970
REMARK  11 active torsions:
REMARK  status: ('A' for Active; 'I' for Inactive)
REMARK    1  A    between atoms: C_3  and  O_40 
REMARK    2  A    between atoms: C_4  and  N_39 
REMARK    3  A    between atoms: C_6  and  O_8 
REMARK    4  A    between atoms: C_9  and  O_8 
REMARK    5  A    between atoms: C_11  and  C_34 
REMARK    6  A    between atoms: C_11  and  O_38 
REMARK    7  A    between atoms: C_15  and  O_33 
REMARK    8  A    between atoms: C_18  and  O_19 
REMARK    9  A    between atoms: C_26  and  O_31 
REMARK   10  A    between atoms: C_34  and  C_36 
REMARK   11  A    between atoms: C_36  and  O_37 
ROOT
HETATM    1  C   UNK N   1      23.005  16.300   3.115  0.00  0.00     0.164 C 
HETATM    2  C   UNK N   1      21.912  16.661   4.125  0.00  0.00     0.083 C 
HETATM    3  C   UNK N   1      21.955  18.174   4.479  0.00  0.00     0.127 C 
HETATM    4  C   UNK N   1      23.260  18.866   4.005  0.00  0.00     0.088 C 
HETATM    5  C   UNK N   1      24.436  17.951   4.240  0.00  0.00    -0.009 A 
HETATM    6  C   UNK N   1      24.324  16.643   3.768  0.00  0.00     0.014 A 
HETATM    7  C   UNK N   1      25.372  15.731   3.959  0.00  0.00     0.088 A 
HETATM    8  C   UNK N   1      26.545  16.134   4.643  0.00  0.00     0.042 A 
HETATM    9  C   UNK N   1      26.636  17.451   5.160  0.00  0.00     0.064 A 
HETATM   10  C   UNK N   1      25.574  18.365   4.938  0.00  0.00     0.088 A 
HETATM   11  C   UNK N   1      27.841  17.847   5.949  0.00  0.00     0.197 A 
HETATM   12  O   UNK N   1      27.921  18.963   6.438  0.00  0.00    -0.286 OA
HETATM   13  C   UNK N   1      28.954  16.889   6.145  0.00  0.00     0.030 A 
HETATM   14  C   UNK N   1      30.081  17.284   6.881  0.00  0.00     0.016 A 
HETATM   15  C   UNK N   1      31.161  16.421   7.042  0.00  0.00     0.004 A 
HETATM   16  C   UNK N   1      31.145  15.166   6.441  0.00  0.00     0.038 A 
HETATM   17  C   UNK N   1      30.028  14.740   5.703  0.00  0.00     0.081 A 
HETATM   18  C   UNK N   1      28.905  15.600   5.576  0.00  0.00     0.039 A 
HETATM   19  C   UNK N   1      27.682  15.179   4.833  0.00  0.00     0.054 A 
HETATM   20  N   UNK N   1      27.603  13.988   4.363  0.00  0.00    -0.398 N 
ATOM     21  HN  UNK N   1      28.428  13.389   4.412  1.00  0.00     0.156 HD
HETATM   22  H   UNK N   1      26.783  13.626   3.956  0.00  0.00     0.156 HD
ENDROOT
BRANCH   1  23
HETATM   23  O   UNK N   1      22.857  14.988   2.638  0.00  0.00    -0.351 OA
BRANCH  23  24
HETATM   24  C   UNK N   1      22.345  15.082   1.322  0.00  0.00     0.263 C 
HETATM   25  C   UNK N   1      20.821  14.902   1.208  0.00  0.00     0.088 C 
HETATM   26  C   UNK N   1      20.465  13.466   1.524  0.00  0.00     0.110 C 
HETATM   27  C   UNK N   1      21.263  12.548   0.608  0.00  0.00     0.169 C 
HETATM   28  C   UNK N   1      22.757  12.869   0.779  0.00  0.00     0.151 C 
HETATM   29  C   UNK N   1      23.583  11.965  -0.119  0.00  0.00     0.042 C 
HETATM   30  O   UNK N   1      23.028  14.215   0.436  0.00  0.00    -0.354 OA
BRANCH  26  31
HETATM   31  N   UNK N   1      19.040  13.270   1.328  0.00  0.00    -0.423 N 
HETATM   32  H   UNK N   1      18.337  13.618   0.677  0.00  0.00     0.150 HD
HETATM   33  H   UNK N   1      18.645  12.625   2.011  0.00  0.00     0.150 HD
ENDBRANCH  26  31
BRANCH  27  34
HETATM   34  O   UNK N   1      21.010  11.218   0.949  0.00  0.00    -0.391 OA
HETATM   35  H   UNK N   1      21.031  10.439   0.372  0.00  0.00     0.210 HD
ENDBRANCH  27  34
ENDBRANCH  23  24
ENDBRANCH   1  23
BRANCH   3  36
HETATM   36  C   UNK N   1      20.746  18.827   3.845  0.00  0.00     0.184 C 
HETATM   37  O   UNK N   1      20.531  20.017   4.022  0.00  0.00    -0.292 OA
BRANCH  36  38
HETATM   38  C   UNK N   1      19.736  18.014   3.086  0.00  0.00     0.245 C 
BRANCH  38  39
HETATM   39  O   UNK N   1      18.677  18.806   2.650  0.00  0.00    -0.393 OA
HETATM   40  H   UNK N   1      18.251  19.548   2.192  0.00  0.00     0.209 HD
ENDBRANCH  38  39
ENDBRANCH  36  38
ENDBRANCH   3  36
BRANCH   3  41
HETATM   41  O   UNK N   1      21.892  18.308   5.869  0.00  0.00    -0.382 OA
HETATM   42  H   UNK N   1      22.335  17.898   6.628  0.00  0.00     0.211 HD
ENDBRANCH   3  41
BRANCH   7  43
HETATM   43  O   UNK N   1      25.248  14.472   3.506  0.00  0.00    -0.359 OA
HETATM   44  H   UNK N   1      24.660  14.220   2.822  0.00  0.00     0.217 HD
ENDBRANCH   7  43
BRANCH  10  45
HETATM   45  O   UNK N   1      25.640  19.628   5.399  0.00  0.00    -0.359 OA
HETATM   46  H   UNK N   1      25.777  19.839   6.302  0.00  0.00     0.217 HD
ENDBRANCH  10  45
BRANCH  17  47
HETATM   47  O   UNK N   1      30.034  13.530   5.089  0.00  0.00    -0.355 OA
HETATM   48  C   UNK N   1      31.127  13.013   4.432  0.00  0.00     0.210 C 
ENDBRANCH  17  47
TORSDOF 11
ENDMDL
MODEL 6
REMARK VINA RESULT:      -7.3      7.778     11.797
REMARK  11 active torsions:
REMARK  status: ('A' for Active; 'I' for Inactive)
REMARK    1  A    between atoms: C_3  and  O_40 
REMARK    2  A    between atoms: C_4  and  N_39 
REMARK    3  A    between atoms: C_6  and  O_8 
REMARK    4  A    between atoms: C_9  and  O_8 
REMARK    5  A    between atoms: C_11  and  C_34 
REMARK    6  A    between atoms: C_11  and  O_38 
REMARK    7  A    between atoms: C_15  and  O_33 
REMARK    8  A    between atoms: C_18  and  O_19 
REMARK    9  A    between atoms: C_26  and  O_31 
REMARK   10  A    between atoms: C_34  and  C_36 
REMARK   11  A    between atoms: C_36  and  O_37 
ROOT
HETATM    1  C   UNK N   1      31.511  16.152   6.508  0.00  0.00     0.164 C 
HETATM    2  C   UNK N   1      30.427  16.122   7.591  0.00  0.00     0.083 C 
HETATM    3  C   UNK N   1      30.713  17.177   8.696  0.00  0.00     0.127 C 
HETATM    4  C   UNK N   1      32.152  17.753   8.622  0.00  0.00     0.088 C 
HETATM    5  C   UNK N   1      33.125  16.649   8.293  0.00  0.00    -0.009 A 
HETATM    6  C   UNK N   1      32.818  15.839   7.200  0.00  0.00     0.014 A 
HETATM    7  C   UNK N   1      33.670  14.784   6.839  0.00  0.00     0.088 A 
HETATM    8  C   UNK N   1      34.842  14.533   7.594  0.00  0.00     0.042 A 
HETATM    9  C   UNK N   1      35.128  15.330   8.730  0.00  0.00     0.064 A 
HETATM   10  C   UNK N   1      34.265  16.405   9.066  0.00  0.00     0.088 A 
HETATM   11  C   UNK N   1      36.322  15.011   9.568  0.00  0.00     0.197 A 
HETATM   12  O   UNK N   1      36.563  15.660  10.575  0.00  0.00    -0.286 OA
HETATM   13  C   UNK N   1      37.230  13.904   9.186  0.00  0.00     0.030 A 
HETATM   14  C   UNK N   1      38.351  13.627   9.981  0.00  0.00     0.016 A 
HETATM   15  C   UNK N   1      39.245  12.623   9.621  0.00  0.00     0.004 A 
HETATM   16  C   UNK N   1      39.051  11.907   8.444  0.00  0.00     0.038 A 
HETATM   17  C   UNK N   1      37.934  12.158   7.630  0.00  0.00     0.081 A 
HETATM   18  C   UNK N   1      36.994  13.150   8.019  0.00  0.00     0.039 A 
HETATM   19  C   UNK N   1      35.774  13.426   7.207  0.00  0.00     0.054 A 
HETATM   20  N   UNK N   1      35.520  12.706   6.176  0.00  0.00    -0.398 N 
ATOM     21  HN  UNK N   1      36.219  12.029   5.871  1.00  0.00     0.156 HD
HETATM   22  H   UNK N   1      34.680  12.778   5.667  0.00  0.00     0.156 HD
ENDROOT
BRANCH   1  23
HETATM   23  O   UNK N   1      31.168  15.347   5.410  0.00  0.00    -0.351 OA
BRANCH  23  24
HETATM   24  C   UNK N   1      31.303  16.150   4.252  0.00  0.00     0.263 C 
HETATM   25  C   UNK N   1      30.730  17.572   4.382  0.00  0.00     0.088 C 
HETATM   26  C   UNK N   1      29.222  17.494   4.471  0.00  0.00     0.110 C 
HETATM   27  C   UNK N   1      28.696  16.727   3.264  0.00  0.00     0.169 C 
HETATM   28  C   UNK N   1      29.387  15.355   3.222  0.00  0.00     0.151 C 
HETATM   29  C   UNK N   1      28.881  14.561   2.031  0.00  0.00     0.042 C 
HETATM   30  O   UNK N   1      30.790  15.497   3.106  0.00  0.00    -0.354 OA
BRANCH  26  31
HETATM   31  N   UNK N   1      28.672  18.837   4.501  0.00  0.00    -0.423 N 
HETATM   32  H   UNK N   1      28.834  19.705   3.992  0.00  0.00     0.150 HD
HETATM   33  H   UNK N   1      27.943  18.937   5.207  0.00  0.00     0.150 HD
ENDBRANCH  26  31
BRANCH  27  34
HETATM   34  O   UNK N   1      27.314  16.571   3.379  0.00  0.00    -0.391 OA
HETATM   35  H   UNK N   1      26.824  15.802   3.709  0.00  0.00     0.210 HD
ENDBRANCH  27  34
ENDBRANCH  23  24
ENDBRANCH   1  23
BRANCH   3  36
HETATM   36  C   UNK N   1      29.690  18.282   8.549  0.00  0.00     0.184 C 
HETATM   37  O   UNK N   1      30.008  19.442   8.764  0.00  0.00    -0.292 OA
BRANCH  36  38
HETATM   38  C   UNK N   1      28.251  17.970   8.248  0.00  0.00     0.245 C 
BRANCH  38  39
HETATM   39  O   UNK N   1      27.506  17.848   9.417  0.00  0.00    -0.393 OA
HETATM   40  H   UNK N   1      27.171  17.411  10.216  0.00  0.00     0.209 HD
ENDBRANCH  38  39
ENDBRANCH  36  38
ENDBRANCH   3  36
BRANCH   3  41
HETATM   41  O   UNK N   1      30.572  16.564   9.944  0.00  0.00    -0.382 OA
HETATM   42  H   UNK N   1      31.114  15.979  10.496  0.00  0.00     0.211 HD
ENDBRANCH   3  41
BRANCH   7  43
HETATM   43  O   UNK N   1      33.357  14.007   5.789  0.00  0.00    -0.359 OA
HETATM   44  H   UNK N   1      32.892  14.311   5.035  0.00  0.00     0.217 HD
ENDBRANCH   7  43
BRANCH  10  45
HETATM   45  O   UNK N   1      34.520  17.193  10.127  0.00  0.00    -0.359 OA
HETATM   46  H   UNK N   1      35.306  17.134  10.633  0.00  0.00     0.217 HD
ENDBRANCH  10  45
BRANCH  17  47
HETATM   47  O   UNK N   1      37.769  11.482   6.465  0.00  0.00    -0.355 OA
HETATM   48  C   UNK N   1      38.802  11.177   5.608  0.00  0.00     0.210 C 
ENDBRANCH  17  47
TORSDOF 11
ENDMDL
MODEL 7
REMARK VINA RESULT:      -7.3     10.339     14.810
REMARK  11 active torsions:
REMARK  status: ('A' for Active; 'I' for Inactive)
REMARK    1  A    between atoms: C_3  and  O_40 
REMARK    2  A    between atoms: C_4  and  N_39 
REMARK    3  A    between atoms: C_6  and  O_8 
REMARK    4  A    between atoms: C_9  and  O_8 
REMARK    5  A    between atoms: C_11  and  C_34 
REMARK    6  A    between atoms: C_11  and  O_38 
REMARK    7  A    between atoms: C_15  and  O_33 
REMARK    8  A    between atoms: C_18  and  O_19 
REMARK    9  A    between atoms: C_26  and  O_31 
REMARK   10  A    between atoms: C_34  and  C_36 
REMARK   11  A    between atoms: C_36  and  O_37 
ROOT
HETATM    1  C   UNK N   1      34.752  11.958  10.920  0.00  0.00     0.164 C 
HETATM    2  C   UNK N   1      36.214  12.128  11.344  0.00  0.00     0.083 C 
HETATM    3  C   UNK N   1      36.422  13.466  12.108  0.00  0.00     0.127 C 
HETATM    4  C   UNK N   1      35.218  14.434  11.967  0.00  0.00     0.088 C 
HETATM    5  C   UNK N   1      34.690  14.388  10.555  0.00  0.00    -0.009 A 
HETATM    6  C   UNK N   1      34.428  13.127  10.018  0.00  0.00     0.014 A 
HETATM    7  C   UNK N   1      33.945  13.003   8.707  0.00  0.00     0.088 A 
HETATM    8  C   UNK N   1      33.735  14.161   7.918  0.00  0.00     0.042 A 
HETATM    9  C   UNK N   1      34.045  15.437   8.451  0.00  0.00     0.064 A 
HETATM   10  C   UNK N   1      34.512  15.543   9.787  0.00  0.00     0.088 A 
HETATM   11  C   UNK N   1      33.896  16.647   7.590  0.00  0.00     0.197 A 
HETATM   12  O   UNK N   1      34.198  17.751   8.016  0.00  0.00    -0.286 OA
HETATM   13  C   UNK N   1      33.379  16.521   6.206  0.00  0.00     0.030 A 
HETATM   14  C   UNK N   1      33.238  17.671   5.417  0.00  0.00     0.016 A 
HETATM   15  C   UNK N   1      32.712  17.589   4.131  0.00  0.00     0.004 A 
HETATM   16  C   UNK N   1      32.287  16.362   3.630  0.00  0.00     0.038 A 
HETATM   17  C   UNK N   1      32.421  15.192   4.395  0.00  0.00     0.081 A 
HETATM   18  C   UNK N   1      33.001  15.266   5.690  0.00  0.00     0.039 A 
HETATM   19  C   UNK N   1      33.198  14.046   6.525  0.00  0.00     0.054 A 
HETATM   20  N   UNK N   1      32.912  12.892   6.042  0.00  0.00    -0.398 N 
ATOM     21  HN  UNK N   1      32.451  12.845   5.133  1.00  0.00     0.156 HD
HETATM   22  H   UNK N   1      33.118  12.050   6.509  0.00  0.00     0.156 HD
ENDROOT
BRANCH   1  23
HETATM   23  O   UNK N   1      34.508  10.675  10.405  0.00  0.00    -0.351 OA
BRANCH  23  24
HETATM   24  C   UNK N   1      33.614  10.036  11.297  0.00  0.00     0.263 C 
HETATM   25  C   UNK N   1      34.067  10.024  12.768  0.00  0.00     0.088 C 
HETATM   26  C   UNK N   1      35.270   9.117  12.910  0.00  0.00     0.110 C 
HETATM   27  C   UNK N   1      34.915   7.740  12.364  0.00  0.00     0.169 C 
HETATM   28  C   UNK N   1      34.428   7.902  10.915  0.00  0.00     0.151 C 
HETATM   29  C   UNK N   1      34.070   6.543  10.339  0.00  0.00     0.042 C 
HETATM   30  O   UNK N   1      33.284   8.733  10.855  0.00  0.00    -0.354 OA
BRANCH  26  31
HETATM   31  N   UNK N   1      35.644   9.030  14.310  0.00  0.00    -0.423 N 
HETATM   32  H   UNK N   1      35.338   8.487  15.116  0.00  0.00     0.150 HD
HETATM   33  H   UNK N   1      36.401   9.672  14.544  0.00  0.00     0.150 HD
ENDBRANCH  26  31
BRANCH  27  34
HETATM   34  O   UNK N   1      36.043   6.918  12.408  0.00  0.00    -0.391 OA
HETATM   35  H   UNK N   1      36.365   6.383  13.149  0.00  0.00     0.210 HD
ENDBRANCH  27  34
ENDBRANCH  23  24
ENDBRANCH   1  23
BRANCH   3  36
HETATM   36  C   UNK N   1      36.666  13.131  13.563  0.00  0.00     0.184 C 
HETATM   37  O   UNK N   1      36.975  11.993  13.885  0.00  0.00    -0.292 OA
BRANCH  36  38
HETATM   38  C   UNK N   1      36.428  14.148  14.643  0.00  0.00     0.245 C 
BRANCH  38  39
HETATM   39  O   UNK N   1      37.570  14.341  15.415  0.00  0.00    -0.393 OA
HETATM   40  H   UNK N   1      38.313  14.083  15.983  0.00  0.00     0.209 HD
ENDBRANCH  38  39
ENDBRANCH  36  38
ENDBRANCH   3  36
BRANCH   3  41
HETATM   41  O   UNK N   1      37.542  14.113  11.577  0.00  0.00    -0.382 OA
HETATM   42  H   UNK N   1      38.084  14.878  11.823  0.00  0.00     0.211 HD
ENDBRANCH   3  41
BRANCH   7  43
HETATM   43  O   UNK N   1      33.704  11.782   8.201  0.00  0.00    -0.359 OA
HETATM   44  H   UNK N   1      32.848  11.461   7.998  0.00  0.00     0.217 HD
ENDBRANCH   7  43
BRANCH  10  45
HETATM   45  O   UNK N   1      34.796  16.742  10.328  0.00  0.00    -0.359 OA
HETATM   46  H   UNK N   1      34.253  17.497  10.217  0.00  0.00     0.217 HD
ENDBRANCH  10  45
BRANCH  17  47
HETATM   47  O   UNK N   1      31.971  14.004   3.916  0.00  0.00    -0.355 OA
HETATM   48  C   UNK N   1      32.107  13.611   2.604  0.00  0.00     0.210 C 
ENDBRANCH  17  47
TORSDOF 11
ENDMDL
MODEL 8
REMARK VINA RESULT:      -7.2      6.017     11.496
REMARK  11 active torsions:
REMARK  status: ('A' for Active; 'I' for Inactive)
REMARK    1  A    between atoms: C_3  and  O_40 
REMARK    2  A    between atoms: C_4  and  N_39 
REMARK    3  A    between atoms: C_6  and  O_8 
REMARK    4  A    between atoms: C_9  and  O_8 
REMARK    5  A    between atoms: C_11  and  C_34 
REMARK    6  A    between atoms: C_11  and  O_38 
REMARK    7  A    between atoms: C_15  and  O_33 
REMARK    8  A    between atoms: C_18  and  O_19 
REMARK    9  A    between atoms: C_26  and  O_31 
REMARK   10  A    between atoms: C_34  and  C_36 
REMARK   11  A    between atoms: C_36  and  O_37 
ROOT
HETATM    1  C   UNK N   1      30.167  16.763   5.869  0.00  0.00     0.164 C 
HETATM    2  C   UNK N   1      29.861  16.410   7.327  0.00  0.00     0.083 C 
HETATM    3  C   UNK N   1      30.876  17.087   8.291  0.00  0.00     0.127 C 
HETATM    4  C   UNK N   1      32.116  17.660   7.554  0.00  0.00     0.088 C 
HETATM    5  C   UNK N   1      32.549  16.706   6.469  0.00  0.00    -0.009 A 
HETATM    6  C   UNK N   1      31.564  16.259   5.588  0.00  0.00     0.014 A 
HETATM    7  C   UNK N   1      31.888  15.361   4.560  0.00  0.00     0.088 A 
HETATM    8  C   UNK N   1      33.220  14.897   4.421  0.00  0.00     0.042 A 
HETATM    9  C   UNK N   1      34.208  15.318   5.345  0.00  0.00     0.064 A 
HETATM   10  C   UNK N   1      33.865  16.243   6.365  0.00  0.00     0.088 A 
HETATM   11  C   UNK N   1      35.591  14.765   5.242  0.00  0.00     0.197 A 
HETATM   12  O   UNK N   1      36.447  15.083   6.054  0.00  0.00    -0.286 OA
HETATM   13  C   UNK N   1      35.941  13.823   4.152  0.00  0.00     0.030 A 
HETATM   14  C   UNK N   1      37.248  13.322   4.068  0.00  0.00     0.016 A 
HETATM   15  C   UNK N   1      37.616  12.473   3.029  0.00  0.00     0.004 A 
HETATM   16  C   UNK N   1      36.694  12.141   2.041  0.00  0.00     0.038 A 
HETATM   17  C   UNK N   1      35.376  12.623   2.102  0.00  0.00     0.081 A 
HETATM   18  C   UNK N   1      34.984  13.452   3.187  0.00  0.00     0.039 A 
HETATM   19  C   UNK N   1      33.586  13.958   3.314  0.00  0.00     0.054 A 
HETATM   20  N   UNK N   1      32.694  13.578   2.474  0.00  0.00    -0.398 N 
ATOM     21  HN  UNK N   1      32.987  13.024   1.669  1.00  0.00     0.156 HD
HETATM   22  H   UNK N   1      31.740  13.798   2.571  0.00  0.00     0.156 HD
ENDROOT
BRANCH   1  23
HETATM   23  O   UNK N   1      29.150  16.323   5.005  0.00  0.00    -0.351 OA
BRANCH  23  24
HETATM   24  C   UNK N   1      28.784  17.429   4.202  0.00  0.00     0.263 C 
HETATM   25  C   UNK N   1      28.432  18.707   4.983  0.00  0.00     0.088 C 
HETATM   26  C   UNK N   1      27.136  18.490   5.732  0.00  0.00     0.110 C 
HETATM   27  C   UNK N   1      26.062  18.057   4.743  0.00  0.00     0.169 C 
HETATM   28  C   UNK N   1      26.562  16.811   3.995  0.00  0.00     0.151 C 
HETATM   29  C   UNK N   1      25.510  16.351   3.002  0.00  0.00     0.042 C 
HETATM   30  O   UNK N   1      27.757  17.089   3.289  0.00  0.00    -0.354 OA
BRANCH  26  31
HETATM   31  N   UNK N   1      26.753  19.722   6.397  0.00  0.00    -0.423 N 
HETATM   32  H   UNK N   1      26.448  19.983   7.334  0.00  0.00     0.150 HD
HETATM   33  H   UNK N   1      26.800  20.525   5.771  0.00  0.00     0.150 HD
ENDBRANCH  26  31
BRANCH  27  34
HETATM   34  O   UNK N   1      24.883  17.768   5.434  0.00  0.00    -0.391 OA
HETATM   35  H   UNK N   1      24.584  16.910   5.773  0.00  0.00     0.210 HD
ENDBRANCH  27  34
ENDBRANCH  23  24
ENDBRANCH   1  23
BRANCH   3  36
HETATM   36  C   UNK N   1      30.144  18.184   9.031  0.00  0.00     0.184 C 
HETATM   37  O   UNK N   1      30.658  19.285   9.157  0.00  0.00    -0.292 OA
BRANCH  36  38
HETATM   38  C   UNK N   1      28.833  17.915   9.715  0.00  0.00     0.245 C 
BRANCH  38  39
HETATM   39  O   UNK N   1      27.794  18.614   9.106  0.00  0.00    -0.393 OA
HETATM   40  H   UNK N   1      26.886  18.770   8.802  0.00  0.00     0.209 HD
ENDBRANCH  38  39
ENDBRANCH  36  38
ENDBRANCH   3  36
BRANCH   3  41
HETATM   41  O   UNK N   1      31.336  16.128   9.198  0.00  0.00    -0.382 OA
HETATM   42  H   UNK N   1      31.295  16.004  10.159  0.00  0.00     0.211 HD
ENDBRANCH   3  41
BRANCH   7  43
HETATM   43  O   UNK N   1      30.928  14.933   3.724  0.00  0.00    -0.359 OA
HETATM   44  H   UNK N   1      31.099  14.519   2.901  0.00  0.00     0.217 HD
ENDBRANCH   7  43
BRANCH  10  45
HETATM   45  O   UNK N   1      34.785  16.677   7.245  0.00  0.00    -0.359 OA
HETATM   46  H   UNK N   1      34.777  16.447   8.153  0.00  0.00     0.217 HD
ENDBRANCH  10  45
BRANCH  17  47
HETATM   47  O   UNK N   1      34.491  12.326   1.116  0.00  0.00    -0.355 OA
HETATM   48  C   UNK N   1      34.762  12.483  -0.224  0.00  0.00     0.210 C 
ENDBRANCH  17  47
TORSDOF 11
ENDMDL
MODEL 9
REMARK VINA RESULT:      -7.0      6.615     10.446
REMARK  11 active torsions:
REMARK  status: ('A' for Active; 'I' for Inactive)
REMARK    1  A    between atoms: C_3  and  O_40 
REMARK    2  A    between atoms: C_4  and  N_39 
REMARK    3  A    between atoms: C_6  and  O_8 
REMARK    4  A    between atoms: C_9  and  O_8 
REMARK    5  A    between atoms: C_11  and  C_34 
REMARK    6  A    between atoms: C_11  and  O_38 
REMARK    7  A    between atoms: C_15  and  O_33 
REMARK    8  A    between atoms: C_18  and  O_19 
REMARK    9  A    between atoms: C_26  and  O_31 
REMARK   10  A    between atoms: C_34  and  C_36 
REMARK   11  A    between atoms: C_36  and  O_37 
ROOT
HETATM    1  C   UNK N   1      32.273  14.457   5.724  0.00  0.00     0.164 C 
HETATM    2  C   UNK N   1      33.679  14.881   6.159  0.00  0.00     0.083 C 
HETATM    3  C   UNK N   1      33.775  14.994   7.707  0.00  0.00     0.127 C 
HETATM    4  C   UNK N   1      32.386  14.984   8.399  0.00  0.00     0.088 C 
HETATM    5  C   UNK N   1      31.409  15.801   7.592  0.00  0.00    -0.009 A 
HETATM    6  C   UNK N   1      31.328  15.524   6.227  0.00  0.00     0.014 A 
HETATM    7  C   UNK N   1      30.449  16.250   5.409  0.00  0.00     0.088 A 
HETATM    8  C   UNK N   1      29.650  17.279   5.967  0.00  0.00     0.042 A 
HETATM    9  C   UNK N   1      29.769  17.587   7.345  0.00  0.00     0.064 A 
HETATM   10  C   UNK N   1      30.647  16.827   8.160  0.00  0.00     0.088 A 
HETATM   11  C   UNK N   1      28.982  18.723   7.912  0.00  0.00     0.197 A 
HETATM   12  O   UNK N   1      29.101  19.032   9.088  0.00  0.00    -0.286 OA
HETATM   13  C   UNK N   1      28.047  19.487   7.054  0.00  0.00     0.030 A 
HETATM   14  C   UNK N   1      27.311  20.544   7.608  0.00  0.00     0.016 A 
HETATM   15  C   UNK N   1      26.392  21.249   6.837  0.00  0.00     0.004 A 
HETATM   16  C   UNK N   1      26.170  20.886   5.512  0.00  0.00     0.038 A 
HETATM   17  C   UNK N   1      26.896  19.835   4.928  0.00  0.00     0.081 A 
HETATM   18  C   UNK N   1      27.869  19.144   5.699  0.00  0.00     0.039 A 
HETATM   19  C   UNK N   1      28.690  18.046   5.112  0.00  0.00     0.054 A 
HETATM   20  N   UNK N   1      28.579  17.766   3.865  0.00  0.00    -0.398 N 
ATOM     21  HN  UNK N   1      27.846  18.228   3.325  1.00  0.00     0.156 HD
HETATM   22  H   UNK N   1      29.167  17.124   3.405  0.00  0.00     0.156 HD
ENDROOT
BRANCH   1  23
HETATM   23  O   UNK N   1      32.222  14.162   4.352  0.00  0.00    -0.351 OA
BRANCH  23  24
HETATM   24  C   UNK N   1      32.187  12.752   4.235  0.00  0.00     0.263 C 
HETATM   25  C   UNK N   1      32.494  12.213   2.827  0.00  0.00     0.088 C 
HETATM   26  C   UNK N   1      31.360  12.579   1.896  0.00  0.00     0.110 C 
HETATM   27  C   UNK N   1      30.053  12.059   2.483  0.00  0.00     0.169 C 
HETATM   28  C   UNK N   1      29.899  12.626   3.903  0.00  0.00     0.151 C 
HETATM   29  C   UNK N   1      28.602  12.129   4.516  0.00  0.00     0.042 C 
HETATM   30  O   UNK N   1      30.973  12.220   4.731  0.00  0.00    -0.354 OA
BRANCH  26  31
HETATM   31  N   UNK N   1      31.601  11.995   0.590  0.00  0.00    -0.423 N 
HETATM   32  H   UNK N   1      32.234  12.179  -0.188  0.00  0.00     0.150 HD
HETATM   33  H   UNK N   1      30.985  11.204   0.404  0.00  0.00     0.150 HD
ENDBRANCH  26  31
BRANCH  27  34
HETATM   34  O   UNK N   1      28.988  12.468   1.679  0.00  0.00    -0.391 OA
HETATM   35  H   UNK N   1      29.011  13.059   0.911  0.00  0.00     0.210 HD
ENDBRANCH  27  34
ENDBRANCH  23  24
ENDBRANCH   1  23
BRANCH   3  36
HETATM   36  C   UNK N   1      34.622  13.842   8.198  0.00  0.00     0.184 C 
HETATM   37  O   UNK N   1      34.222  12.694   8.078  0.00  0.00    -0.292 OA
BRANCH  36  38
HETATM   38  C   UNK N   1      35.908  14.086   8.937  0.00  0.00     0.245 C 
BRANCH  38  39
HETATM   39  O   UNK N   1      35.687  14.802  10.110  0.00  0.00    -0.393 OA
HETATM   40  H   UNK N   1      35.171  15.298  10.765  0.00  0.00     0.209 HD
ENDBRANCH  38  39
ENDBRANCH  36  38
ENDBRANCH   3  36
BRANCH   3  41
HETATM   41  O   UNK N   1      34.392  16.206   8.027  0.00  0.00    -0.382 OA
HETATM   42  H   UNK N   1      34.587  17.033   7.558  0.00  0.00     0.211 HD
ENDBRANCH   3  41
BRANCH   7  43
HETATM   43  O   UNK N   1      30.387  15.978   4.095  0.00  0.00    -0.359 OA
HETATM   44  H   UNK N   1      30.356  15.111   3.743  0.00  0.00     0.217 HD
ENDBRANCH   7  43
BRANCH  10  45
HETATM   45  O   UNK N   1      30.766  17.082   9.476  0.00  0.00    -0.359 OA
HETATM   46  H   UNK N   1      30.079  17.456   9.991  0.00  0.00     0.217 HD
ENDBRANCH  10  45
BRANCH  17  47
HETATM   47  O   UNK N   1      26.649  19.461   3.647  0.00  0.00    -0.355 OA
HETATM   48  C   UNK N   1      25.682  20.039   2.857  0.00  0.00     0.210 C 
ENDBRANCH  17  47
TORSDOF 11
ENDMDL
