MODEL 1
REMARK VINA RESULT:      -8.8      0.000      0.000
REMARK  12 active torsions:
REMARK  status: ('A' for Active; 'I' for Inactive)
REMARK       I    between atoms: C_2  and  N_4 
REMARK    1  A    between atoms: N_7  and  C_10 
REMARK    2  A    between atoms: C_13  and  C_16 
REMARK    3  A    between atoms: C_16  and  N_17 
REMARK    4  A    between atoms: C_18  and  N_17 
REMARK       I    between atoms: N_17  and  C_43 
REMARK    5  A    between atoms: C_18  and  C_19 
REMARK    6  A    between atoms: C_18  and  C_26 
REMARK    7  A    between atoms: C_19  and  C_20 
REMARK       I    between atoms: C_26  and  N_28 
REMARK    8  A    between atoms: N_31  and  C_34 
REMARK    9  A    between atoms: C_34  and  C_35 
REMARK   10  A    between atoms: C_43  and  C_45 
REMARK   11  A    between atoms: C_46  and  C_47 
REMARK   12  A    between atoms: C_50  and  C_53 
ROOT
HETATM    1  C   UNK N   1      24.538  12.544   7.416  0.00  0.00    -0.030 A 
HETATM    2  C   UNK N   1      25.120  13.242   8.468  0.00  0.00     0.010 A 
HETATM    3  C   UNK N   1      24.619  13.116   9.761  0.00  0.00     0.023 A 
HETATM    4  C   UNK N   1      23.529  12.281  10.007  0.00  0.00     0.044 A 
HETATM    5  C   UNK N   1      22.924  11.589   8.950  0.00  0.00     0.023 A 
HETATM    6  C   UNK N   1      23.425  11.724   7.649  0.00  0.00     0.010 A 
HETATM    7  C   UNK N   1      23.038  12.110  11.344  0.00  0.00     0.099 C 
HETATM    8  N   UNK N   1      22.612  11.946  12.409  0.00  0.00    -0.191 NA
ENDROOT
BRANCH   1   9
HETATM    9  C   UNK N   1      25.171  12.637   6.069  0.00  0.00     0.311 C 
BRANCH   9  10
HETATM   10  N   UNK N   1      24.305  12.066   5.019  0.00  0.00     0.095 N 
HETATM   11  C   UNK N   1      24.842  10.757   4.624  0.00  0.00     0.292 C 
HETATM   12  C   UNK N   1      26.253  10.884   4.034  0.00  0.00     0.156 C 
HETATM   13  N   UNK N   1      26.442  12.223   3.534  0.00  0.00    -0.347 N 
HETATM   14  C   UNK N   1      27.595  12.911   3.774  0.00  0.00     0.243 C 
HETATM   15  C   UNK N   1      25.331  12.842   2.852  0.00  0.00     0.156 C 
HETATM   16  O   UNK N   1      28.516  12.389   4.382  0.00  0.00    -0.271 OA
HETATM   17  C   UNK N   1      24.168  12.961   3.843  0.00  0.00     0.292 C 
BRANCH  14  18
HETATM   18  C   UNK N   1      27.790  14.283   3.206  0.00  0.00     0.184 C 
BRANCH  18  19
HETATM   19  N   UNK N   1      27.274  15.357   4.039  0.00  0.00    -0.331 N 
HETATM   20  C   UNK N   1      26.613  16.422   3.455  0.00  0.00     0.244 C 
HETATM   21  O   UNK N   1      26.182  16.300   2.320  0.00  0.00    -0.268 OA
BRANCH  19  22
HETATM   22  C   UNK N   1      27.549  15.281   5.454  0.00  0.00     0.165 C 
BRANCH  22  23
HETATM   23  C   UNK N   1      28.936  15.794   5.735  0.00  0.00    -0.040 C 
HETATM   24  C   UNK N   1      29.996  14.890   5.895  0.00  0.00     0.011 C 
HETATM   25  C   UNK N   1      31.105  15.244   6.624  0.00  0.00     0.030 C 
HETATM   26  C   UNK N   1      31.192  16.533   7.163  0.00  0.00     0.030 C 
HETATM   27  C   UNK N   1      30.257  17.504   6.785  0.00  0.00     0.030 C 
HETATM   28  C   UNK N   1      29.112  17.128   6.091  0.00  0.00     0.011 C 
BRANCH  26  29
HETATM   29  N   UNK N   1      31.862  16.699   8.402  0.00  0.00    -0.378 N 
HETATM   30  C   UNK N   1      32.778  17.831   8.457  0.00  0.00     0.143 C 
HETATM   31  C   UNK N   1      34.143  17.329   7.966  0.00  0.00     0.145 C 
HETATM   32  N   UNK N   1      34.469  16.298   8.910  0.00  0.00    -0.349 N 
HETATM   33  C   UNK N   1      35.134  16.646  10.044  0.00  0.00     0.215 C 
HETATM   34  C   UNK N   1      33.670  15.096   8.868  0.00  0.00     0.145 C 
HETATM   35  C   UNK N   1      35.146  15.744  11.235  0.00  0.00     0.117 C 
HETATM   36  O   UNK N   1      35.644  17.753  10.140  0.00  0.00    -0.274 OA
HETATM   37  C   UNK N   1      32.221  15.517   9.182  0.00  0.00     0.143 C 
ENDBRANCH  26  29
ENDBRANCH  22  23
ENDBRANCH  19  22
BRANCH  20  38
HETATM   38  C   UNK N   1      26.385  17.741   4.127  0.00  0.00     0.075 C 
HETATM   39  C   UNK N   1      25.276  17.939   4.894  0.00  0.00     0.017 C 
BRANCH  39  40
HETATM   40  C   UNK N   1      24.124  16.985   4.884  0.00  0.00    -0.036 A 
HETATM   41  C   UNK N   1      23.146  17.081   3.890  0.00  0.00     0.012 A 
HETATM   42  C   UNK N   1      21.953  16.349   3.999  0.00  0.00     0.009 A 
HETATM   43  C   UNK N   1      21.716  15.524   5.114  0.00  0.00    -0.051 A 
HETATM   44  C   UNK N   1      22.719  15.402   6.087  0.00  0.00     0.009 A 
HETATM   45  C   UNK N   1      23.915  16.109   5.966  0.00  0.00     0.012 A 
BRANCH  43  46
HETATM   46  C   UNK N   1      20.376  14.832   5.320  0.00  0.00    -0.024 C 
HETATM   47  C   UNK N   1      19.346  15.817   5.847  0.00  0.00     0.019 C 
HETATM   48  C   UNK N   1      19.879  14.281   3.999  0.00  0.00     0.019 C 
HETATM   49  C   UNK N   1      20.449  13.661   6.287  0.00  0.00     0.019 C 
ENDBRANCH  43  46
ENDBRANCH  39  40
ENDBRANCH  20  38
ENDBRANCH  18  19
BRANCH  18  50
HETATM   50  C   UNK N   1      28.922  14.443   2.187  0.00  0.00     0.073 C 
BRANCH  50  51
HETATM   51  C   UNK N   1      30.254  14.947   2.591  0.00  0.00    -0.056 A 
HETATM   52  C   UNK N   1      30.474  16.325   2.623  0.00  0.00     0.007 A 
HETATM   53  C   UNK N   1      31.744  16.824   2.916  0.00  0.00     0.001 A 
HETATM   54  C   UNK N   1      32.798  15.945   3.174  0.00  0.00     0.000 A 
HETATM   55  C   UNK N   1      32.584  14.563   3.121  0.00  0.00     0.001 A 
HETATM   56  C   UNK N   1      31.316  14.064   2.809  0.00  0.00     0.007 A 
ENDBRANCH  50  51
ENDBRANCH  18  50
ENDBRANCH  14  18
ENDBRANCH   9  10
ENDBRANCH   1   9
TORSDOF 12
ENDMDL
MODEL 2
REMARK VINA RESULT:      -8.5      1.892      2.733
REMARK  12 active torsions:
REMARK  status: ('A' for Active; 'I' for Inactive)
REMARK       I    between atoms: C_2  and  N_4 
REMARK    1  A    between atoms: N_7  and  C_10 
REMARK    2  A    between atoms: C_13  and  C_16 
REMARK    3  A    between atoms: C_16  and  N_17 
REMARK    4  A    between atoms: C_18  and  N_17 
REMARK       I    between atoms: N_17  and  C_43 
REMARK    5  A    between atoms: C_18  and  C_19 
REMARK    6  A    between atoms: C_18  and  C_26 
REMARK    7  A    between atoms: C_19  and  C_20 
REMARK       I    between atoms: C_26  and  N_28 
REMARK    8  A    between atoms: N_31  and  C_34 
REMARK    9  A    between atoms: C_34  and  C_35 
REMARK   10  A    between atoms: C_43  and  C_45 
REMARK   11  A    between atoms: C_46  and  C_47 
REMARK   12  A    between atoms: C_50  and  C_53 
ROOT
HETATM    1  C   UNK N   1      23.577  14.282   6.137  0.00  0.00    -0.030 A 
HETATM    2  C   UNK N   1      23.277  13.126   6.849  0.00  0.00     0.010 A 
HETATM    3  C   UNK N   1      22.265  13.127   7.804  0.00  0.00     0.023 A 
HETATM    4  C   UNK N   1      21.539  14.294   8.048  0.00  0.00     0.044 A 
HETATM    5  C   UNK N   1      21.846  15.468   7.350  0.00  0.00     0.023 A 
HETATM    6  C   UNK N   1      22.871  15.466   6.396  0.00  0.00     0.010 A 
HETATM    7  C   UNK N   1      20.463  14.289   8.997  0.00  0.00     0.099 C 
HETATM    8  N   UNK N   1      19.587  14.326   9.754  0.00  0.00    -0.191 NA
ENDROOT
BRANCH   1   9
HETATM    9  C   UNK N   1      24.602  14.204   5.059  0.00  0.00     0.311 C 
BRANCH   9  10
HETATM   10  N   UNK N   1      23.985  14.000   3.734  0.00  0.00     0.095 N 
HETATM   11  C   UNK N   1      24.367  12.672   3.234  0.00  0.00     0.292 C 
HETATM   12  C   UNK N   1      25.887  12.556   3.054  0.00  0.00     0.156 C 
HETATM   13  N   UNK N   1      26.450  13.873   2.893  0.00  0.00    -0.347 N 
HETATM   14  C   UNK N   1      27.590  14.239   3.546  0.00  0.00     0.243 C 
HETATM   15  C   UNK N   1      25.712  14.820   2.091  0.00  0.00     0.156 C 
HETATM   16  O   UNK N   1      28.189  13.440   4.249  0.00  0.00    -0.271 OA
HETATM   17  C   UNK N   1      24.356  15.060   2.763  0.00  0.00     0.292 C 
BRANCH  14  18
HETATM   18  C   UNK N   1      28.185  15.596   3.329  0.00  0.00     0.184 C 
BRANCH  18  19
HETATM   19  N   UNK N   1      27.905  16.551   4.389  0.00  0.00    -0.331 N 
HETATM   20  C   UNK N   1      27.496  17.832   4.069  0.00  0.00     0.244 C 
HETATM   21  O   UNK N   1      27.061  18.052   2.950  0.00  0.00    -0.268 OA
BRANCH  19  22
HETATM   22  C   UNK N   1      28.143  16.116   5.744  0.00  0.00     0.165 C 
BRANCH  22  23
HETATM   23  C   UNK N   1      29.610  16.220   6.067  0.00  0.00    -0.040 C 
HETATM   24  C   UNK N   1      30.363  15.056   6.275  0.00  0.00     0.011 C 
HETATM   25  C   UNK N   1      31.505  15.096   7.037  0.00  0.00     0.030 C 
HETATM   26  C   UNK N   1      31.939  16.319   7.563  0.00  0.00     0.030 C 
HETATM   27  C   UNK N   1      31.330  17.508   7.141  0.00  0.00     0.030 C 
HETATM   28  C   UNK N   1      30.147  17.457   6.413  0.00  0.00     0.011 C 
BRANCH  26  29
HETATM   29  N   UNK N   1      32.591  16.316   8.822  0.00  0.00    -0.378 N 
HETATM   30  C   UNK N   1      33.733  17.215   8.925  0.00  0.00     0.143 C 
HETATM   31  C   UNK N   1      34.967  16.431   8.460  0.00  0.00     0.145 C 
HETATM   32  N   UNK N   1      35.029  15.340   9.390  0.00  0.00    -0.349 N 
HETATM   33  C   UNK N   1      35.720  15.516  10.548  0.00  0.00     0.215 C 
HETATM   34  C   UNK N   1      33.985  14.345   9.303  0.00  0.00     0.145 C 
HETATM   35  C   UNK N   1      35.496  14.616  11.720  0.00  0.00     0.117 C 
HETATM   36  O   UNK N   1      36.459  16.481  10.680  0.00  0.00    -0.274 OA
HETATM   37  C   UNK N   1      32.657  15.072   9.587  0.00  0.00     0.143 C 
ENDBRANCH  26  29
ENDBRANCH  22  23
ENDBRANCH  19  22
BRANCH  20  38
HETATM   38  C   UNK N   1      27.553  18.993   5.013  0.00  0.00     0.075 C 
HETATM   39  C   UNK N   1      26.428  19.712   5.287  0.00  0.00     0.017 C 
BRANCH  39  40
HETATM   40  C   UNK N   1      25.176  19.565   4.481  0.00  0.00    -0.036 A 
HETATM   41  C   UNK N   1      24.854  20.521   3.513  0.00  0.00     0.012 A 
HETATM   42  C   UNK N   1      23.583  20.520   2.916  0.00  0.00     0.009 A 
HETATM   43  C   UNK N   1      22.613  19.572   3.291  0.00  0.00    -0.051 A 
HETATM   44  C   UNK N   1      22.960  18.591   4.232  0.00  0.00     0.009 A 
HETATM   45  C   UNK N   1      24.230  18.577   4.808  0.00  0.00     0.012 A 
BRANCH  43  46
HETATM   46  C   UNK N   1      21.189  19.639   2.759  0.00  0.00    -0.024 C 
HETATM   47  C   UNK N   1      21.182  20.132   1.322  0.00  0.00     0.019 C 
HETATM   48  C   UNK N   1      20.568  18.257   2.793  0.00  0.00     0.019 C 
HETATM   49  C   UNK N   1      20.286  20.549   3.576  0.00  0.00     0.019 C 
ENDBRANCH  43  46
ENDBRANCH  39  40
ENDBRANCH  20  38
ENDBRANCH  18  19
BRANCH  18  50
HETATM   50  C   UNK N   1      29.397  15.667   2.395  0.00  0.00     0.073 C 
BRANCH  50  51
HETATM   51  C   UNK N   1      30.779  15.631   2.926  0.00  0.00    -0.056 A 
HETATM   52  C   UNK N   1      31.465  16.834   3.104  0.00  0.00     0.007 A 
HETATM   53  C   UNK N   1      32.798  16.823   3.520  0.00  0.00     0.001 A 
HETATM   54  C   UNK N   1      33.447  15.609   3.755  0.00  0.00     0.000 A 
HETATM   55  C   UNK N   1      32.767  14.403   3.556  0.00  0.00     0.001 A 
HETATM   56  C   UNK N   1      31.437  14.414   3.121  0.00  0.00     0.007 A 
ENDBRANCH  50  51
ENDBRANCH  18  50
ENDBRANCH  14  18
ENDBRANCH   9  10
ENDBRANCH   1   9
TORSDOF 12
ENDMDL
MODEL 3
REMARK VINA RESULT:      -8.5      1.963      4.270
REMARK  12 active torsions:
REMARK  status: ('A' for Active; 'I' for Inactive)
REMARK       I    between atoms: C_2  and  N_4 
REMARK    1  A    between atoms: N_7  and  C_10 
REMARK    2  A    between atoms: C_13  and  C_16 
REMARK    3  A    between atoms: C_16  and  N_17 
REMARK    4  A    between atoms: C_18  and  N_17 
REMARK       I    between atoms: N_17  and  C_43 
REMARK    5  A    between atoms: C_18  and  C_19 
REMARK    6  A    between atoms: C_18  and  C_26 
REMARK    7  A    between atoms: C_19  and  C_20 
REMARK       I    between atoms: C_26  and  N_28 
REMARK    8  A    between atoms: N_31  and  C_34 
REMARK    9  A    between atoms: C_34  and  C_35 
REMARK   10  A    between atoms: C_43  and  C_45 
REMARK   11  A    between atoms: C_46  and  C_47 
REMARK   12  A    between atoms: C_50  and  C_53 
ROOT
HETATM    1  C   UNK N   1      23.035  13.618   7.249  0.00  0.00    -0.030 A 
HETATM    2  C   UNK N   1      22.058  13.236   8.162  0.00  0.00     0.010 A 
HETATM    3  C   UNK N   1      22.415  12.752   9.416  0.00  0.00     0.023 A 
HETATM    4  C   UNK N   1      23.762  12.653   9.767  0.00  0.00     0.044 A 
HETATM    5  C   UNK N   1      24.754  13.017   8.848  0.00  0.00     0.023 A 
HETATM    6  C   UNK N   1      24.391  13.496   7.583  0.00  0.00     0.010 A 
HETATM    7  C   UNK N   1      24.136  12.200  11.076  0.00  0.00     0.099 C 
HETATM    8  N   UNK N   1      24.478  11.839  12.122  0.00  0.00    -0.191 NA
ENDROOT
BRANCH   1   9
HETATM    9  C   UNK N   1      22.599  14.220   5.956  0.00  0.00     0.311 C 
BRANCH   9  10
HETATM   10  N   UNK N   1      21.687  15.361   6.167  0.00  0.00     0.095 N 
HETATM   11  C   UNK N   1      20.812  15.489   4.994  0.00  0.00     0.292 C 
HETATM   12  C   UNK N   1      21.620  15.778   3.721  0.00  0.00     0.156 C 
HETATM   13  N   UNK N   1      22.884  16.368   4.081  0.00  0.00    -0.347 N 
HETATM   14  C   UNK N   1      24.046  15.967   3.492  0.00  0.00     0.243 C 
HETATM   15  C   UNK N   1      22.886  17.334   5.155  0.00  0.00     0.156 C 
HETATM   16  O   UNK N   1      24.037  15.124   2.607  0.00  0.00    -0.271 OA
HETATM   17  C   UNK N   1      22.411  16.630   6.430  0.00  0.00     0.292 C 
BRANCH  14  18
HETATM   18  C   UNK N   1      25.343  16.626   3.846  0.00  0.00     0.184 C 
BRANCH  18  19
HETATM   19  N   UNK N   1      26.427  15.702   4.135  0.00  0.00    -0.331 N 
HETATM   20  C   UNK N   1      27.079  15.061   3.098  0.00  0.00     0.244 C 
HETATM   21  O   UNK N   1      26.975  15.509   1.968  0.00  0.00    -0.268 OA
BRANCH  19  22
HETATM   22  C   UNK N   1      26.721  15.449   5.526  0.00  0.00     0.165 C 
BRANCH  22  23
HETATM   23  C   UNK N   1      27.821  16.364   5.993  0.00  0.00    -0.040 C 
HETATM   24  C   UNK N   1      29.115  16.222   5.472  0.00  0.00     0.011 C 
HETATM   25  C   UNK N   1      30.204  16.650   6.193  0.00  0.00     0.030 C 
HETATM   26  C   UNK N   1      30.007  17.274   7.430  0.00  0.00     0.030 C 
HETATM   27  C   UNK N   1      28.714  17.642   7.821  0.00  0.00     0.030 C 
HETATM   28  C   UNK N   1      27.616  17.162   7.115  0.00  0.00     0.011 C 
BRANCH  26  29
HETATM   29  N   UNK N   1      30.979  17.078   8.444  0.00  0.00    -0.378 N 
HETATM   30  C   UNK N   1      31.892  18.196   8.645  0.00  0.00     0.143 C 
HETATM   31  C   UNK N   1      33.075  17.988   7.690  0.00  0.00     0.145 C 
HETATM   32  N   UNK N   1      33.623  16.733   8.120  0.00  0.00    -0.349 N 
HETATM   33  C   UNK N   1      34.566  16.742   9.101  0.00  0.00     0.215 C 
HETATM   34  C   UNK N   1      32.826  15.553   7.879  0.00  0.00     0.145 C 
HETATM   35  C   UNK N   1      34.877  15.504   9.878  0.00  0.00     0.117 C 
HETATM   36  O   UNK N   1      35.096  17.792   9.431  0.00  0.00    -0.274 OA
HETATM   37  C   UNK N   1      31.515  15.737   8.668  0.00  0.00     0.143 C 
ENDBRANCH  26  29
ENDBRANCH  22  23
ENDBRANCH  19  22
BRANCH  20  38
HETATM   38  C   UNK N   1      27.917  13.831   3.264  0.00  0.00     0.075 C 
HETATM   39  C   UNK N   1      27.404  12.604   2.964  0.00  0.00     0.017 C 
BRANCH  39  40
HETATM   40  C   UNK N   1      25.942  12.392   2.728  0.00  0.00    -0.036 A 
HETATM   41  C   UNK N   1      25.092  12.132   3.806  0.00  0.00     0.012 A 
HETATM   42  C   UNK N   1      23.773  11.708   3.579  0.00  0.00     0.009 A 
HETATM   43  C   UNK N   1      23.293  11.522   2.268  0.00  0.00    -0.051 A 
HETATM   44  C   UNK N   1      24.141  11.824   1.193  0.00  0.00     0.009 A 
HETATM   45  C   UNK N   1      25.443  12.269   1.418  0.00  0.00     0.012 A 
BRANCH  43  46
HETATM   46  C   UNK N   1      21.916  10.931   2.002  0.00  0.00    -0.024 C 
HETATM   47  C   UNK N   1      21.701  10.738   0.511  0.00  0.00     0.019 C 
HETATM   48  C   UNK N   1      21.802   9.582   2.681  0.00  0.00     0.019 C 
HETATM   49  C   UNK N   1      20.782  11.792   2.537  0.00  0.00     0.019 C 
ENDBRANCH  43  46
ENDBRANCH  39  40
ENDBRANCH  20  38
ENDBRANCH  18  19
BRANCH  18  50
HETATM   50  C   UNK N   1      25.536  18.061   3.348  0.00  0.00     0.073 C 
BRANCH  50  51
HETATM   51  C   UNK N   1      26.245  19.070   4.168  0.00  0.00    -0.056 A 
HETATM   52  C   UNK N   1      27.620  19.238   3.992  0.00  0.00     0.007 A 
HETATM   53  C   UNK N   1      28.328  20.119   4.811  0.00  0.00     0.001 A 
HETATM   54  C   UNK N   1      27.662  20.829   5.812  0.00  0.00     0.000 A 
HETATM   55  C   UNK N   1      26.289  20.645   6.005  0.00  0.00     0.001 A 
HETATM   56  C   UNK N   1      25.584  19.749   5.195  0.00  0.00     0.007 A 
ENDBRANCH  50  51
ENDBRANCH  18  50
ENDBRANCH  14  18
ENDBRANCH   9  10
ENDBRANCH   1   9
TORSDOF 12
ENDMDL
MODEL 4
REMARK VINA RESULT:      -8.2      2.890      6.894
REMARK  12 active torsions:
REMARK  status: ('A' for Active; 'I' for Inactive)
REMARK       I    between atoms: C_2  and  N_4 
REMARK    1  A    between atoms: N_7  and  C_10 
REMARK    2  A    between atoms: C_13  and  C_16 
REMARK    3  A    between atoms: C_16  and  N_17 
REMARK    4  A    between atoms: C_18  and  N_17 
REMARK       I    between atoms: N_17  and  C_43 
REMARK    5  A    between atoms: C_18  and  C_19 
REMARK    6  A    between atoms: C_18  and  C_26 
REMARK    7  A    between atoms: C_19  and  C_20 
REMARK       I    between atoms: C_26  and  N_28 
REMARK    8  A    between atoms: N_31  and  C_34 
REMARK    9  A    between atoms: C_34  and  C_35 
REMARK   10  A    between atoms: C_43  and  C_45 
REMARK   11  A    between atoms: C_46  and  C_47 
REMARK   12  A    between atoms: C_50  and  C_53 
ROOT
HETATM    1  C   UNK N   1      21.456  17.636   3.463  0.00  0.00    -0.030 A 
HETATM    2  C   UNK N   1      20.591  17.583   2.375  0.00  0.00     0.010 A 
HETATM    3  C   UNK N   1      20.329  18.726   1.626  0.00  0.00     0.023 A 
HETATM    4  C   UNK N   1      20.942  19.934   1.961  0.00  0.00     0.044 A 
HETATM    5  C   UNK N   1      21.800  20.001   3.066  0.00  0.00     0.023 A 
HETATM    6  C   UNK N   1      22.055  18.851   3.824  0.00  0.00     0.010 A 
HETATM    7  C   UNK N   1      20.714  21.104   1.163  0.00  0.00     0.099 C 
HETATM    8  N   UNK N   1      20.556  22.071   0.545  0.00  0.00    -0.191 NA
ENDROOT
BRANCH   1   9
HETATM    9  C   UNK N   1      21.778  16.365   4.174  0.00  0.00     0.311 C 
BRANCH   9  10
HETATM   10  N   UNK N   1      20.574  15.754   4.771  0.00  0.00     0.095 N 
HETATM   11  C   UNK N   1      20.437  16.236   6.152  0.00  0.00     0.292 C 
HETATM   12  C   UNK N   1      21.637  15.819   7.014  0.00  0.00     0.156 C 
HETATM   13  N   UNK N   1      22.267  14.663   6.427  0.00  0.00    -0.347 N 
HETATM   14  C   UNK N   1      23.624  14.575   6.320  0.00  0.00     0.243 C 
HETATM   15  C   UNK N   1      21.407  13.646   5.872  0.00  0.00     0.156 C 
HETATM   16  O   UNK N   1      24.341  15.458   6.763  0.00  0.00    -0.271 OA
HETATM   17  C   UNK N   1      20.605  14.272   4.726  0.00  0.00     0.292 C 
BRANCH  14  18
HETATM   18  C   UNK N   1      24.260  13.346   5.750  0.00  0.00     0.184 C 
BRANCH  18  19
HETATM   19  N   UNK N   1      24.793  13.512   4.408  0.00  0.00    -0.331 N 
HETATM   20  C   UNK N   1      24.947  12.409   3.588  0.00  0.00     0.244 C 
HETATM   21  O   UNK N   1      24.344  11.384   3.857  0.00  0.00    -0.268 OA
BRANCH  19  22
HETATM   22  C   UNK N   1      25.205  14.842   4.025  0.00  0.00     0.165 C 
BRANCH  22  23
HETATM   23  C   UNK N   1      26.707  14.940   4.048  0.00  0.00    -0.040 C 
HETATM   24  C   UNK N   1      27.422  14.452   5.151  0.00  0.00     0.011 C 
HETATM   25  C   UNK N   1      28.666  14.953   5.447  0.00  0.00     0.030 C 
HETATM   26  C   UNK N   1      29.237  15.918   4.610  0.00  0.00     0.030 C 
HETATM   27  C   UNK N   1      28.634  16.209   3.380  0.00  0.00     0.030 C 
HETATM   28  C   UNK N   1      27.353  15.740   3.110  0.00  0.00     0.011 C 
BRANCH  26  29
HETATM   29  N   UNK N   1      30.070  16.906   5.194  0.00  0.00    -0.378 N 
HETATM   30  C   UNK N   1      31.302  17.179   4.464  0.00  0.00     0.143 C 
HETATM   31  C   UNK N   1      32.362  16.201   4.986  0.00  0.00     0.145 C 
HETATM   32  N   UNK N   1      32.452  16.532   6.380  0.00  0.00    -0.349 N 
HETATM   33  C   UNK N   1      33.327  17.502   6.759  0.00  0.00     0.215 C 
HETATM   34  C   UNK N   1      31.309  16.212   7.204  0.00  0.00     0.145 C 
HETATM   35  C   UNK N   1      33.193  18.182   8.083  0.00  0.00     0.117 C 
HETATM   36  O   UNK N   1      34.173  17.904   5.974  0.00  0.00    -0.274 OA
HETATM   37  C   UNK N   1      30.123  17.024   6.650  0.00  0.00     0.143 C 
ENDBRANCH  26  29
ENDBRANCH  22  23
ENDBRANCH  19  22
BRANCH  20  38
HETATM   38  C   UNK N   1      25.820  12.382   2.371  0.00  0.00     0.075 C 
HETATM   39  C   UNK N   1      25.299  12.670   1.145  0.00  0.00     0.017 C 
BRANCH  39  40
HETATM   40  C   UNK N   1      23.824  12.755   0.910  0.00  0.00    -0.036 A 
HETATM   41  C   UNK N   1      23.160  13.973   1.075  0.00  0.00     0.012 A 
HETATM   42  C   UNK N   1      21.757  14.018   1.082  0.00  0.00     0.009 A 
HETATM   43  C   UNK N   1      20.999  12.840   0.939  0.00  0.00    -0.051 A 
HETATM   44  C   UNK N   1      21.674  11.627   0.733  0.00  0.00     0.009 A 
HETATM   45  C   UNK N   1      23.067  11.586   0.702  0.00  0.00     0.012 A 
BRANCH  43  46
HETATM   46  C   UNK N   1      19.485  12.847   1.082  0.00  0.00    -0.024 C 
HETATM   47  C   UNK N   1      19.076  12.278   2.430  0.00  0.00     0.019 C 
HETATM   48  C   UNK N   1      18.971  14.269   0.987  0.00  0.00     0.019 C 
HETATM   49  C   UNK N   1      18.777  12.049  -0.002  0.00  0.00     0.019 C 
ENDBRANCH  43  46
ENDBRANCH  39  40
ENDBRANCH  20  38
ENDBRANCH  18  19
BRANCH  18  50
HETATM   50  C   UNK N   1      24.760  12.307   6.760  0.00  0.00     0.073 C 
BRANCH  50  51
HETATM   51  C   UNK N   1      24.264  12.291   8.154  0.00  0.00    -0.056 A 
HETATM   52  C   UNK N   1      25.030  12.897   9.152  0.00  0.00     0.007 A 
HETATM   53  C   UNK N   1      24.628  12.820  10.486  0.00  0.00     0.001 A 
HETATM   54  C   UNK N   1      23.460  12.134  10.825  0.00  0.00     0.000 A 
HETATM   55  C   UNK N   1      22.703  11.508   9.830  0.00  0.00     0.001 A 
HETATM   56  C   UNK N   1      23.116  11.570   8.495  0.00  0.00     0.007 A 
ENDBRANCH  50  51
ENDBRANCH  18  50
ENDBRANCH  14  18
ENDBRANCH   9  10
ENDBRANCH   1   9
TORSDOF 12
ENDMDL
MODEL 5
REMARK VINA RESULT:      -8.0      4.487      9.647
REMARK  12 active torsions:
REMARK  status: ('A' for Active; 'I' for Inactive)
REMARK       I    between atoms: C_2  and  N_4 
REMARK    1  A    between atoms: N_7  and  C_10 
REMARK    2  A    between atoms: C_13  and  C_16 
REMARK    3  A    between atoms: C_16  and  N_17 
REMARK    4  A    between atoms: C_18  and  N_17 
REMARK       I    between atoms: N_17  and  C_43 
REMARK    5  A    between atoms: C_18  and  C_19 
REMARK    6  A    between atoms: C_18  and  C_26 
REMARK    7  A    between atoms: C_19  and  C_20 
REMARK       I    between atoms: C_26  and  N_28 
REMARK    8  A    between atoms: N_31  and  C_34 
REMARK    9  A    between atoms: C_34  and  C_35 
REMARK   10  A    between atoms: C_43  and  C_45 
REMARK   11  A    between atoms: C_46  and  C_47 
REMARK   12  A    between atoms: C_50  and  C_53 
ROOT
HETATM    1  C   UNK N   1      21.127  17.084   3.676  0.00  0.00    -0.030 A 
HETATM    2  C   UNK N   1      20.151  17.195   2.692  0.00  0.00     0.010 A 
HETATM    3  C   UNK N   1      20.005  18.378   1.972  0.00  0.00     0.023 A 
HETATM    4  C   UNK N   1      20.847  19.460   2.233  0.00  0.00     0.044 A 
HETATM    5  C   UNK N   1      21.820  19.364   3.236  0.00  0.00     0.023 A 
HETATM    6  C   UNK N   1      21.958  18.176   3.964  0.00  0.00     0.010 A 
HETATM    7  C   UNK N   1      20.733  20.664   1.462  0.00  0.00     0.099 C 
HETATM    8  N   UNK N   1      20.674  21.653   0.863  0.00  0.00    -0.191 NA
ENDROOT
BRANCH   1   9
HETATM    9  C   UNK N   1      21.306  15.767   4.350  0.00  0.00     0.311 C 
BRANCH   9  10
HETATM   10  N   UNK N   1      20.216  15.492   5.307  0.00  0.00     0.095 N 
HETATM   11  C   UNK N   1      20.332  16.426   6.435  0.00  0.00     0.292 C 
HETATM   12  C   UNK N   1      21.658  16.238   7.185  0.00  0.00     0.156 C 
HETATM   13  N   UNK N   1      22.156  14.906   6.948  0.00  0.00    -0.347 N 
HETATM   14  C   UNK N   1      23.470  14.682   6.664  0.00  0.00     0.243 C 
HETATM   15  C   UNK N   1      21.194  13.830   6.929  0.00  0.00     0.156 C 
HETATM   16  O   UNK N   1      24.270  15.606   6.650  0.00  0.00    -0.271 OA
HETATM   17  C   UNK N   1      20.213  14.086   5.780  0.00  0.00     0.292 C 
BRANCH  14  18
HETATM   18  C   UNK N   1      23.976  13.287   6.468  0.00  0.00     0.184 C 
BRANCH  18  19
HETATM   19  N   UNK N   1      24.128  12.893   5.076  0.00  0.00    -0.331 N 
HETATM   20  C   UNK N   1      25.342  13.073   4.439  0.00  0.00     0.244 C 
HETATM   21  O   UNK N   1      26.344  13.241   5.114  0.00  0.00    -0.268 OA
BRANCH  19  22
HETATM   22  C   UNK N   1      22.953  12.390   4.405  0.00  0.00     0.165 C 
BRANCH  22  23
HETATM   23  C   UNK N   1      22.892  10.891   4.532  0.00  0.00    -0.040 C 
HETATM   24  C   UNK N   1      22.459  10.310   5.733  0.00  0.00     0.011 C 
HETATM   25  C   UNK N   1      22.854   9.038   6.069  0.00  0.00     0.030 C 
HETATM   26  C   UNK N   1      23.651   8.307   5.180  0.00  0.00     0.030 C 
HETATM   27  C   UNK N   1      23.863   8.792   3.883  0.00  0.00     0.030 C 
HETATM   28  C   UNK N   1      23.506  10.098   3.567  0.00  0.00     0.011 C 
BRANCH  26  29
HETATM   29  N   UNK N   1      24.604   7.405   5.718  0.00  0.00    -0.378 N 
HETATM   30  C   UNK N   1      24.684   6.118   5.038  0.00  0.00     0.143 C 
HETATM   31  C   UNK N   1      23.661   5.191   5.708  0.00  0.00     0.145 C 
HETATM   32  N   UNK N   1      24.116   5.134   7.068  0.00  0.00    -0.349 N 
HETATM   33  C   UNK N   1      25.027   4.183   7.406  0.00  0.00     0.215 C 
HETATM   34  C   UNK N   1      23.991   6.342   7.851  0.00  0.00     0.145 C 
HETATM   35  C   UNK N   1      25.842   4.309   8.652  0.00  0.00     0.117 C 
HETATM   36  O   UNK N   1      25.266   3.263   6.637  0.00  0.00    -0.274 OA
HETATM   37  C   UNK N   1      24.857   7.410   7.157  0.00  0.00     0.143 C 
ENDBRANCH  26  29
ENDBRANCH  22  23
ENDBRANCH  19  22
BRANCH  20  38
HETATM   38  C   UNK N   1      25.518  13.078   2.953  0.00  0.00     0.075 C 
HETATM   39  C   UNK N   1      26.023  14.178   2.325  0.00  0.00     0.017 C 
BRANCH  39  40
HETATM   40  C   UNK N   1      26.165  15.494   3.021  0.00  0.00    -0.036 A 
HETATM   41  C   UNK N   1      25.048  16.316   3.193  0.00  0.00     0.012 A 
HETATM   42  C   UNK N   1      25.205  17.640   3.634  0.00  0.00     0.009 A 
HETATM   43  C   UNK N   1      26.486  18.163   3.894  0.00  0.00    -0.051 A 
HETATM   44  C   UNK N   1      27.598  17.318   3.758  0.00  0.00     0.009 A 
HETATM   45  C   UNK N   1      27.439  15.996   3.343  0.00  0.00     0.012 A 
BRANCH  43  46
HETATM   46  C   UNK N   1      26.690  19.631   4.238  0.00  0.00    -0.024 C 
HETATM   47  C   UNK N   1      26.214  20.515   3.098  0.00  0.00     0.019 C 
HETATM   48  C   UNK N   1      25.892  19.978   5.478  0.00  0.00     0.019 C 
HETATM   49  C   UNK N   1      28.140  19.981   4.534  0.00  0.00     0.019 C 
ENDBRANCH  43  46
ENDBRANCH  39  40
ENDBRANCH  20  38
ENDBRANCH  18  19
BRANCH  18  50
HETATM   50  C   UNK N   1      24.761  12.676   7.633  0.00  0.00     0.073 C 
BRANCH  50  51
HETATM   51  C   UNK N   1      24.129  12.458   8.954  0.00  0.00    -0.056 A 
HETATM   52  C   UNK N   1      24.909  12.584  10.105  0.00  0.00     0.007 A 
HETATM   53  C   UNK N   1      24.360  12.299  11.356  0.00  0.00     0.001 A 
HETATM   54  C   UNK N   1      23.031  11.883  11.457  0.00  0.00     0.000 A 
HETATM   55  C   UNK N   1      22.255  11.734  10.303  0.00  0.00     0.001 A 
HETATM   56  C   UNK N   1      22.811  12.003   9.048  0.00  0.00     0.007 A 
ENDBRANCH  50  51
ENDBRANCH  18  50
ENDBRANCH  14  18
ENDBRANCH   9  10
ENDBRANCH   1   9
TORSDOF 12
ENDMDL
MODEL 6
REMARK VINA RESULT:      -8.0      3.055      7.235
REMARK  12 active torsions:
REMARK  status: ('A' for Active; 'I' for Inactive)
REMARK       I    between atoms: C_2  and  N_4 
REMARK    1  A    between atoms: N_7  and  C_10 
REMARK    2  A    between atoms: C_13  and  C_16 
REMARK    3  A    between atoms: C_16  and  N_17 
REMARK    4  A    between atoms: C_18  and  N_17 
REMARK       I    between atoms: N_17  and  C_43 
REMARK    5  A    between atoms: C_18  and  C_19 
REMARK    6  A    between atoms: C_18  and  C_26 
REMARK    7  A    between atoms: C_19  and  C_20 
REMARK       I    between atoms: C_26  and  N_28 
REMARK    8  A    between atoms: N_31  and  C_34 
REMARK    9  A    between atoms: C_34  and  C_35 
REMARK   10  A    between atoms: C_43  and  C_45 
REMARK   11  A    between atoms: C_46  and  C_47 
REMARK   12  A    between atoms: C_50  and  C_53 
ROOT
HETATM    1  C   UNK N   1      20.821  17.845   4.179  0.00  0.00    -0.030 A 
HETATM    2  C   UNK N   1      21.825  18.805   4.096  0.00  0.00     0.010 A 
HETATM    3  C   UNK N   1      21.887  19.667   3.005  0.00  0.00     0.023 A 
HETATM    4  C   UNK N   1      20.935  19.576   1.989  0.00  0.00     0.044 A 
HETATM    5  C   UNK N   1      19.932  18.600   2.055  0.00  0.00     0.023 A 
HETATM    6  C   UNK N   1      19.877  17.728   3.149  0.00  0.00     0.010 A 
HETATM    7  C   UNK N   1      20.966  20.493   0.886  0.00  0.00     0.099 C 
HETATM    8  N   UNK N   1      20.957  21.214  -0.020  0.00  0.00    -0.191 NA
ENDROOT
BRANCH   1   9
HETATM    9  C   UNK N   1      20.740  17.011   5.412  0.00  0.00     0.311 C 
BRANCH   9  10
HETATM   10  N   UNK N   1      19.499  16.214   5.450  0.00  0.00     0.095 N 
HETATM   11  C   UNK N   1      19.077  16.065   6.849  0.00  0.00     0.292 C 
HETATM   12  C   UNK N   1      20.129  15.312   7.675  0.00  0.00     0.156 C 
HETATM   13  N   UNK N   1      20.942  14.510   6.796  0.00  0.00    -0.347 N 
HETATM   14  C   UNK N   1      22.298  14.464   6.931  0.00  0.00     0.243 C 
HETATM   15  C   UNK N   1      20.276  13.831   5.709  0.00  0.00     0.156 C 
HETATM   16  O   UNK N   1      22.854  15.070   7.834  0.00  0.00    -0.271 OA
HETATM   17  C   UNK N   1      19.650  14.890   4.797  0.00  0.00     0.292 C 
BRANCH  14  18
HETATM   18  C   UNK N   1      23.119  13.588   6.037  0.00  0.00     0.184 C 
BRANCH  18  19
HETATM   19  N   UNK N   1      23.644  14.257   4.858  0.00  0.00    -0.331 N 
HETATM   20  C   UNK N   1      24.085  13.509   3.782  0.00  0.00     0.244 C 
HETATM   21  O   UNK N   1      23.734  12.344   3.689  0.00  0.00    -0.268 OA
BRANCH  19  22
HETATM   22  C   UNK N   1      23.741  15.697   4.908  0.00  0.00     0.165 C 
BRANCH  22  23
HETATM   23  C   UNK N   1      25.167  16.106   5.170  0.00  0.00    -0.040 C 
HETATM   24  C   UNK N   1      25.811  16.989   4.292  0.00  0.00     0.011 C 
HETATM   25  C   UNK N   1      27.181  16.988   4.190  0.00  0.00     0.030 C 
HETATM   26  C   UNK N   1      27.931  16.134   5.006  0.00  0.00     0.030 C 
HETATM   27  C   UNK N   1      27.302  15.448   6.052  0.00  0.00     0.030 C 
HETATM   28  C   UNK N   1      25.914  15.412   6.118  0.00  0.00     0.011 C 
BRANCH  26  29
HETATM   29  N   UNK N   1      29.137  15.596   4.488  0.00  0.00    -0.378 N 
HETATM   30  C   UNK N   1      29.928  14.830   5.442  0.00  0.00     0.143 C 
HETATM   31  C   UNK N   1      30.860  15.820   6.153  0.00  0.00     0.145 C 
HETATM   32  N   UNK N   1      31.645  16.357   5.078  0.00  0.00    -0.349 N 
HETATM   33  C   UNK N   1      32.789  15.711   4.728  0.00  0.00     0.215 C 
HETATM   34  C   UNK N   1      30.963  17.207   4.130  0.00  0.00     0.145 C 
HETATM   35  C   UNK N   1      33.429  15.947   3.398  0.00  0.00     0.117 C 
HETATM   36  O   UNK N   1      33.252  14.845   5.457  0.00  0.00    -0.274 OA
HETATM   37  C   UNK N   1      29.871  16.345   3.469  0.00  0.00     0.143 C 
ENDBRANCH  26  29
ENDBRANCH  22  23
ENDBRANCH  19  22
BRANCH  20  38
HETATM   38  C   UNK N   1      24.982  14.033   2.704  0.00  0.00     0.075 C 
HETATM   39  C   UNK N   1      24.460  14.427   1.507  0.00  0.00     0.017 C 
BRANCH  39  40
HETATM   40  C   UNK N   1      23.053  14.110   1.113  0.00  0.00    -0.036 A 
HETATM   41  C   UNK N   1      22.020  14.992   1.443  0.00  0.00     0.012 A 
HETATM   42  C   UNK N   1      20.681  14.603   1.285  0.00  0.00     0.009 A 
HETATM   43  C   UNK N   1      20.357  13.319   0.807  0.00  0.00    -0.051 A 
HETATM   44  C   UNK N   1      21.399  12.456   0.439  0.00  0.00     0.009 A 
HETATM   45  C   UNK N   1      22.730  12.850   0.574  0.00  0.00     0.012 A 
BRANCH  43  46
HETATM   46  C   UNK N   1      18.917  12.829   0.758  0.00  0.00    -0.024 C 
HETATM   47  C   UNK N   1      18.418  12.508   2.157  0.00  0.00     0.019 C 
HETATM   48  C   UNK N   1      18.032  13.909   0.170  0.00  0.00     0.019 C 
HETATM   49  C   UNK N   1      18.735  11.590  -0.105  0.00  0.00     0.019 C 
ENDBRANCH  43  46
ENDBRANCH  39  40
ENDBRANCH  20  38
ENDBRANCH  18  19
BRANCH  18  50
HETATM   50  C   UNK N   1      23.750  12.353   6.687  0.00  0.00     0.073 C 
BRANCH  50  51
HETATM   51  C   UNK N   1      23.819  12.211   8.159  0.00  0.00    -0.056 A 
HETATM   52  C   UNK N   1      22.743  11.632   8.834  0.00  0.00     0.007 A 
HETATM   53  C   UNK N   1      22.745  11.565  10.228  0.00  0.00     0.001 A 
HETATM   54  C   UNK N   1      23.823  12.082  10.950  0.00  0.00     0.000 A 
HETATM   55  C   UNK N   1      24.892  12.683  10.277  0.00  0.00     0.001 A 
HETATM   56  C   UNK N   1      24.880  12.765   8.881  0.00  0.00     0.007 A 
ENDBRANCH  50  51
ENDBRANCH  18  50
ENDBRANCH  14  18
ENDBRANCH   9  10
ENDBRANCH   1   9
TORSDOF 12
ENDMDL
MODEL 7
REMARK VINA RESULT:      -7.9      4.435      9.230
REMARK  12 active torsions:
REMARK  status: ('A' for Active; 'I' for Inactive)
REMARK       I    between atoms: C_2  and  N_4 
REMARK    1  A    between atoms: N_7  and  C_10 
REMARK    2  A    between atoms: C_13  and  C_16 
REMARK    3  A    between atoms: C_16  and  N_17 
REMARK    4  A    between atoms: C_18  and  N_17 
REMARK       I    between atoms: N_17  and  C_43 
REMARK    5  A    between atoms: C_18  and  C_19 
REMARK    6  A    between atoms: C_18  and  C_26 
REMARK    7  A    between atoms: C_19  and  C_20 
REMARK       I    between atoms: C_26  and  N_28 
REMARK    8  A    between atoms: N_31  and  C_34 
REMARK    9  A    between atoms: C_34  and  C_35 
REMARK   10  A    between atoms: C_43  and  C_45 
REMARK   11  A    between atoms: C_46  and  C_47 
REMARK   12  A    between atoms: C_50  and  C_53 
ROOT
HETATM    1  C   UNK N   1      35.119  13.002  12.366  0.00  0.00    -0.030 A 
HETATM    2  C   UNK N   1      34.575  11.817  12.849  0.00  0.00     0.010 A 
HETATM    3  C   UNK N   1      34.643  11.511  14.205  0.00  0.00     0.023 A 
HETATM    4  C   UNK N   1      35.256  12.399  15.090  0.00  0.00     0.044 A 
HETATM    5  C   UNK N   1      35.823  13.586  14.610  0.00  0.00     0.023 A 
HETATM    6  C   UNK N   1      35.760  13.888  13.244  0.00  0.00     0.010 A 
HETATM    7  C   UNK N   1      35.287  12.111  16.495  0.00  0.00     0.099 C 
HETATM    8  N   UNK N   1      35.333  11.915  17.635  0.00  0.00    -0.191 NA
ENDROOT
BRANCH   1   9
HETATM    9  C   UNK N   1      34.934  13.329  10.923  0.00  0.00     0.311 C 
BRANCH   9  10
HETATM   10  N   UNK N   1      35.919  12.630  10.076  0.00  0.00     0.095 N 
HETATM   11  C   UNK N   1      37.207  13.331  10.172  0.00  0.00     0.292 C 
HETATM   12  C   UNK N   1      37.101  14.773   9.656  0.00  0.00     0.156 C 
HETATM   13  N   UNK N   1      35.984  14.874   8.750  0.00  0.00    -0.347 N 
HETATM   14  C   UNK N   1      35.116  15.924   8.812  0.00  0.00     0.243 C 
HETATM   15  C   UNK N   1      35.766  13.778   7.837  0.00  0.00     0.156 C 
HETATM   16  O   UNK N   1      35.291  16.830   9.612  0.00  0.00    -0.271 OA
HETATM   17  C   UNK N   1      35.480  12.519   8.663  0.00  0.00     0.292 C 
BRANCH  14  18
HETATM   18  C   UNK N   1      33.990  16.035   7.832  0.00  0.00     0.184 C 
BRANCH  18  19
HETATM   19  N   UNK N   1      32.701  15.599   8.345  0.00  0.00    -0.331 N 
HETATM   20  C   UNK N   1      31.907  16.484   9.051  0.00  0.00     0.244 C 
HETATM   21  O   UNK N   1      32.128  17.681   8.957  0.00  0.00    -0.268 OA
BRANCH  19  22
HETATM   22  C   UNK N   1      32.348  14.214   8.142  0.00  0.00     0.165 C 
BRANCH  22  23
HETATM   23  C   UNK N   1      32.055  13.968   6.686  0.00  0.00    -0.040 C 
HETATM   24  C   UNK N   1      30.951  14.585   6.082  0.00  0.00     0.011 C 
HETATM   25  C   UNK N   1      30.365  14.026   4.972  0.00  0.00     0.030 C 
HETATM   26  C   UNK N   1      30.911  12.862   4.418  0.00  0.00     0.030 C 
HETATM   27  C   UNK N   1      32.155  12.401   4.867  0.00  0.00     0.030 C 
HETATM   28  C   UNK N   1      32.715  12.938   6.021  0.00  0.00     0.011 C 
BRANCH  26  29
HETATM   29  N   UNK N   1      30.031  11.927   3.818  0.00  0.00    -0.378 N 
HETATM   30  C   UNK N   1      30.586  11.204   2.680  0.00  0.00     0.143 C 
HETATM   31  C   UNK N   1      30.295  12.043   1.429  0.00  0.00     0.145 C 
HETATM   32  N   UNK N   1      28.861  12.107   1.406  0.00  0.00    -0.349 N 
HETATM   33  C   UNK N   1      28.180  11.122   0.762  0.00  0.00     0.215 C 
HETATM   34  C   UNK N   1      28.224  12.881   2.446  0.00  0.00     0.145 C 
HETATM   35  C   UNK N   1      26.729  10.888   1.034  0.00  0.00     0.117 C 
HETATM   36  O   UNK N   1      28.774  10.345   0.029  0.00  0.00    -0.274 OA
HETATM   37  C   UNK N   1      28.598  12.216   3.784  0.00  0.00     0.143 C 
ENDBRANCH  26  29
ENDBRANCH  22  23
ENDBRANCH  19  22
BRANCH  20  38
HETATM   38  C   UNK N   1      30.777  16.073   9.943  0.00  0.00     0.075 C 
HETATM   39  C   UNK N   1      29.493  16.390   9.615  0.00  0.00     0.017 C 
BRANCH  39  40
HETATM   40  C   UNK N   1      29.169  17.371   8.533  0.00  0.00    -0.036 A 
HETATM   41  C   UNK N   1      28.678  18.637   8.862  0.00  0.00     0.012 A 
HETATM   42  C   UNK N   1      28.158  19.475   7.863  0.00  0.00     0.009 A 
HETATM   43  C   UNK N   1      28.109  19.050   6.522  0.00  0.00    -0.051 A 
HETATM   44  C   UNK N   1      28.642  17.795   6.195  0.00  0.00     0.009 A 
HETATM   45  C   UNK N   1      29.181  16.971   7.183  0.00  0.00     0.012 A 
BRANCH  43  46
HETATM   46  C   UNK N   1      27.426  19.884   5.448  0.00  0.00    -0.024 C 
HETATM   47  C   UNK N   1      27.431  21.354   5.835  0.00  0.00     0.019 C 
HETATM   48  C   UNK N   1      28.169  19.732   4.137  0.00  0.00     0.019 C 
HETATM   49  C   UNK N   1      25.987  19.468   5.192  0.00  0.00     0.019 C 
ENDBRANCH  43  46
ENDBRANCH  39  40
ENDBRANCH  20  38
ENDBRANCH  18  19
BRANCH  18  50
HETATM   50  C   UNK N   1      34.175  17.043   6.694  0.00  0.00     0.073 C 
BRANCH  50  51
HETATM   51  C   UNK N   1      33.463  16.885   5.405  0.00  0.00    -0.056 A 
HETATM   52  C   UNK N   1      33.947  15.967   4.473  0.00  0.00     0.007 A 
HETATM   53  C   UNK N   1      33.347  15.861   3.218  0.00  0.00     0.001 A 
HETATM   54  C   UNK N   1      32.262  16.678   2.891  0.00  0.00     0.000 A 
HETATM   55  C   UNK N   1      31.789  17.615   3.816  0.00  0.00     0.001 A 
HETATM   56  C   UNK N   1      32.404  17.732   5.067  0.00  0.00     0.007 A 
ENDBRANCH  50  51
ENDBRANCH  18  50
ENDBRANCH  14  18
ENDBRANCH   9  10
ENDBRANCH   1   9
TORSDOF 12
ENDMDL
MODEL 8
REMARK VINA RESULT:      -7.7      2.508      4.616
REMARK  12 active torsions:
REMARK  status: ('A' for Active; 'I' for Inactive)
REMARK       I    between atoms: C_2  and  N_4 
REMARK    1  A    between atoms: N_7  and  C_10 
REMARK    2  A    between atoms: C_13  and  C_16 
REMARK    3  A    between atoms: C_16  and  N_17 
REMARK    4  A    between atoms: C_18  and  N_17 
REMARK       I    between atoms: N_17  and  C_43 
REMARK    5  A    between atoms: C_18  and  C_19 
REMARK    6  A    between atoms: C_18  and  C_26 
REMARK    7  A    between atoms: C_19  and  C_20 
REMARK       I    between atoms: C_26  and  N_28 
REMARK    8  A    between atoms: N_31  and  C_34 
REMARK    9  A    between atoms: C_34  and  C_35 
REMARK   10  A    between atoms: C_43  and  C_45 
REMARK   11  A    between atoms: C_46  and  C_47 
REMARK   12  A    between atoms: C_50  and  C_53 
ROOT
HETATM    1  C   UNK N   1      23.285  11.181   6.120  0.00  0.00    -0.030 A 
HETATM    2  C   UNK N   1      22.568  10.292   5.326  0.00  0.00     0.010 A 
HETATM    3  C   UNK N   1      22.529   8.937   5.643  0.00  0.00     0.023 A 
HETATM    4  C   UNK N   1      23.207   8.464   6.766  0.00  0.00     0.044 A 
HETATM    5  C   UNK N   1      23.948   9.349   7.560  0.00  0.00     0.023 A 
HETATM    6  C   UNK N   1      23.993  10.710   7.235  0.00  0.00     0.010 A 
HETATM    7  C   UNK N   1      23.131   7.077   7.125  0.00  0.00     0.099 C 
HETATM    8  N   UNK N   1      23.095   5.966   7.448  0.00  0.00    -0.191 NA
ENDROOT
BRANCH   1   9
HETATM    9  C   UNK N   1      23.216  12.634   5.794  0.00  0.00     0.311 C 
BRANCH   9  10
HETATM   10  N   UNK N   1      22.574  13.405   6.877  0.00  0.00     0.095 N 
HETATM   11  C   UNK N   1      21.257  13.861   6.412  0.00  0.00     0.292 C 
HETATM   12  C   UNK N   1      21.382  14.793   5.199  0.00  0.00     0.156 C 
HETATM   13  N   UNK N   1      22.696  15.385   5.185  0.00  0.00    -0.347 N 
HETATM   14  C   UNK N   1      23.419  15.475   4.033  0.00  0.00     0.243 C 
HETATM   15  C   UNK N   1      23.255  15.793   6.452  0.00  0.00     0.156 C 
HETATM   16  O   UNK N   1      22.948  15.095   2.971  0.00  0.00    -0.271 OA
HETATM   17  C   UNK N   1      23.402  14.548   7.332  0.00  0.00     0.292 C 
BRANCH  14  18
HETATM   18  C   UNK N   1      24.762  16.136   4.031  0.00  0.00     0.184 C 
BRANCH  18  19
HETATM   19  N   UNK N   1      25.879  15.227   3.828  0.00  0.00    -0.331 N 
HETATM   20  C   UNK N   1      26.239  14.857   2.545  0.00  0.00     0.244 C 
HETATM   21  O   UNK N   1      25.852  15.531   1.605  0.00  0.00    -0.268 OA
BRANCH  19  22
HETATM   22  C   UNK N   1      26.517  14.697   5.009  0.00  0.00     0.165 C 
BRANCH  22  23
HETATM   23  C   UNK N   1      27.638  15.606   5.438  0.00  0.00    -0.040 C 
HETATM   24  C   UNK N   1      28.909  15.466   4.863  0.00  0.00     0.011 C 
HETATM   25  C   UNK N   1      30.028  15.884   5.542  0.00  0.00     0.030 C 
HETATM   26  C   UNK N   1      29.884  16.497   6.792  0.00  0.00     0.030 C 
HETATM   27  C   UNK N   1      28.609  16.864   7.240  0.00  0.00     0.030 C 
HETATM   28  C   UNK N   1      27.482  16.393   6.575  0.00  0.00     0.011 C 
BRANCH  26  29
HETATM   29  N   UNK N   1      30.897  16.289   7.762  0.00  0.00    -0.378 N 
HETATM   30  C   UNK N   1      31.477  17.506   8.315  0.00  0.00     0.143 C 
HETATM   31  C   UNK N   1      32.649  17.899   7.406  0.00  0.00     0.145 C 
HETATM   32  N   UNK N   1      33.528  16.768   7.500  0.00  0.00    -0.349 N 
HETATM   33  C   UNK N   1      34.455  16.751   8.493  0.00  0.00     0.215 C 
HETATM   34  C   UNK N   1      33.075  15.536   6.897  0.00  0.00     0.145 C 
HETATM   35  C   UNK N   1      35.109  15.473   8.911  0.00  0.00     0.117 C 
HETATM   36  O   UNK N   1      34.689  17.767   9.132  0.00  0.00    -0.274 OA
HETATM   37  C   UNK N   1      31.782  15.133   7.632  0.00  0.00     0.143 C 
ENDBRANCH  26  29
ENDBRANCH  22  23
ENDBRANCH  19  22
BRANCH  20  38
HETATM   38  C   UNK N   1      27.084  13.664   2.221  0.00  0.00     0.075 C 
HETATM   39  C   UNK N   1      26.529  12.570   1.628  0.00  0.00     0.017 C 
BRANCH  39  40
HETATM   40  C   UNK N   1      25.047  12.390   1.523  0.00  0.00    -0.036 A 
HETATM   41  C   UNK N   1      24.331  11.860   2.600  0.00  0.00     0.012 A 
HETATM   42  C   UNK N   1      22.991  11.475   2.437  0.00  0.00     0.009 A 
HETATM   43  C   UNK N   1      22.355  11.601   1.188  0.00  0.00    -0.051 A 
HETATM   44  C   UNK N   1      23.068  12.172   0.124  0.00  0.00     0.009 A 
HETATM   45  C   UNK N   1      24.392  12.576   0.292  0.00  0.00     0.012 A 
BRANCH  43  46
HETATM   46  C   UNK N   1      20.950  11.063   0.954  0.00  0.00    -0.024 C 
HETATM   47  C   UNK N   1      20.017  12.184   0.527  0.00  0.00     0.019 C 
HETATM   48  C   UNK N   1      20.981  10.021  -0.146  0.00  0.00     0.019 C 
HETATM   49  C   UNK N   1      20.354  10.392   2.181  0.00  0.00     0.019 C 
ENDBRANCH  43  46
ENDBRANCH  39  40
ENDBRANCH  20  38
ENDBRANCH  18  19
BRANCH  18  50
HETATM   50  C   UNK N   1      24.786  17.629   3.691  0.00  0.00     0.073 C 
BRANCH  50  51
HETATM   51  C   UNK N   1      25.788  18.538   4.294  0.00  0.00    -0.056 A 
HETATM   52  C   UNK N   1      25.384  19.419   5.299  0.00  0.00     0.007 A 
HETATM   53  C   UNK N   1      26.287  20.345   5.823  0.00  0.00     0.001 A 
HETATM   54  C   UNK N   1      27.596  20.394   5.339  0.00  0.00     0.000 A 
HETATM   55  C   UNK N   1      27.997  19.527   4.317  0.00  0.00     0.001 A 
HETATM   56  C   UNK N   1      27.086  18.612   3.780  0.00  0.00     0.007 A 
ENDBRANCH  50  51
ENDBRANCH  18  50
ENDBRANCH  14  18
ENDBRANCH   9  10
ENDBRANCH   1   9
TORSDOF 12
ENDMDL
MODEL 9
REMARK VINA RESULT:      -7.6      2.947      7.409
REMARK  12 active torsions:
REMARK  status: ('A' for Active; 'I' for Inactive)
REMARK       I    between atoms: C_2  and  N_4 
REMARK    1  A    between atoms: N_7  and  C_10 
REMARK    2  A    between atoms: C_13  and  C_16 
REMARK    3  A    between atoms: C_16  and  N_17 
REMARK    4  A    between atoms: C_18  and  N_17 
REMARK       I    between atoms: N_17  and  C_43 
REMARK    5  A    between atoms: C_18  and  C_19 
REMARK    6  A    between atoms: C_18  and  C_26 
REMARK    7  A    between atoms: C_19  and  C_20 
REMARK       I    between atoms: C_26  and  N_28 
REMARK    8  A    between atoms: N_31  and  C_34 
REMARK    9  A    between atoms: C_34  and  C_35 
REMARK   10  A    between atoms: C_43  and  C_45 
REMARK   11  A    between atoms: C_46  and  C_47 
REMARK   12  A    between atoms: C_50  and  C_53 
ROOT
HETATM    1  C   UNK N   1      21.150  17.852   4.639  0.00  0.00    -0.030 A 
HETATM    2  C   UNK N   1      22.202  18.714   4.347  0.00  0.00     0.010 A 
HETATM    3  C   UNK N   1      22.174  19.496   3.196  0.00  0.00     0.023 A 
HETATM    4  C   UNK N   1      21.081  19.424   2.331  0.00  0.00     0.044 A 
HETATM    5  C   UNK N   1      20.026  18.546   2.608  0.00  0.00     0.023 A 
HETATM    6  C   UNK N   1      20.061  17.753   3.762  0.00  0.00     0.010 A 
HETATM    7  C   UNK N   1      21.024  20.264   1.169  0.00  0.00     0.099 C 
HETATM    8  N   UNK N   1      20.940  20.924   0.222  0.00  0.00    -0.191 NA
ENDROOT
BRANCH   1   9
HETATM    9  C   UNK N   1      21.183  17.108   5.931  0.00  0.00     0.311 C 
BRANCH   9  10
HETATM   10  N   UNK N   1      19.934  16.355   6.157  0.00  0.00     0.095 N 
HETATM   11  C   UNK N   1      19.879  15.946   7.567  0.00  0.00     0.292 C 
HETATM   12  C   UNK N   1      21.047  15.017   7.929  0.00  0.00     0.156 C 
HETATM   13  N   UNK N   1      21.537  14.379   6.732  0.00  0.00    -0.347 N 
HETATM   14  C   UNK N   1      22.874  14.270   6.486  0.00  0.00     0.243 C 
HETATM   15  C   UNK N   1      20.561  13.946   5.761  0.00  0.00     0.156 C 
HETATM   16  O   UNK N   1      23.691  14.672   7.300  0.00  0.00    -0.271 OA
HETATM   17  C   UNK N   1      19.806  15.181   5.259  0.00  0.00     0.292 C 
BRANCH  14  18
HETATM   18  C   UNK N   1      23.363  13.564   5.260  0.00  0.00     0.184 C 
BRANCH  18  19
HETATM   19  N   UNK N   1      23.448  14.403   4.076  0.00  0.00    -0.331 N 
HETATM   20  C   UNK N   1      22.889  13.972   2.887  0.00  0.00     0.244 C 
HETATM   21  O   UNK N   1      22.062  13.075   2.913  0.00  0.00    -0.268 OA
BRANCH  19  22
HETATM   22  C   UNK N   1      24.189  15.635   4.197  0.00  0.00     0.165 C 
BRANCH  22  23
HETATM   23  C   UNK N   1      25.658  15.372   4.000  0.00  0.00    -0.040 C 
HETATM   24  C   UNK N   1      26.422  14.855   5.056  0.00  0.00     0.011 C 
HETATM   25  C   UNK N   1      27.778  15.072   5.103  0.00  0.00     0.030 C 
HETATM   26  C   UNK N   1      28.399  15.770   4.060  0.00  0.00     0.030 C 
HETATM   27  C   UNK N   1      27.678  16.055   2.894  0.00  0.00     0.030 C 
HETATM   28  C   UNK N   1      26.299  15.880   2.874  0.00  0.00     0.011 C 
BRANCH  26  29
HETATM   29  N   UNK N   1      29.515  16.589   4.371  0.00  0.00    -0.378 N 
HETATM   30  C   UNK N   1      30.700  16.345   3.558  0.00  0.00     0.143 C 
HETATM   31  C   UNK N   1      31.509  15.247   4.261  0.00  0.00     0.145 C 
HETATM   32  N   UNK N   1      31.815  15.832   5.535  0.00  0.00    -0.349 N 
HETATM   33  C   UNK N   1      32.946  16.578   5.649  0.00  0.00     0.215 C 
HETATM   34  C   UNK N   1      30.712  16.028   6.447  0.00  0.00     0.145 C 
HETATM   35  C   UNK N   1      33.123  17.538   6.781  0.00  0.00     0.117 C 
HETATM   36  O   UNK N   1      33.790  16.549   4.765  0.00  0.00    -0.274 OA
HETATM   37  C   UNK N   1      29.734  16.999   5.756  0.00  0.00     0.143 C 
ENDBRANCH  26  29
ENDBRANCH  22  23
ENDBRANCH  19  22
BRANCH  20  38
HETATM   38  C   UNK N   1      23.234  14.536   1.543  0.00  0.00     0.075 C 
HETATM   39  C   UNK N   1      23.957  13.798   0.654  0.00  0.00     0.017 C 
BRANCH  39  40
HETATM   40  C   UNK N   1      24.660  12.539   1.053  0.00  0.00    -0.036 A 
HETATM   41  C   UNK N   1      24.085  11.298   0.769  0.00  0.00     0.012 A 
HETATM   42  C   UNK N   1      24.614  10.127   1.335  0.00  0.00     0.009 A 
HETATM   43  C   UNK N   1      25.718  10.186   2.206  0.00  0.00    -0.051 A 
HETATM   44  C   UNK N   1      26.315  11.431   2.453  0.00  0.00     0.009 A 
HETATM   45  C   UNK N   1      25.804  12.591   1.872  0.00  0.00     0.012 A 
BRANCH  43  46
HETATM   46  C   UNK N   1      26.221   8.950   2.937  0.00  0.00    -0.024 C 
HETATM   47  C   UNK N   1      27.457   8.393   2.251  0.00  0.00     0.019 C 
HETATM   48  C   UNK N   1      26.587   9.314   4.361  0.00  0.00     0.019 C 
HETATM   49  C   UNK N   1      25.185   7.840   3.018  0.00  0.00     0.019 C 
ENDBRANCH  43  46
ENDBRANCH  39  40
ENDBRANCH  20  38
ENDBRANCH  18  19
BRANCH  18  50
HETATM   50  C   UNK N   1      24.199  12.301   5.490  0.00  0.00     0.073 C 
BRANCH  50  51
HETATM   51  C   UNK N   1      23.562  10.969   5.605  0.00  0.00    -0.056 A 
HETATM   52  C   UNK N   1      23.839  10.181   6.723  0.00  0.00     0.007 A 
HETATM   53  C   UNK N   1      23.322   8.888   6.814  0.00  0.00     0.001 A 
HETATM   54  C   UNK N   1      22.529   8.379   5.782  0.00  0.00     0.000 A 
HETATM   55  C   UNK N   1      22.268   9.159   4.651  0.00  0.00     0.001 A 
HETATM   56  C   UNK N   1      22.802  10.448   4.553  0.00  0.00     0.007 A 
ENDBRANCH  50  51
ENDBRANCH  18  50
ENDBRANCH  14  18
ENDBRANCH   9  10
ENDBRANCH   1   9
TORSDOF 12
ENDMDL
