REMARK  16 active torsions:
REMARK  status: ('A' for Active; 'I' for Inactive)
REMARK    1  A    between atoms: C_3  and  C_2 
REMARK    2  A    between atoms: C_11  and  C_80 
REMARK    3  A    between atoms: C_15  and  C_77 
REMARK    4  A    between atoms: C_19  and  C_72 
REMARK    5  A    between atoms: C_31  and  C_65 
REMARK    6  A    between atoms: C_35  and  C_60 
REMARK    7  A    between atoms: C_39  and  C_56 
REMARK    8  A    between atoms: C_43  and  C_47 
REMARK    9  A    between atoms: C_47  and  C_48 
REMARK   10  A    between atoms: C_47  and  O_54 
REMARK   11  A    between atoms: C_48  and  C_50 
REMARK   12  A    between atoms: C_50  and  C_51 
REMARK   13  A    between atoms: C_60  and  C_61 
REMARK   14  A    between atoms: C_65  and  C_66 
REMARK   15  A    between atoms: C_72  and  C_73 
REMARK   16  A    between atoms: C_80  and  C_82 
ROOT
HETATM    1  C   UNK N   1       4.479   2.264  -0.624  0.00  0.00     0.176 C 
HETATM    2  C   UNK N   1       2.991   2.329  -0.739  0.00  0.00     0.242 C 
HETATM    3  O   UNK N   1       2.411   3.361  -0.426  0.00  0.00    -0.271 OA
HETATM    4  N   UNK N   1       2.280   1.214  -1.098  0.00  0.00    -0.346 N 
HETATM    5  C   UNK N   1       0.871   1.157  -0.924  0.00  0.00     0.228 C 
HETATM    6  C   UNK N   1       0.452   1.292   0.522  0.00  0.00     0.238 C 
HETATM    7  O   UNK N   1       0.813   2.260   1.173  0.00  0.00    -0.272 OA
HETATM    8  N   UNK N   1      -0.604   0.563   0.933  0.00  0.00    -0.341 N 
HETATM    9  C   UNK N   1      -1.830   1.246   1.411  0.00  0.00     0.182 C 
HETATM   10  C   UNK N   1      -2.932   0.777   0.510  0.00  0.00     0.241 C 
HETATM   11  O   UNK N   1      -2.852   1.010  -0.688  0.00  0.00    -0.271 OA
HETATM   12  N   UNK N   1      -3.838  -0.108   0.992  0.00  0.00    -0.346 N 
HETATM   13  C   UNK N   1      -4.570  -1.028   0.144  0.00  0.00     0.180 C 
HETATM   14  C   UNK N   1      -3.592  -1.962  -0.547  0.00  0.00     0.243 C 
HETATM   15  O   UNK N   1      -2.784  -1.514  -1.349  0.00  0.00    -0.271 OA
HETATM   16  N   UNK N   1      -3.569  -3.289  -0.231  0.00  0.00    -0.341 N 
HETATM   17  C   UNK N   1      -4.667  -3.869   0.549  0.00  0.00     0.179 C 
HETATM   18  C   UNK N   1      -4.551  -5.360   0.671  0.00  0.00     0.241 C 
HETATM   19  O   UNK N   1      -4.513  -5.898   1.766  0.00  0.00    -0.271 OA
HETATM   20  N   UNK N   1      -4.564  -6.072  -0.483  0.00  0.00    -0.346 N 
HETATM   21  C   UNK N   1      -4.576  -7.492  -0.713  0.00  0.00     0.172 C 
HETATM   22  C   UNK N   1      -4.436  -8.413   0.466  0.00  0.00     0.240 C 
HETATM   23  O   UNK N   1      -5.144  -9.407   0.536  0.00  0.00    -0.271 OA
HETATM   24  N   UNK N   1      -3.276  -8.362   1.157  0.00  0.00    -0.346 N 
HETATM   25  C   UNK N   1      -2.277  -9.391   1.004  0.00  0.00     0.172 C 
HETATM   26  C   UNK N   1      -1.813  -9.321  -0.437  0.00  0.00     0.242 C 
HETATM   27  O   UNK N   1      -2.563  -9.686  -1.328  0.00  0.00    -0.271 OA
HETATM   28  N   UNK N   1      -0.615  -8.749  -0.733  0.00  0.00    -0.341 N 
HETATM   29  C   UNK N   1       0.317  -8.446   0.354  0.00  0.00     0.179 C 
HETATM   30  C   UNK N   1       1.582  -7.679   0.028  0.00  0.00     0.243 C 
HETATM   31  O   UNK N   1       1.782  -7.320  -1.124  0.00  0.00    -0.271 OA
HETATM   32  N   UNK N   1       2.532  -7.477   1.003  0.00  0.00    -0.341 N 
HETATM   33  C   UNK N   1       3.925  -7.109   0.756  0.00  0.00     0.179 C 
HETATM   34  C   UNK N   1       4.284  -6.669  -0.655  0.00  0.00     0.243 C 
HETATM   35  O   UNK N   1       4.203  -7.457  -1.585  0.00  0.00    -0.271 OA
HETATM   36  N   UNK N   1       4.661  -5.381  -0.874  0.00  0.00    -0.341 N 
HETATM   37  C   UNK N   1       5.021  -4.540   0.266  0.00  0.00     0.182 C 
HETATM   38  C   UNK N   1       5.204  -3.074   0.018  0.00  0.00     0.243 C 
HETATM   39  O   UNK N   1       5.824  -2.714  -0.971  0.00  0.00    -0.271 OA
HETATM   40  N   UNK N   1       4.938  -2.194   1.034  0.00  0.00    -0.339 N 
HETATM   41  C   UNK N   1       5.590  -0.895   1.137  0.00  0.00     0.207 C 
HETATM   42  C   UNK N   1       5.275   0.078   0.055  0.00  0.00     0.243 C 
HETATM   43  O   UNK N   1       5.545  -0.176  -1.110  0.00  0.00    -0.271 OA
HETATM   44  N   UNK N   1       4.751   1.273   0.382  0.00  0.00    -0.346 N 
HETATM   45  C   UNK N   1       4.178  -2.633   2.184  0.00  0.00     0.153 C 
HETATM   46  C   UNK N   1       4.807  -4.911  -2.239  0.00  0.00     0.153 C 
HETATM   47  C   UNK N   1       2.172  -7.700   2.392  0.00  0.00     0.153 C 
HETATM   48  C   UNK N   1      -0.281  -8.537  -2.131  0.00  0.00     0.153 C 
HETATM   49  C   UNK N   1      -2.749 -10.779   1.415  0.00  0.00     0.042 C 
HETATM   50  C   UNK N   1      -5.723  -7.842  -1.640  0.00  0.00     0.042 C 
HETATM   51  C   UNK N   1      -2.483  -4.109  -0.739  0.00  0.00     0.153 C 
HETATM   52  C   UNK N   1      -0.698  -0.808   0.461  0.00  0.00     0.153 C 
HETATM   53  C   UNK N   1       2.896   0.046  -1.665  0.00  0.00     0.153 C 
HETATM   54  H   UNK N   1      -4.007  -0.126   1.961  0.00  0.00     0.163 HD
HETATM   55  H   UNK N   1      -4.566  -5.525  -1.301  0.00  0.00     0.163 HD
HETATM   56  H   UNK N   1      -3.111  -7.612   1.773  0.00  0.00     0.163 HD
HETATM   57  H   UNK N   1       4.550   1.473   1.325  0.00  0.00     0.163 HD
ENDROOT
BRANCH  41  58
HETATM   58  C   UNK N   1       7.110  -1.015   1.349  0.00  0.00     0.154 C 
BRANCH  58  59
HETATM   59  C   UNK N   1       7.934  -1.254   0.067  0.00  0.00     0.016 C 
HETATM   60  C   UNK N   1       8.713  -2.556   0.060  0.00  0.00     0.013 C 
BRANCH  59  61
HETATM   61  C   UNK N   1       8.863  -0.087  -0.220  0.00  0.00     0.033 C 
BRANCH  61  62
HETATM   62  C   UNK N   1       8.174   0.952  -1.054  0.00  0.00    -0.031 C 
HETATM   63  C   UNK N   1       8.032   2.222  -0.664  0.00  0.00    -0.035 C 
HETATM   64  C   UNK N   1       8.550   2.720   0.644  0.00  0.00     0.036 C 
ENDBRANCH  61  62
ENDBRANCH  59  61
ENDBRANCH  58  59
BRANCH  58  65
HETATM   65  O   UNK N   1       7.398  -1.933   2.364  0.00  0.00    -0.393 OA
HETATM   66  H   UNK N   1       6.947  -2.425   3.068  0.00  0.00     0.210 HD
ENDBRANCH  58  65
ENDBRANCH  41  58
BRANCH  37  67
HETATM   67  C   UNK N   1       6.393  -4.969   0.832  0.00  0.00     0.009 C 
HETATM   68  C   UNK N   1       7.394  -5.476  -0.198  0.00  0.00     0.012 C 
HETATM   69  C   UNK N   1       6.374  -5.792   2.098  0.00  0.00     0.012 C 
ENDBRANCH  37  67
BRANCH   1  70
HETATM   70  C   UNK N   1       5.113   3.576  -0.174  0.00  0.00     0.030 C 
HETATM   71  C   UNK N   1       5.172   4.568  -1.317  0.00  0.00     0.007 C 
ENDBRANCH   1  70
BRANCH  33  72
HETATM   72  C   UNK N   1       4.881  -8.158   1.363  0.00  0.00     0.039 C 
BRANCH  72  73
HETATM   73  C   UNK N   1       5.069  -9.448   0.587  0.00  0.00    -0.020 C 
HETATM   74  C   UNK N   1       6.237  -9.285  -0.365  0.00  0.00     0.009 C 
HETATM   75  C   UNK N   1       5.408 -10.555   1.564  0.00  0.00     0.009 C 
ENDBRANCH  72  73
ENDBRANCH  33  72
BRANCH  29  76
HETATM   76  C   UNK N   1       0.758  -9.796   0.959  0.00  0.00     0.039 C 
BRANCH  76  77
HETATM   77  C   UNK N   1       1.212 -10.815  -0.094  0.00  0.00    -0.020 C 
HETATM   78  C   UNK N   1       2.458 -10.386  -0.847  0.00  0.00     0.009 C 
HETATM   79  C   UNK N   1       1.474 -12.142   0.575  0.00  0.00     0.009 C 
ENDBRANCH  76  77
ENDBRANCH  29  76
BRANCH   9  80
HETATM   80  C   UNK N   1      -1.786   2.819   1.366  0.00  0.00     0.013 C 
HETATM   81  C   UNK N   1      -1.380   3.435   0.015  0.00  0.00     0.012 C 
BRANCH  80  82
HETATM   82  C   UNK N   1      -3.066   3.492   1.859  0.00  0.00     0.002 C 
HETATM   83  C   UNK N   1      -4.151   3.558   0.785  0.00  0.00     0.005 C 
ENDBRANCH  80  82
ENDBRANCH   9  80
BRANCH  13  84
HETATM   84  C   UNK N   1      -5.727  -0.441  -0.681  0.00  0.00     0.009 C 
HETATM   85  C   UNK N   1      -6.849  -0.004   0.238  0.00  0.00     0.012 C 
HETATM   86  C   UNK N   1      -5.370   0.683  -1.633  0.00  0.00     0.012 C 
ENDBRANCH  13  84
BRANCH  17  87
HETATM   87  C   UNK N   1      -5.950  -3.626  -0.262  0.00  0.00     0.039 C 
BRANCH  87  88
HETATM   88  C   UNK N   1      -7.244  -3.545   0.519  0.00  0.00    -0.020 C 
HETATM   89  C   UNK N   1      -8.334  -3.211  -0.478  0.00  0.00     0.009 C 
HETATM   90  C   UNK N   1      -7.581  -4.867   1.177  0.00  0.00     0.009 C 
ENDBRANCH  87  88
ENDBRANCH  17  87
TORSDOF 16
