MODEL 1
REMARK VINA RESULT:      -8.1      0.000      0.000
REMARK  15 active torsions:
REMARK  status: ('A' for Active; 'I' for Inactive)
REMARK    1  A    between atoms: C_2  and  C_3 
REMARK    2  A    between atoms: C_2  and  N_51 
REMARK       I    between atoms: C_3  and  N_5 
REMARK    3  A    between atoms: N_5  and  C_6 
REMARK    4  A    between atoms: C_6  and  C_8 
REMARK    5  A    between atoms: C_8  and  O_10 
REMARK    6  A    between atoms: O_10  and  C_11 
REMARK    7  A    between atoms: C_11  and  C_12 
REMARK    8  A    between atoms: C_12  and  O_13 
REMARK    9  A    between atoms: O_13  and  C_14 
REMARK   10  A    between atoms: C_17  and  C_20 
REMARK   11  A    between atoms: C_22  and  N_44 
REMARK   12  A    between atoms: C_25  and  S_29 
REMARK   13  A    between atoms: S_29  and  C_30 
REMARK   14  A    between atoms: C_30  and  C_31 
REMARK   15  A    between atoms: C_34  and  C_37 
ROOT
HETATM    1  C   UNK N   1      23.931  16.377   4.269  0.00  0.00     0.022 C 
HETATM    2  C   UNK N   1      24.228  15.455   3.256  0.00  0.00     0.101 C 
HETATM    3  C   UNK N   1      23.219  14.918   2.504  0.00  0.00     0.126 C 
HETATM    4  N   UNK N   1      21.959  15.436   2.612  0.00  0.00    -0.335 N 
ATOM      5  HN  UNK N   1      21.221  15.075   2.008  1.00  0.00     0.168 HD
HETATM    6  C   UNK N   1      21.659  16.429   3.515  0.00  0.00     0.093 C 
HETATM    7  C   UNK N   1      22.636  16.881   4.403  0.00  0.00     0.090 C 
HETATM    8  C   UNK N   1      22.256  17.784   5.471  0.00  0.00     0.103 C 
HETATM    9  N   UNK N   1      21.910  18.502   6.310  0.00  0.00    -0.191 NA
HETATM   10  C   UNK N   1      25.598  15.129   2.894  0.00  0.00     0.104 C 
HETATM   11  N   UNK N   1      26.696  14.914   2.600  0.00  0.00    -0.191 NA
ENDROOT
BRANCH   6  12
HETATM   12  S   UNK N   1      19.945  16.981   3.712  0.00  0.00    -0.105 SA
BRANCH  12  13
HETATM   13  C   UNK N   1      19.351  15.354   4.330  0.00  0.00     0.138 C 
BRANCH  13  14
HETATM   14  C   UNK N   1      19.543  15.353   5.798  0.00  0.00     0.026 A 
HETATM   15  C   UNK N   1      18.965  16.322   6.642  0.00  0.00     0.077 A 
HETATM   16  S   UNK N   1      19.741  16.114   8.097  0.00  0.00    -0.081 SA
HETATM   17  C   UNK N   1      20.747  14.891   7.642  0.00  0.00     0.084 A 
HETATM   18  N   UNK N   1      20.507  14.561   6.362  0.00  0.00    -0.352 N 
ATOM     19  HN  UNK N   1      20.986  13.809   5.868  1.00  0.00     0.166 HD
BRANCH  17  20
HETATM   20  C   UNK N   1      21.662  14.139   8.462  0.00  0.00    -0.002 A 
HETATM   21  C   UNK N   1      21.305  13.660   9.726  0.00  0.00     0.016 A 
HETATM   22  C   UNK N   1      22.258  12.995  10.505  0.00  0.00     0.024 A 
HETATM   23  C   UNK N   1      23.550  12.799  10.001  0.00  0.00     0.034 A 
HETATM   24  C   UNK N   1      23.894  13.287   8.742  0.00  0.00     0.024 A 
HETATM   25 Cl   UNK N   1      24.746  11.931  10.925  0.00  0.00    -0.084 Cl
HETATM   26  C   UNK N   1      22.957  13.976   7.987  0.00  0.00     0.016 A 
ENDBRANCH  17  20
ENDBRANCH  13  14
ENDBRANCH  12  13
ENDBRANCH   6  12
BRANCH   1  27
HETATM   27  C   UNK N   1      25.010  16.796   5.115  0.00  0.00    -0.022 A 
HETATM   28  C   UNK N   1      25.546  15.879   6.039  0.00  0.00     0.015 A 
HETATM   29  C   UNK N   1      26.862  15.996   6.418  0.00  0.00     0.037 A 
HETATM   30  C   UNK N   1      27.636  17.005   5.837  0.00  0.00     0.068 A 
HETATM   31  C   UNK N   1      27.063  17.947   4.992  0.00  0.00     0.037 A 
HETATM   32  C   UNK N   1      25.747  17.851   4.639  0.00  0.00     0.015 A 
BRANCH  30  33
HETATM   33  O   UNK N   1      28.923  17.160   6.149  0.00  0.00    -0.349 OA
BRANCH  33  34
HETATM   34  C   UNK N   1      29.774  16.090   6.205  0.00  0.00     0.202 C 
BRANCH  34  35
HETATM   35  C   UNK N   1      31.050  16.331   5.367  0.00  0.00     0.205 C 
BRANCH  35  36
HETATM   36  O   UNK N   1      32.081  17.013   6.006  0.00  0.00    -0.318 OA
BRANCH  36  37
HETATM   37  C   UNK N   1      32.740  16.583   7.123  0.00  0.00     0.281 C 
HETATM   38  O   UNK N   1      33.073  15.414   7.248  0.00  0.00    -0.263 OA
BRANCH  37  39
HETATM   39  C   UNK N   1      32.887  17.497   8.288  0.00  0.00     0.180 C 
HETATM   40  C   UNK N   1      31.598  18.156   8.737  0.00  0.00     0.043 C 
BRANCH  39  41
HETATM   41  N   UNK N   1      33.440  16.640   9.281  0.00  0.00    -0.346 N 
HETATM   42  C   UNK N   1      34.717  16.801   9.665  0.00  0.00     0.240 C 
HETATM   43  O   UNK N   1      35.252  17.900   9.606  0.00  0.00    -0.271 OA
HETATM   44  H   UNK N   1      32.888  15.932   9.685  0.00  0.00     0.163 HD
BRANCH  42  45
HETATM   45  C   UNK N   1      35.527  15.561   9.856  0.00  0.00     0.163 C 
HETATM   46  C   UNK N   1      34.688  14.370  10.268  0.00  0.00     0.041 C 
BRANCH  45  47
HETATM   47  N   UNK N   1      36.487  15.835  10.921  0.00  0.00    -0.419 N 
HETATM   48  H   UNK N   1      36.262  16.514  11.649  0.00  0.00     0.150 HD
HETATM   49  H   UNK N   1      37.383  15.349  10.937  0.00  0.00     0.150 HD
ENDBRANCH  45  47
ENDBRANCH  42  45
ENDBRANCH  39  41
ENDBRANCH  37  39
ENDBRANCH  36  37
ENDBRANCH  35  36
ENDBRANCH  34  35
ENDBRANCH  33  34
ENDBRANCH  30  33
ENDBRANCH   1  27
BRANCH   3  50
HETATM   50  N   UNK N   1      23.505  13.749   1.737  0.00  0.00    -0.366 N 
HETATM   51  C   UNK N   1      23.702  13.835   0.307  0.00  0.00     0.124 C 
HETATM   52  C   UNK N   1      23.477  12.442  -0.216  0.00  0.00     0.021 C 
HETATM   53  C   UNK N   1      23.563  11.540   1.009  0.00  0.00     0.021 C 
HETATM   54  C   UNK N   1      23.359  12.427   2.236  0.00  0.00     0.124 C 
ENDBRANCH   3  50
TORSDOF 15
ENDMDL
MODEL 2
REMARK VINA RESULT:      -8.0      3.103      5.723
REMARK  15 active torsions:
REMARK  status: ('A' for Active; 'I' for Inactive)
REMARK    1  A    between atoms: C_2  and  C_3 
REMARK    2  A    between atoms: C_2  and  N_51 
REMARK       I    between atoms: C_3  and  N_5 
REMARK    3  A    between atoms: N_5  and  C_6 
REMARK    4  A    between atoms: C_6  and  C_8 
REMARK    5  A    between atoms: C_8  and  O_10 
REMARK    6  A    between atoms: O_10  and  C_11 
REMARK    7  A    between atoms: C_11  and  C_12 
REMARK    8  A    between atoms: C_12  and  O_13 
REMARK    9  A    between atoms: O_13  and  C_14 
REMARK   10  A    between atoms: C_17  and  C_20 
REMARK   11  A    between atoms: C_22  and  N_44 
REMARK   12  A    between atoms: C_25  and  S_29 
REMARK   13  A    between atoms: S_29  and  C_30 
REMARK   14  A    between atoms: C_30  and  C_31 
REMARK   15  A    between atoms: C_34  and  C_37 
ROOT
HETATM    1  C   UNK N   1      28.475  17.066   5.481  0.00  0.00     0.022 C 
HETATM    2  C   UNK N   1      27.466  18.023   5.305  0.00  0.00     0.101 C 
HETATM    3  C   UNK N   1      26.314  17.687   4.647  0.00  0.00     0.126 C 
HETATM    4  N   UNK N   1      26.076  16.375   4.347  0.00  0.00    -0.335 N 
ATOM      5  HN  UNK N   1      25.191  16.119   3.911  1.00  0.00     0.168 HD
HETATM    6  C   UNK N   1      26.998  15.391   4.617  0.00  0.00     0.093 C 
HETATM    7  C   UNK N   1      28.245  15.730   5.144  0.00  0.00     0.090 C 
HETATM    8  C   UNK N   1      29.271  14.712   5.241  0.00  0.00     0.103 C 
HETATM    9  N   UNK N   1      30.063  13.870   5.300  0.00  0.00    -0.191 NA
HETATM   10  C   UNK N   1      27.551  19.345   5.905  0.00  0.00     0.104 C 
HETATM   11  N   UNK N   1      27.625  20.377   6.421  0.00  0.00    -0.191 NA
ENDROOT
BRANCH   6  12
HETATM   12  S   UNK N   1      26.687  13.690   4.075  0.00  0.00    -0.105 SA
BRANCH  12  13
HETATM   13  C   UNK N   1      25.971  13.166   5.686  0.00  0.00     0.138 C 
BRANCH  13  14
HETATM   14  C   UNK N   1      24.508  13.369   5.595  0.00  0.00     0.026 A 
HETATM   15  C   UNK N   1      23.734  12.864   4.532  0.00  0.00     0.077 A 
HETATM   16  S   UNK N   1      22.269  13.635   4.686  0.00  0.00    -0.081 SA
HETATM   17  C   UNK N   1      22.639  14.556   6.002  0.00  0.00     0.084 A 
HETATM   18  N   UNK N   1      23.892  14.284   6.406  0.00  0.00    -0.352 N 
ATOM     19  HN  UNK N   1      24.332  14.708   7.222  1.00  0.00     0.166 HD
BRANCH  17  20
HETATM   20  C   UNK N   1      21.770  15.425   6.753  0.00  0.00    -0.002 A 
HETATM   21  C   UNK N   1      21.520  16.744   6.363  0.00  0.00     0.016 A 
HETATM   22  C   UNK N   1      20.722  17.562   7.170  0.00  0.00     0.024 A 
HETATM   23  C   UNK N   1      20.167  17.044   8.347  0.00  0.00     0.034 A 
HETATM   24  C   UNK N   1      20.430  15.729   8.728  0.00  0.00     0.024 A 
HETATM   25 Cl   UNK N   1      19.128  18.020   9.350  0.00  0.00    -0.084 Cl
HETATM   26  C   UNK N   1      21.250  14.932   7.944  0.00  0.00     0.016 A 
ENDBRANCH  17  20
ENDBRANCH  13  14
ENDBRANCH  12  13
ENDBRANCH   6  12
BRANCH   1  27
HETATM   27  C   UNK N   1      29.713  17.511   6.051  0.00  0.00    -0.022 A 
HETATM   28  C   UNK N   1      29.877  17.462   7.448  0.00  0.00     0.015 A 
HETATM   29  C   UNK N   1      31.137  17.304   7.974  0.00  0.00     0.037 A 
HETATM   30  C   UNK N   1      32.213  17.157   7.093  0.00  0.00     0.068 A 
HETATM   31  C   UNK N   1      32.037  17.293   5.722  0.00  0.00     0.037 A 
HETATM   32  C   UNK N   1      30.789  17.481   5.199  0.00  0.00     0.015 A 
BRANCH  30  33
HETATM   33  O   UNK N   1      33.457  16.984   7.540  0.00  0.00    -0.349 OA
BRANCH  33  34
HETATM   34  C   UNK N   1      33.749  17.052   8.875  0.00  0.00     0.202 C 
BRANCH  34  35
HETATM   35  C   UNK N   1      34.193  15.682   9.434  0.00  0.00     0.205 C 
BRANCH  35  36
HETATM   36  O   UNK N   1      35.503  15.304   9.155  0.00  0.00    -0.318 OA
BRANCH  36  37
HETATM   37  C   UNK N   1      36.492  15.138  10.081  0.00  0.00     0.281 C 
HETATM   38  O   UNK N   1      36.843  16.060  10.802  0.00  0.00    -0.263 OA
BRANCH  37  39
HETATM   39  C   UNK N   1      37.288  13.881  10.091  0.00  0.00     0.180 C 
HETATM   40  C   UNK N   1      38.523  13.912   9.212  0.00  0.00     0.043 C 
BRANCH  39  41
HETATM   41  N   UNK N   1      37.601  13.726  11.471  0.00  0.00    -0.346 N 
HETATM   42  C   UNK N   1      36.983  12.776  12.192  0.00  0.00     0.240 C 
HETATM   43  O   UNK N   1      36.580  11.752  11.658  0.00  0.00    -0.271 OA
HETATM   44  H   UNK N   1      38.267  14.314  11.895  0.00  0.00     0.163 HD
BRANCH  42  45
HETATM   45  C   UNK N   1      36.539  13.153  13.566  0.00  0.00     0.163 C 
HETATM   46  C   UNK N   1      35.097  12.779  13.841  0.00  0.00     0.041 C 
BRANCH  45  47
HETATM   47  N   UNK N   1      36.664  14.604  13.675  0.00  0.00    -0.419 N 
HETATM   48  H   UNK N   1      37.428  15.011  14.215  0.00  0.00     0.150 HD
HETATM   49  H   UNK N   1      35.988  15.209  13.211  0.00  0.00     0.150 HD
ENDBRANCH  45  47
ENDBRANCH  42  45
ENDBRANCH  39  41
ENDBRANCH  37  39
ENDBRANCH  36  37
ENDBRANCH  35  36
ENDBRANCH  34  35
ENDBRANCH  33  34
ENDBRANCH  30  33
ENDBRANCH   1  27
BRANCH   3  50
HETATM   50  N   UNK N   1      25.476  18.744   4.184  0.00  0.00    -0.366 N 
HETATM   51  C   UNK N   1      24.074  18.782   4.536  0.00  0.00     0.124 C 
HETATM   52  C   UNK N   1      23.426  19.680   3.517  0.00  0.00     0.021 C 
HETATM   53  C   UNK N   1      24.576  20.441   2.870  0.00  0.00     0.021 C 
HETATM   54  C   UNK N   1      25.855  19.659   3.165  0.00  0.00     0.124 C 
ENDBRANCH   3  50
TORSDOF 15
ENDMDL
MODEL 3
REMARK VINA RESULT:      -7.9      5.141     11.598
REMARK  15 active torsions:
REMARK  status: ('A' for Active; 'I' for Inactive)
REMARK    1  A    between atoms: C_2  and  C_3 
REMARK    2  A    between atoms: C_2  and  N_51 
REMARK       I    between atoms: C_3  and  N_5 
REMARK    3  A    between atoms: N_5  and  C_6 
REMARK    4  A    between atoms: C_6  and  C_8 
REMARK    5  A    between atoms: C_8  and  O_10 
REMARK    6  A    between atoms: O_10  and  C_11 
REMARK    7  A    between atoms: C_11  and  C_12 
REMARK    8  A    between atoms: C_12  and  O_13 
REMARK    9  A    between atoms: O_13  and  C_14 
REMARK   10  A    between atoms: C_17  and  C_20 
REMARK   11  A    between atoms: C_22  and  N_44 
REMARK   12  A    between atoms: C_25  and  S_29 
REMARK   13  A    between atoms: S_29  and  C_30 
REMARK   14  A    between atoms: C_30  and  C_31 
REMARK   15  A    between atoms: C_34  and  C_37 
ROOT
HETATM    1  C   UNK N   1      29.321  17.297   6.018  0.00  0.00     0.022 C 
HETATM    2  C   UNK N   1      29.970  16.596   4.993  0.00  0.00     0.101 C 
HETATM    3  C   UNK N   1      31.141  15.936   5.253  0.00  0.00     0.126 C 
HETATM    4  N   UNK N   1      31.555  15.800   6.548  0.00  0.00    -0.335 N 
ATOM      5  HN  UNK N   1      32.396  15.257   6.744  1.00  0.00     0.168 HD
HETATM    6  C   UNK N   1      30.871  16.376   7.592  0.00  0.00     0.093 C 
HETATM    7  C   UNK N   1      29.764  17.186   7.337  0.00  0.00     0.090 C 
HETATM    8  C   UNK N   1      29.174  17.938   8.426  0.00  0.00     0.103 C 
HETATM    9  N   UNK N   1      28.734  18.523   9.323  0.00  0.00    -0.191 NA
HETATM   10  C   UNK N   1      29.380  16.447   3.672  0.00  0.00     0.104 C 
HETATM   11  N   UNK N   1      28.873  16.312   2.642  0.00  0.00    -0.191 NA
ENDROOT
BRANCH   6  12
HETATM   12  S   UNK N   1      31.541  16.277   9.273  0.00  0.00    -0.105 SA
BRANCH  12  13
HETATM   13  C   UNK N   1      32.914  15.148   8.803  0.00  0.00     0.138 C 
BRANCH  13  14
HETATM   14  C   UNK N   1      33.977  15.314   9.820  0.00  0.00     0.026 A 
HETATM   15  C   UNK N   1      35.123  16.103   9.602  0.00  0.00     0.077 A 
HETATM   16  S   UNK N   1      36.147  15.694  10.845  0.00  0.00    -0.081 SA
HETATM   17  C   UNK N   1      35.180  14.574  11.572  0.00  0.00     0.084 A 
HETATM   18  N   UNK N   1      34.012  14.492  10.914  0.00  0.00    -0.352 N 
ATOM     19  HN  UNK N   1      33.240  13.888  11.197  1.00  0.00     0.166 HD
BRANCH  17  20
HETATM   20  C   UNK N   1      35.412  13.863  12.803  0.00  0.00    -0.002 A 
HETATM   21  C   UNK N   1      36.282  14.342  13.787  0.00  0.00     0.016 A 
HETATM   22  C   UNK N   1      36.519  13.573  14.931  0.00  0.00     0.024 A 
HETATM   23  C   UNK N   1      35.867  12.344  15.086  0.00  0.00     0.034 A 
HETATM   24  C   UNK N   1      35.008  11.874  14.096  0.00  0.00     0.024 A 
HETATM   25 Cl   UNK N   1      36.102  11.384  16.523  0.00  0.00    -0.084 Cl
HETATM   26  C   UNK N   1      34.802  12.622  12.946  0.00  0.00     0.016 A 
ENDBRANCH  17  20
ENDBRANCH  13  14
ENDBRANCH  12  13
ENDBRANCH   6  12
BRANCH   1  27
HETATM   27  C   UNK N   1      28.179  18.085   5.656  0.00  0.00    -0.022 A 
HETATM   28  C   UNK N   1      28.375  19.277   4.933  0.00  0.00     0.015 A 
HETATM   29  C   UNK N   1      27.385  19.727   4.092  0.00  0.00     0.037 A 
HETATM   30  C   UNK N   1      26.226  18.955   3.955  0.00  0.00     0.068 A 
HETATM   31  C   UNK N   1      26.021  17.828   4.741  0.00  0.00     0.037 A 
HETATM   32  C   UNK N   1      26.992  17.398   5.600  0.00  0.00     0.015 A 
BRANCH  30  33
HETATM   33  O   UNK N   1      25.236  19.328   3.143  0.00  0.00    -0.349 OA
BRANCH  33  34
HETATM   34  C   UNK N   1      24.552  20.495   3.346  0.00  0.00     0.202 C 
BRANCH  34  35
HETATM   35  C   UNK N   1      23.224  20.524   2.557  0.00  0.00     0.205 C 
BRANCH  35  36
HETATM   36  O   UNK N   1      22.060  20.513   3.320  0.00  0.00    -0.318 OA
BRANCH  36  37
HETATM   37  C   UNK N   1      21.126  19.517   3.322  0.00  0.00     0.281 C 
HETATM   38  O   UNK N   1      20.003  19.705   2.879  0.00  0.00    -0.263 OA
BRANCH  37  39
HETATM   39  C   UNK N   1      21.407  18.246   4.042  0.00  0.00     0.180 C 
HETATM   40  C   UNK N   1      21.372  18.358   5.554  0.00  0.00     0.043 C 
BRANCH  39  41
HETATM   41  N   UNK N   1      20.400  17.376   3.534  0.00  0.00    -0.346 N 
HETATM   42  C   UNK N   1      20.749  16.322   2.778  0.00  0.00     0.240 C 
HETATM   43  O   UNK N   1      21.840  15.787   2.921  0.00  0.00    -0.271 OA
HETATM   44  H   UNK N   1      19.452  17.548   3.736  0.00  0.00     0.163 HD
BRANCH  42  45
HETATM   45  C   UNK N   1      19.907  16.044   1.577  0.00  0.00     0.163 C 
HETATM   46  C   UNK N   1      20.446  14.910   0.731  0.00  0.00     0.041 C 
BRANCH  45  47
HETATM   47  N   UNK N   1      19.904  17.258   0.765  0.00  0.00    -0.419 N 
HETATM   48  H   UNK N   1      20.172  18.150   1.181  0.00  0.00     0.150 HD
HETATM   49  H   UNK N   1      19.632  17.213  -0.216  0.00  0.00     0.150 HD
ENDBRANCH  45  47
ENDBRANCH  42  45
ENDBRANCH  39  41
ENDBRANCH  37  39
ENDBRANCH  36  37
ENDBRANCH  35  36
ENDBRANCH  34  35
ENDBRANCH  33  34
ENDBRANCH  30  33
ENDBRANCH   1  27
BRANCH   3  50
HETATM   50  N   UNK N   1      31.944  15.537   4.143  0.00  0.00    -0.366 N 
HETATM   51  C   UNK N   1      31.995  14.152   3.730  0.00  0.00     0.124 C 
HETATM   52  C   UNK N   1      33.257  14.018   2.921  0.00  0.00     0.021 C 
HETATM   53  C   UNK N   1      33.656  15.445   2.571  0.00  0.00     0.021 C 
HETATM   54  C   UNK N   1      32.928  16.369   3.546  0.00  0.00     0.124 C 
ENDBRANCH   3  50
TORSDOF 15
ENDMDL
MODEL 4
REMARK VINA RESULT:      -7.9      4.214      7.413
REMARK  15 active torsions:
REMARK  status: ('A' for Active; 'I' for Inactive)
REMARK    1  A    between atoms: C_2  and  C_3 
REMARK    2  A    between atoms: C_2  and  N_51 
REMARK       I    between atoms: C_3  and  N_5 
REMARK    3  A    between atoms: N_5  and  C_6 
REMARK    4  A    between atoms: C_6  and  C_8 
REMARK    5  A    between atoms: C_8  and  O_10 
REMARK    6  A    between atoms: O_10  and  C_11 
REMARK    7  A    between atoms: C_11  and  C_12 
REMARK    8  A    between atoms: C_12  and  O_13 
REMARK    9  A    between atoms: O_13  and  C_14 
REMARK   10  A    between atoms: C_17  and  C_20 
REMARK   11  A    between atoms: C_22  and  N_44 
REMARK   12  A    between atoms: C_25  and  S_29 
REMARK   13  A    between atoms: S_29  and  C_30 
REMARK   14  A    between atoms: C_30  and  C_31 
REMARK   15  A    between atoms: C_34  and  C_37 
ROOT
HETATM    1  C   UNK N   1      31.194  16.803   6.572  0.00  0.00     0.022 C 
HETATM    2  C   UNK N   1      31.003  16.173   5.334  0.00  0.00     0.101 C 
HETATM    3  C   UNK N   1      29.756  16.140   4.770  0.00  0.00     0.126 C 
HETATM    4  N   UNK N   1      28.756  16.893   5.319  0.00  0.00    -0.335 N 
ATOM      5  HN  UNK N   1      27.845  16.914   4.863  1.00  0.00     0.168 HD
HETATM    6  C   UNK N   1      28.946  17.621   6.470  0.00  0.00     0.093 C 
HETATM    7  C   UNK N   1      30.162  17.544   7.151  0.00  0.00     0.090 C 
HETATM    8  C   UNK N   1      30.280  18.159   8.457  0.00  0.00     0.103 C 
HETATM    9  N   UNK N   1      30.331  18.663   9.498  0.00  0.00    -0.191 NA
HETATM   10  C   UNK N   1      32.117  15.646   4.562  0.00  0.00     0.104 C 
HETATM   11  N   UNK N   1      33.023  15.267   3.951  0.00  0.00    -0.191 NA
ENDROOT
BRANCH   6  12
HETATM   12  S   UNK N   1      27.548  18.490   7.228  0.00  0.00    -0.105 SA
BRANCH  12  13
HETATM   13  C   UNK N   1      27.650  19.927   6.086  0.00  0.00     0.138 C 
BRANCH  13  14
HETATM   14  C   UNK N   1      26.643  19.706   5.023  0.00  0.00     0.026 A 
HETATM   15  C   UNK N   1      26.697  20.358   3.776  0.00  0.00     0.077 A 
HETATM   16  S   UNK N   1      25.209  20.070   3.095  0.00  0.00    -0.081 SA
HETATM   17  C   UNK N   1      24.561  19.199   4.336  0.00  0.00     0.084 A 
HETATM   18  N   UNK N   1      25.473  19.057   5.313  0.00  0.00    -0.352 N 
ATOM     19  HN  UNK N   1      25.312  18.529   6.170  1.00  0.00     0.166 HD
BRANCH  17  20
HETATM   20  C   UNK N   1      23.286  18.531   4.384  0.00  0.00    -0.002 A 
HETATM   21  C   UNK N   1      22.175  18.997   3.675  0.00  0.00     0.016 A 
HETATM   22  C   UNK N   1      20.945  18.347   3.815  0.00  0.00     0.024 A 
HETATM   23  C   UNK N   1      20.846  17.225   4.648  0.00  0.00     0.034 A 
HETATM   24  C   UNK N   1      21.959  16.775   5.354  0.00  0.00     0.024 A 
HETATM   25 Cl   UNK N   1      19.340  16.361   4.807  0.00  0.00    -0.084 Cl
HETATM   26  C   UNK N   1      23.168  17.443   5.240  0.00  0.00     0.016 A 
ENDBRANCH  17  20
ENDBRANCH  13  14
ENDBRANCH  12  13
ENDBRANCH   6  12
BRANCH   1  27
HETATM   27  C   UNK N   1      32.487  16.683   7.179  0.00  0.00    -0.022 A 
HETATM   28  C   UNK N   1      33.296  17.829   7.291  0.00  0.00     0.015 A 
HETATM   29  C   UNK N   1      34.205  17.916   8.319  0.00  0.00     0.037 A 
HETATM   30  C   UNK N   1      34.264  16.870   9.245  0.00  0.00     0.068 A 
HETATM   31  C   UNK N   1      33.516  15.713   9.066  0.00  0.00     0.037 A 
HETATM   32  C   UNK N   1      32.635  15.614   8.027  0.00  0.00     0.015 A 
BRANCH  30  33
HETATM   33  O   UNK N   1      35.113  16.901  10.274  0.00  0.00    -0.349 OA
BRANCH  33  34
HETATM   34  C   UNK N   1      35.819  15.790  10.646  0.00  0.00     0.202 C 
BRANCH  34  35
HETATM   35  C   UNK N   1      35.884  15.642  12.182  0.00  0.00     0.205 C 
BRANCH  35  36
HETATM   36  O   UNK N   1      35.315  14.487  12.709  0.00  0.00    -0.318 OA
BRANCH  36  37
HETATM   37  C   UNK N   1      35.744  13.835  13.831  0.00  0.00     0.281 C 
HETATM   38  O   UNK N   1      36.647  14.290  14.517  0.00  0.00    -0.263 OA
BRANCH  37  39
HETATM   39  C   UNK N   1      35.245  12.464  14.121  0.00  0.00     0.180 C 
HETATM   40  C   UNK N   1      34.369  12.362  15.355  0.00  0.00     0.043 C 
BRANCH  39  41
HETATM   41  N   UNK N   1      34.547  12.132  12.926  0.00  0.00    -0.346 N 
HETATM   42  C   UNK N   1      35.066  11.224  12.082  0.00  0.00     0.240 C 
HETATM   43  O   UNK N   1      35.792  10.332  12.496  0.00  0.00    -0.271 OA
HETATM   44  H   UNK N   1      33.689  12.565  12.718  0.00  0.00     0.163 HD
BRANCH  42  45
HETATM   45  C   UNK N   1      34.983  11.533  10.623  0.00  0.00     0.163 C 
HETATM   46  C   UNK N   1      36.304  11.993  10.044  0.00  0.00     0.041 C 
BRANCH  45  47
HETATM   47  N   UNK N   1      34.014  12.614  10.469  0.00  0.00    -0.419 N 
HETATM   48  H   UNK N   1      33.035  12.399  10.278  0.00  0.00     0.150 HD
HETATM   49  H   UNK N   1      34.316  13.585  10.551  0.00  0.00     0.150 HD
ENDBRANCH  45  47
ENDBRANCH  42  45
ENDBRANCH  39  41
ENDBRANCH  37  39
ENDBRANCH  36  37
ENDBRANCH  35  36
ENDBRANCH  34  35
ENDBRANCH  33  34
ENDBRANCH  30  33
ENDBRANCH   1  27
BRANCH   3  50
HETATM   50  N   UNK N   1      29.526  15.214   3.710  0.00  0.00    -0.366 N 
HETATM   51  C   UNK N   1      29.247  15.680   2.370  0.00  0.00     0.124 C 
HETATM   52  C   UNK N   1      28.582  14.525   1.671  0.00  0.00     0.021 C 
HETATM   53  C   UNK N   1      28.888  13.309   2.537  0.00  0.00     0.021 C 
HETATM   54  C   UNK N   1      29.290  13.828   3.916  0.00  0.00     0.124 C 
ENDBRANCH   3  50
TORSDOF 15
ENDMDL
MODEL 5
REMARK VINA RESULT:      -7.8      4.490      9.107
REMARK  15 active torsions:
REMARK  status: ('A' for Active; 'I' for Inactive)
REMARK    1  A    between atoms: C_2  and  C_3 
REMARK    2  A    between atoms: C_2  and  N_51 
REMARK       I    between atoms: C_3  and  N_5 
REMARK    3  A    between atoms: N_5  and  C_6 
REMARK    4  A    between atoms: C_6  and  C_8 
REMARK    5  A    between atoms: C_8  and  O_10 
REMARK    6  A    between atoms: O_10  and  C_11 
REMARK    7  A    between atoms: C_11  and  C_12 
REMARK    8  A    between atoms: C_12  and  O_13 
REMARK    9  A    between atoms: O_13  and  C_14 
REMARK   10  A    between atoms: C_17  and  C_20 
REMARK   11  A    between atoms: C_22  and  N_44 
REMARK   12  A    between atoms: C_25  and  S_29 
REMARK   13  A    between atoms: S_29  and  C_30 
REMARK   14  A    between atoms: C_30  and  C_31 
REMARK   15  A    between atoms: C_34  and  C_37 
ROOT
HETATM    1  C   UNK N   1      26.790  17.765   4.559  0.00  0.00     0.022 C 
HETATM    2  C   UNK N   1      27.737  18.025   5.559  0.00  0.00     0.101 C 
HETATM    3  C   UNK N   1      28.752  17.135   5.787  0.00  0.00     0.126 C 
HETATM    4  N   UNK N   1      28.947  16.108   4.907  0.00  0.00    -0.335 N 
ATOM      5  HN  UNK N   1      29.739  15.481   5.045  1.00  0.00     0.168 HD
HETATM    6  C   UNK N   1      28.103  15.895   3.842  0.00  0.00     0.093 C 
HETATM    7  C   UNK N   1      26.970  16.695   3.681  0.00  0.00     0.090 C 
HETATM    8  C   UNK N   1      25.993  16.339   2.673  0.00  0.00     0.103 C 
HETATM    9  N   UNK N   1      25.236  16.018   1.857  0.00  0.00    -0.191 NA
HETATM   10  C   UNK N   1      27.748  19.278   6.297  0.00  0.00     0.104 C 
HETATM   11  N   UNK N   1      27.758  20.297   6.845  0.00  0.00    -0.191 NA
ENDROOT
BRANCH   6  12
HETATM   12  S   UNK N   1      28.329  14.439   2.788  0.00  0.00    -0.105 SA
BRANCH  12  13
HETATM   13  C   UNK N   1      28.403  13.264   4.201  0.00  0.00     0.138 C 
BRANCH  13  14
HETATM   14  C   UNK N   1      27.007  12.901   4.535  0.00  0.00     0.026 A 
HETATM   15  C   UNK N   1      25.985  12.832   3.567  0.00  0.00     0.077 A 
HETATM   16  S   UNK N   1      24.583  12.747   4.455  0.00  0.00    -0.081 SA
HETATM   17  C   UNK N   1      25.262  12.821   5.955  0.00  0.00     0.084 A 
HETATM   18  N   UNK N   1      26.600  12.876   5.842  0.00  0.00    -0.352 N 
ATOM     19  HN  UNK N   1      27.238  12.896   6.637  1.00  0.00     0.166 HD
BRANCH  17  20
HETATM   20  C   UNK N   1      24.611  12.700   7.234  0.00  0.00    -0.002 A 
HETATM   21  C   UNK N   1      25.035  13.420   8.355  0.00  0.00     0.016 A 
HETATM   22  C   UNK N   1      24.407  13.209   9.587  0.00  0.00     0.024 A 
HETATM   23  C   UNK N   1      23.350  12.295   9.678  0.00  0.00     0.034 A 
HETATM   24  C   UNK N   1      22.941  11.580   8.554  0.00  0.00     0.024 A 
HETATM   25 Cl   UNK N   1      22.513  12.045  11.187  0.00  0.00    -0.084 Cl
HETATM   26  C   UNK N   1      23.588  11.765   7.342  0.00  0.00     0.016 A 
ENDBRANCH  17  20
ENDBRANCH  13  14
ENDBRANCH  12  13
ENDBRANCH   6  12
BRANCH   1  27
HETATM   27  C   UNK N   1      25.673  18.659   4.462  0.00  0.00    -0.022 A 
HETATM   28  C   UNK N   1      25.715  19.701   3.517  0.00  0.00     0.015 A 
HETATM   29  C   UNK N   1      24.541  20.177   2.984  0.00  0.00     0.037 A 
HETATM   30  C   UNK N   1      23.341  19.576   3.376  0.00  0.00     0.068 A 
HETATM   31  C   UNK N   1      23.318  18.606   4.371  0.00  0.00     0.037 A 
HETATM   32  C   UNK N   1      24.483  18.155   4.923  0.00  0.00     0.015 A 
BRANCH  30  33
HETATM   33  O   UNK N   1      22.169  19.980   2.883  0.00  0.00    -0.349 OA
BRANCH  33  34
HETATM   34  C   UNK N   1      21.001  19.764   3.562  0.00  0.00     0.202 C 
BRANCH  34  35
HETATM   35  C   UNK N   1      20.007  18.918   2.735  0.00  0.00     0.205 C 
BRANCH  35  36
HETATM   36  O   UNK N   1      19.562  17.742   3.332  0.00  0.00    -0.318 OA
BRANCH  36  37
HETATM   37  C   UNK N   1      20.197  16.535   3.269  0.00  0.00     0.281 C 
HETATM   38  O   UNK N   1      21.188  16.379   2.572  0.00  0.00    -0.263 OA
BRANCH  37  39
HETATM   39  C   UNK N   1      19.572  15.341   3.900  0.00  0.00     0.180 C 
HETATM   40  C   UNK N   1      19.574  14.098   3.032  0.00  0.00     0.043 C 
BRANCH  39  41
HETATM   41  N   UNK N   1      20.343  15.183   5.087  0.00  0.00    -0.346 N 
HETATM   42  C   UNK N   1      19.906  15.712   6.241  0.00  0.00     0.240 C 
HETATM   43  O   UNK N   1      18.709  15.862   6.445  0.00  0.00    -0.271 OA
HETATM   44  H   UNK N   1      21.193  14.687   5.060  0.00  0.00     0.163 HD
BRANCH  42  45
HETATM   45  C   UNK N   1      20.923  16.385   7.103  0.00  0.00     0.163 C 
HETATM   46  C   UNK N   1      20.945  17.888   6.921  0.00  0.00     0.041 C 
BRANCH  45  47
HETATM   47  N   UNK N   1      22.229  15.858   6.717  0.00  0.00    -0.419 N 
HETATM   48  H   UNK N   1      23.080  16.311   7.049  0.00  0.00     0.150 HD
HETATM   49  H   UNK N   1      22.289  15.038   6.115  0.00  0.00     0.150 HD
ENDBRANCH  45  47
ENDBRANCH  42  45
ENDBRANCH  39  41
ENDBRANCH  37  39
ENDBRANCH  36  37
ENDBRANCH  35  36
ENDBRANCH  34  35
ENDBRANCH  33  34
ENDBRANCH  30  33
ENDBRANCH   1  27
BRANCH   3  50
HETATM   50  N   UNK N   1      29.477  17.246   7.010  0.00  0.00    -0.366 N 
HETATM   51  C   UNK N   1      28.783  17.277   8.279  0.00  0.00     0.124 C 
HETATM   52  C   UNK N   1      29.752  17.888   9.254  0.00  0.00     0.021 C 
HETATM   53  C   UNK N   1      31.110  17.801   8.571  0.00  0.00     0.021 C 
HETATM   54  C   UNK N   1      30.852  17.596   7.080  0.00  0.00     0.124 C 
ENDBRANCH   3  50
TORSDOF 15
ENDMDL
MODEL 6
REMARK VINA RESULT:      -7.8      5.079     11.824
REMARK  15 active torsions:
REMARK  status: ('A' for Active; 'I' for Inactive)
REMARK    1  A    between atoms: C_2  and  C_3 
REMARK    2  A    between atoms: C_2  and  N_51 
REMARK       I    between atoms: C_3  and  N_5 
REMARK    3  A    between atoms: N_5  and  C_6 
REMARK    4  A    between atoms: C_6  and  C_8 
REMARK    5  A    between atoms: C_8  and  O_10 
REMARK    6  A    between atoms: O_10  and  C_11 
REMARK    7  A    between atoms: C_11  and  C_12 
REMARK    8  A    between atoms: C_12  and  O_13 
REMARK    9  A    between atoms: O_13  and  C_14 
REMARK   10  A    between atoms: C_17  and  C_20 
REMARK   11  A    between atoms: C_22  and  N_44 
REMARK   12  A    between atoms: C_25  and  S_29 
REMARK   13  A    between atoms: S_29  and  C_30 
REMARK   14  A    between atoms: C_30  and  C_31 
REMARK   15  A    between atoms: C_34  and  C_37 
ROOT
HETATM    1  C   UNK N   1      30.447  16.688   6.133  0.00  0.00     0.022 C 
HETATM    2  C   UNK N   1      30.897  15.815   5.133  0.00  0.00     0.101 C 
HETATM    3  C   UNK N   1      32.150  15.270   5.217  0.00  0.00     0.126 C 
HETATM    4  N   UNK N   1      32.868  15.423   6.369  0.00  0.00    -0.335 N 
ATOM      5  HN  UNK N   1      33.775  14.966   6.452  1.00  0.00     0.168 HD
HETATM    6  C   UNK N   1      32.400  16.177   7.420  0.00  0.00     0.093 C 
HETATM    7  C   UNK N   1      31.196  16.872   7.297  0.00  0.00     0.090 C 
HETATM    8  C   UNK N   1      30.814  17.811   8.332  0.00  0.00     0.103 C 
HETATM    9  N   UNK N   1      30.547  18.552   9.180  0.00  0.00    -0.191 NA
HETATM   10  C   UNK N   1      30.028  15.370   4.055  0.00  0.00     0.104 C 
HETATM   11  N   UNK N   1      29.307  15.003   3.229  0.00  0.00    -0.191 NA
ENDROOT
BRANCH   6  12
HETATM   12  S   UNK N   1      33.452  16.457   8.868  0.00  0.00    -0.105 SA
BRANCH  12  13
HETATM   13  C   UNK N   1      33.264  14.742   9.503  0.00  0.00     0.138 C 
BRANCH  13  14
HETATM   14  C   UNK N   1      34.399  14.495  10.422  0.00  0.00     0.026 A 
HETATM   15  C   UNK N   1      35.742  14.527   9.999  0.00  0.00     0.077 A 
HETATM   16  S   UNK N   1      36.587  13.854  11.263  0.00  0.00    -0.081 SA
HETATM   17  C   UNK N   1      35.303  13.534  12.245  0.00  0.00     0.084 A 
HETATM   18  N   UNK N   1      34.171  13.964  11.664  0.00  0.00    -0.352 N 
ATOM     19  HN  UNK N   1      33.249  13.904  12.096  1.00  0.00     0.166 HD
BRANCH  17  20
HETATM   20  C   UNK N   1      35.318  13.017  13.590  0.00  0.00    -0.002 A 
HETATM   21  C   UNK N   1      34.546  11.915  13.971  0.00  0.00     0.016 A 
HETATM   22  C   UNK N   1      34.549  11.501  15.307  0.00  0.00     0.024 A 
HETATM   23  C   UNK N   1      35.340  12.182  16.241  0.00  0.00     0.034 A 
HETATM   24  C   UNK N   1      36.099  13.283  15.849  0.00  0.00     0.024 A 
HETATM   25 Cl   UNK N   1      35.406  11.662  17.904  0.00  0.00    -0.084 Cl
HETATM   26  C   UNK N   1      36.067  13.712  14.531  0.00  0.00     0.016 A 
ENDBRANCH  17  20
ENDBRANCH  13  14
ENDBRANCH  12  13
ENDBRANCH   6  12
BRANCH   1  27
HETATM   27  C   UNK N   1      29.186  17.337   5.921  0.00  0.00    -0.022 A 
HETATM   28  C   UNK N   1      29.085  18.319   4.917  0.00  0.00     0.015 A 
HETATM   29  C   UNK N   1      27.878  18.527   4.295  0.00  0.00     0.037 A 
HETATM   30  C   UNK N   1      26.794  17.720   4.658  0.00  0.00     0.068 A 
HETATM   31  C   UNK N   1      26.896  16.817   5.708  0.00  0.00     0.037 A 
HETATM   32  C   UNK N   1      28.089  16.632   6.349  0.00  0.00     0.015 A 
BRANCH  30  33
HETATM   33  O   UNK N   1      25.601  17.860   4.080  0.00  0.00    -0.349 OA
BRANCH  33  34
HETATM   34  C   UNK N   1      24.798  18.932   4.359  0.00  0.00     0.202 C 
BRANCH  34  35
HETATM   35  C   UNK N   1      23.307  18.531   4.414  0.00  0.00     0.205 C 
BRANCH  35  36
HETATM   36  O   UNK N   1      22.857  18.012   5.624  0.00  0.00    -0.318 OA
BRANCH  36  37
HETATM   37  C   UNK N   1      21.550  17.918   6.007  0.00  0.00     0.281 C 
HETATM   38  O   UNK N   1      21.056  18.735   6.770  0.00  0.00    -0.263 OA
BRANCH  37  39
HETATM   39  C   UNK N   1      20.764  16.707   5.649  0.00  0.00     0.180 C 
HETATM   40  C   UNK N   1      19.916  16.152   6.777  0.00  0.00     0.043 C 
BRANCH  39  41
HETATM   41  N   UNK N   1      19.982  17.162   4.550  0.00  0.00    -0.346 N 
HETATM   42  C   UNK N   1      20.350  16.849   3.296  0.00  0.00     0.240 C 
HETATM   43  O   UNK N   1      20.976  15.823   3.068  0.00  0.00    -0.271 OA
HETATM   44  H   UNK N   1      19.176  17.704   4.708  0.00  0.00     0.163 HD
BRANCH  42  45
HETATM   45  C   UNK N   1      20.246  17.931   2.272  0.00  0.00     0.163 C 
HETATM   46  C   UNK N   1      19.924  19.282   2.875  0.00  0.00     0.041 C 
BRANCH  45  47
HETATM   47  N   UNK N   1      19.161  17.562   1.368  0.00  0.00    -0.419 N 
HETATM   48  H   UNK N   1      18.841  16.595   1.322  0.00  0.00     0.150 HD
HETATM   49  H   UNK N   1      18.723  18.273   0.782  0.00  0.00     0.150 HD
ENDBRANCH  45  47
ENDBRANCH  42  45
ENDBRANCH  39  41
ENDBRANCH  37  39
ENDBRANCH  36  37
ENDBRANCH  35  36
ENDBRANCH  34  35
ENDBRANCH  33  34
ENDBRANCH  30  33
ENDBRANCH   1  27
BRANCH   3  50
HETATM   50  N   UNK N   1      32.702  14.680   4.041  0.00  0.00    -0.366 N 
HETATM   51  C   UNK N   1      32.722  13.243   3.877  0.00  0.00     0.124 C 
HETATM   52  C   UNK N   1      33.776  12.971   2.837  0.00  0.00     0.021 C 
HETATM   53  C   UNK N   1      34.021  14.313   2.160  0.00  0.00     0.021 C 
HETATM   54  C   UNK N   1      33.488  15.395   3.098  0.00  0.00     0.124 C 
ENDBRANCH   3  50
TORSDOF 15
ENDMDL
MODEL 7
REMARK VINA RESULT:      -7.8      4.931     11.269
REMARK  15 active torsions:
REMARK  status: ('A' for Active; 'I' for Inactive)
REMARK    1  A    between atoms: C_2  and  C_3 
REMARK    2  A    between atoms: C_2  and  N_51 
REMARK       I    between atoms: C_3  and  N_5 
REMARK    3  A    between atoms: N_5  and  C_6 
REMARK    4  A    between atoms: C_6  and  C_8 
REMARK    5  A    between atoms: C_8  and  O_10 
REMARK    6  A    between atoms: O_10  and  C_11 
REMARK    7  A    between atoms: C_11  and  C_12 
REMARK    8  A    between atoms: C_12  and  O_13 
REMARK    9  A    between atoms: O_13  and  C_14 
REMARK   10  A    between atoms: C_17  and  C_20 
REMARK   11  A    between atoms: C_22  and  N_44 
REMARK   12  A    between atoms: C_25  and  S_29 
REMARK   13  A    between atoms: S_29  and  C_30 
REMARK   14  A    between atoms: C_30  and  C_31 
REMARK   15  A    between atoms: C_34  and  C_37 
ROOT
HETATM    1  C   UNK N   1      30.347  17.089   5.979  0.00  0.00     0.022 C 
HETATM    2  C   UNK N   1      31.143  17.180   7.130  0.00  0.00     0.101 C 
HETATM    3  C   UNK N   1      32.439  16.743   7.099  0.00  0.00     0.126 C 
HETATM    4  N   UNK N   1      33.003  16.412   5.899  0.00  0.00    -0.335 N 
ATOM      5  HN  UNK N   1      33.986  16.144   5.871  1.00  0.00     0.168 HD
HETATM    6  C   UNK N   1      32.280  16.429   4.729  0.00  0.00     0.093 C 
HETATM    7  C   UNK N   1      30.915  16.717   4.759  0.00  0.00     0.090 C 
HETATM    8  C   UNK N   1      30.130  16.542   3.554  0.00  0.00     0.103 C 
HETATM    9  N   UNK N   1      29.540  16.387   2.570  0.00  0.00    -0.191 NA
HETATM   10  C   UNK N   1      30.670  17.835   8.338  0.00  0.00     0.104 C 
HETATM   11  N   UNK N   1      30.285  18.393   9.276  0.00  0.00    -0.191 NA
ENDROOT
BRANCH   6  12
HETATM   12  S   UNK N   1      33.040  15.849   3.191  0.00  0.00    -0.105 SA
BRANCH  12  13
HETATM   13  C   UNK N   1      33.225  14.116   3.778  0.00  0.00     0.138 C 
BRANCH  13  14
HETATM   14  C   UNK N   1      32.276  13.291   2.997  0.00  0.00     0.026 A 
HETATM   15  C   UNK N   1      32.635  12.649   1.796  0.00  0.00     0.077 A 
HETATM   16  S   UNK N   1      31.187  12.169   1.137  0.00  0.00    -0.081 SA
HETATM   17  C   UNK N   1      30.197  12.773   2.308  0.00  0.00     0.084 A 
HETATM   18  N   UNK N   1      30.937  13.338   3.277  0.00  0.00    -0.352 N 
ATOM     19  HN  UNK N   1      30.547  13.752   4.123  1.00  0.00     0.166 HD
BRANCH  17  20
HETATM   20  C   UNK N   1      28.769  12.631   2.427  0.00  0.00    -0.002 A 
HETATM   21  C   UNK N   1      28.013  11.914   1.494  0.00  0.00     0.016 A 
HETATM   22  C   UNK N   1      26.621  11.869   1.624  0.00  0.00     0.024 A 
HETATM   23  C   UNK N   1      26.004  12.524   2.698  0.00  0.00     0.034 A 
HETATM   24  C   UNK N   1      26.768  13.240   3.616  0.00  0.00     0.024 A 
HETATM   25 Cl   UNK N   1      24.276  12.445   2.918  0.00  0.00    -0.084 Cl
HETATM   26  C   UNK N   1      28.145  13.312   3.465  0.00  0.00     0.016 A 
ENDBRANCH  17  20
ENDBRANCH  13  14
ENDBRANCH  12  13
ENDBRANCH   6  12
BRANCH   1  27
HETATM   27  C   UNK N   1      28.960  17.429   6.109  0.00  0.00    -0.022 A 
HETATM   28  C   UNK N   1      28.489  18.610   5.506  0.00  0.00     0.015 A 
HETATM   29  C   UNK N   1      27.179  18.683   5.098  0.00  0.00     0.037 A 
HETATM   30  C   UNK N   1      26.367  17.556   5.262  0.00  0.00     0.068 A 
HETATM   31  C   UNK N   1      26.830  16.433   5.935  0.00  0.00     0.037 A 
HETATM   32  C   UNK N   1      28.124  16.371   6.369  0.00  0.00     0.015 A 
BRANCH  30  33
HETATM   33  O   UNK N   1      25.091  17.557   4.871  0.00  0.00    -0.349 OA
BRANCH  33  34
HETATM   34  C   UNK N   1      24.410  18.727   4.673  0.00  0.00     0.202 C 
BRANCH  34  35
HETATM   35  C   UNK N   1      22.972  18.472   4.170  0.00  0.00     0.205 C 
BRANCH  35  36
HETATM   36  O   UNK N   1      22.204  19.604   3.915  0.00  0.00    -0.318 OA
BRANCH  36  37
HETATM   37  C   UNK N   1      22.054  20.199   2.695  0.00  0.00     0.281 C 
HETATM   38  O   UNK N   1      22.984  20.785   2.160  0.00  0.00    -0.263 OA
BRANCH  37  39
HETATM   39  C   UNK N   1      20.699  20.306   2.090  0.00  0.00     0.180 C 
HETATM   40  C   UNK N   1      20.551  21.420   1.072  0.00  0.00     0.043 C 
BRANCH  39  41
HETATM   41  N   UNK N   1      20.515  19.015   1.519  0.00  0.00    -0.346 N 
HETATM   42  C   UNK N   1      19.787  18.095   2.173  0.00  0.00     0.240 C 
HETATM   43  O   UNK N   1      18.888  18.435   2.930  0.00  0.00    -0.271 OA
HETATM   44  H   UNK N   1      20.921  18.797   0.649  0.00  0.00     0.163 HD
BRANCH  42  45
HETATM   45  C   UNK N   1      20.315  16.699   2.185  0.00  0.00     0.163 C 
HETATM   46  C   UNK N   1      20.269  16.042   0.822  0.00  0.00     0.041 C 
BRANCH  45  47
HETATM   47  N   UNK N   1      19.471  15.928   3.094  0.00  0.00    -0.419 N 
HETATM   48  H   UNK N   1      18.482  15.794   2.881  0.00  0.00     0.150 HD
HETATM   49  H   UNK N   1      19.871  15.525   3.941  0.00  0.00     0.150 HD
ENDBRANCH  45  47
ENDBRANCH  42  45
ENDBRANCH  39  41
ENDBRANCH  37  39
ENDBRANCH  36  37
ENDBRANCH  35  36
ENDBRANCH  34  35
ENDBRANCH  33  34
ENDBRANCH  30  33
ENDBRANCH   1  27
BRANCH   3  50
HETATM   50  N   UNK N   1      33.101  16.526   8.344  0.00  0.00    -0.366 N 
HETATM   51  C   UNK N   1      34.126  17.438   8.804  0.00  0.00     0.124 C 
HETATM   52  C   UNK N   1      34.921  16.670   9.825  0.00  0.00     0.021 C 
HETATM   53  C   UNK N   1      34.046  15.479  10.194  0.00  0.00     0.021 C 
HETATM   54  C   UNK N   1      33.017  15.313   9.078  0.00  0.00     0.124 C 
ENDBRANCH   3  50
TORSDOF 15
ENDMDL
MODEL 8
REMARK VINA RESULT:      -7.7      4.275      7.769
REMARK  15 active torsions:
REMARK  status: ('A' for Active; 'I' for Inactive)
REMARK    1  A    between atoms: C_2  and  C_3 
REMARK    2  A    between atoms: C_2  and  N_51 
REMARK       I    between atoms: C_3  and  N_5 
REMARK    3  A    between atoms: N_5  and  C_6 
REMARK    4  A    between atoms: C_6  and  C_8 
REMARK    5  A    between atoms: C_8  and  O_10 
REMARK    6  A    between atoms: O_10  and  C_11 
REMARK    7  A    between atoms: C_11  and  C_12 
REMARK    8  A    between atoms: C_12  and  O_13 
REMARK    9  A    between atoms: O_13  and  C_14 
REMARK   10  A    between atoms: C_17  and  C_20 
REMARK   11  A    between atoms: C_22  and  N_44 
REMARK   12  A    between atoms: C_25  and  S_29 
REMARK   13  A    between atoms: S_29  and  C_30 
REMARK   14  A    between atoms: C_30  and  C_31 
REMARK   15  A    between atoms: C_34  and  C_37 
ROOT
HETATM    1  C   UNK N   1      31.429  16.557   7.615  0.00  0.00     0.022 C 
HETATM    2  C   UNK N   1      31.701  15.813   6.458  0.00  0.00     0.101 C 
HETATM    3  C   UNK N   1      30.794  15.790   5.434  0.00  0.00     0.126 C 
HETATM    4  N   UNK N   1      29.732  16.648   5.464  0.00  0.00    -0.335 N 
ATOM      5  HN  UNK N   1      29.090  16.671   4.671  1.00  0.00     0.168 HD
HETATM    6  C   UNK N   1      29.503  17.481   6.534  0.00  0.00     0.093 C 
HETATM    7  C   UNK N   1      30.324  17.409   7.660  0.00  0.00     0.090 C 
HETATM    8  C   UNK N   1      29.957  18.150   8.850  0.00  0.00     0.103 C 
HETATM    9  N   UNK N   1      29.626  18.756   9.779  0.00  0.00    -0.191 NA
HETATM   10  C   UNK N   1      32.978  15.149   6.257  0.00  0.00     0.104 C 
HETATM   11  N   UNK N   1      34.015  14.660   6.104  0.00  0.00    -0.191 NA
ENDROOT
BRANCH   6  12
HETATM   12  S   UNK N   1      28.005  18.499   6.581  0.00  0.00    -0.105 SA
BRANCH  12  13
HETATM   13  C   UNK N   1      28.237  19.156   4.879  0.00  0.00     0.138 C 
BRANCH  13  14
HETATM   14  C   UNK N   1      26.892  19.269   4.272  0.00  0.00     0.026 A 
HETATM   15  C   UNK N   1      26.541  20.304   3.384  0.00  0.00     0.077 A 
HETATM   16  S   UNK N   1      24.886  20.206   3.270  0.00  0.00    -0.081 SA
HETATM   17  C   UNK N   1      24.665  18.945   4.307  0.00  0.00     0.084 A 
HETATM   18  N   UNK N   1      25.856  18.517   4.759  0.00  0.00    -0.352 N 
ATOM     19  HN  UNK N   1      25.975  17.725   5.390  1.00  0.00     0.166 HD
BRANCH  17  20
HETATM   20  C   UNK N   1      23.441  18.253   4.619  0.00  0.00    -0.002 A 
HETATM   21  C   UNK N   1      23.426  17.056   5.341  0.00  0.00     0.016 A 
HETATM   22  C   UNK N   1      22.212  16.394   5.554  0.00  0.00     0.024 A 
HETATM   23  C   UNK N   1      21.026  16.948   5.059  0.00  0.00     0.034 A 
HETATM   24  C   UNK N   1      21.054  18.138   4.334  0.00  0.00     0.024 A 
HETATM   25 Cl   UNK N   1      19.490  16.175   5.349  0.00  0.00    -0.084 Cl
HETATM   26  C   UNK N   1      22.263  18.774   4.095  0.00  0.00     0.016 A 
ENDBRANCH  17  20
ENDBRANCH  13  14
ENDBRANCH  12  13
ENDBRANCH   6  12
BRANCH   1  27
HETATM   27  C   UNK N   1      32.346  16.431   8.710  0.00  0.00    -0.022 A 
HETATM   28  C   UNK N   1      32.366  15.231   9.446  0.00  0.00     0.015 A 
HETATM   29  C   UNK N   1      33.531  14.835  10.059  0.00  0.00     0.037 A 
HETATM   30  C   UNK N   1      34.673  15.626   9.893  0.00  0.00     0.068 A 
HETATM   31  C   UNK N   1      34.607  16.846   9.232  0.00  0.00     0.037 A 
HETATM   32  C   UNK N   1      33.442  17.255   8.649  0.00  0.00     0.015 A 
BRANCH  30  33
HETATM   33  O   UNK N   1      35.838  15.288  10.448  0.00  0.00    -0.349 OA
BRANCH  33  34
HETATM   34  C   UNK N   1      36.739  14.502   9.783  0.00  0.00     0.202 C 
BRANCH  34  35
HETATM   35  C   UNK N   1      36.619  13.019  10.199  0.00  0.00     0.205 C 
BRANCH  35  36
HETATM   36  O   UNK N   1      36.056  12.778  11.448  0.00  0.00    -0.318 OA
BRANCH  36  37
HETATM   37  C   UNK N   1      35.071  11.868  11.708  0.00  0.00     0.281 C 
HETATM   38  O   UNK N   1      34.458  11.326  10.801  0.00  0.00    -0.263 OA
BRANCH  37  39
HETATM   39  C   UNK N   1      34.602  11.672  13.107  0.00  0.00     0.180 C 
HETATM   40  C   UNK N   1      34.104  10.272  13.412  0.00  0.00     0.043 C 
BRANCH  39  41
HETATM   41  N   UNK N   1      35.752  12.023  13.868  0.00  0.00    -0.346 N 
HETATM   42  C   UNK N   1      35.683  13.031  14.753  0.00  0.00     0.240 C 
HETATM   43  O   UNK N   1      34.624  13.311  15.298  0.00  0.00    -0.271 OA
HETATM   44  H   UNK N   1      36.594  11.529  13.746  0.00  0.00     0.163 HD
BRANCH  42  45
HETATM   45  C   UNK N   1      36.843  13.969  14.800  0.00  0.00     0.163 C 
HETATM   46  C   UNK N   1      36.842  14.845  16.035  0.00  0.00     0.041 C 
BRANCH  45  47
HETATM   47  N   UNK N   1      36.743  14.833  13.627  0.00  0.00    -0.419 N 
HETATM   48  H   UNK N   1      37.306  14.637  12.798  0.00  0.00     0.150 HD
HETATM   49  H   UNK N   1      36.111  15.633  13.636  0.00  0.00     0.150 HD
ENDBRANCH  45  47
ENDBRANCH  42  45
ENDBRANCH  39  41
ENDBRANCH  37  39
ENDBRANCH  36  37
ENDBRANCH  35  36
ENDBRANCH  34  35
ENDBRANCH  33  34
ENDBRANCH  30  33
ENDBRANCH   1  27
BRANCH   3  50
HETATM   50  N   UNK N   1      30.930  14.771   4.444  0.00  0.00    -0.366 N 
HETATM   51  C   UNK N   1      30.519  13.413   4.721  0.00  0.00     0.124 C 
HETATM   52  C   UNK N   1      31.242  12.559   3.715  0.00  0.00     0.021 C 
HETATM   53  C   UNK N   1      31.720  13.528   2.642  0.00  0.00     0.021 C 
HETATM   54  C   UNK N   1      31.694  14.927   3.256  0.00  0.00     0.124 C 
ENDBRANCH   3  50
TORSDOF 15
ENDMDL
MODEL 9
REMARK VINA RESULT:      -7.7      2.709      5.196
REMARK  15 active torsions:
REMARK  status: ('A' for Active; 'I' for Inactive)
REMARK    1  A    between atoms: C_2  and  C_3 
REMARK    2  A    between atoms: C_2  and  N_51 
REMARK       I    between atoms: C_3  and  N_5 
REMARK    3  A    between atoms: N_5  and  C_6 
REMARK    4  A    between atoms: C_6  and  C_8 
REMARK    5  A    between atoms: C_8  and  O_10 
REMARK    6  A    between atoms: O_10  and  C_11 
REMARK    7  A    between atoms: C_11  and  C_12 
REMARK    8  A    between atoms: C_12  and  O_13 
REMARK    9  A    between atoms: O_13  and  C_14 
REMARK   10  A    between atoms: C_17  and  C_20 
REMARK   11  A    between atoms: C_22  and  N_44 
REMARK   12  A    between atoms: C_25  and  S_29 
REMARK   13  A    between atoms: S_29  and  C_30 
REMARK   14  A    between atoms: C_30  and  C_31 
REMARK   15  A    between atoms: C_34  and  C_37 
ROOT
HETATM    1  C   UNK N   1      28.550  15.824   4.189  0.00  0.00     0.022 C 
HETATM    2  C   UNK N   1      28.700  16.264   5.511  0.00  0.00     0.101 C 
HETATM    3  C   UNK N   1      27.613  16.724   6.204  0.00  0.00     0.126 C 
HETATM    4  N   UNK N   1      26.365  16.562   5.672  0.00  0.00    -0.335 N 
ATOM      5  HN  UNK N   1      25.553  16.851   6.216  1.00  0.00     0.168 HD
HETATM    6  C   UNK N   1      26.175  16.021   4.422  0.00  0.00     0.093 C 
HETATM    7  C   UNK N   1      27.277  15.691   3.631  0.00  0.00     0.090 C 
HETATM    8  C   UNK N   1      27.066  15.305   2.251  0.00  0.00     0.103 C 
HETATM    9  N   UNK N   1      26.853  15.004   1.153  0.00  0.00    -0.191 NA
HETATM   10  C   UNK N   1      29.962  16.141   6.222  0.00  0.00     0.104 C 
HETATM   11  N   UNK N   1      30.967  15.999   6.778  0.00  0.00    -0.191 NA
ENDROOT
BRANCH   6  12
HETATM   12  S   UNK N   1      24.511  15.955   3.710  0.00  0.00    -0.105 SA
BRANCH  12  13
HETATM   13  C   UNK N   1      23.669  16.295   5.309  0.00  0.00     0.138 C 
BRANCH  13  14
HETATM   14  C   UNK N   1      23.198  14.993   5.835  0.00  0.00     0.026 A 
HETATM   15  C   UNK N   1      22.387  14.118   5.086  0.00  0.00     0.077 A 
HETATM   16  S   UNK N   1      21.847  13.006   6.197  0.00  0.00    -0.081 SA
HETATM   17  C   UNK N   1      22.590  13.639   7.526  0.00  0.00     0.084 A 
HETATM   18  N   UNK N   1      23.317  14.711   7.169  0.00  0.00    -0.352 N 
ATOM     19  HN  UNK N   1      23.891  15.250   7.816  1.00  0.00     0.166 HD
BRANCH  17  20
HETATM   20  C   UNK N   1      22.629  13.105   8.863  0.00  0.00    -0.002 A 
HETATM   21  C   UNK N   1      21.469  12.906   9.618  0.00  0.00     0.016 A 
HETATM   22  C   UNK N   1      21.574  12.449  10.936  0.00  0.00     0.024 A 
HETATM   23  C   UNK N   1      22.838  12.177  11.475  0.00  0.00     0.034 A 
HETATM   24  C   UNK N   1      23.986  12.385  10.714  0.00  0.00     0.024 A 
HETATM   25 Cl   UNK N   1      23.002  11.559  13.097  0.00  0.00    -0.084 Cl
HETATM   26  C   UNK N   1      23.880  12.872   9.420  0.00  0.00     0.016 A 
ENDBRANCH  17  20
ENDBRANCH  13  14
ENDBRANCH  12  13
ENDBRANCH   6  12
BRANCH   1  27
HETATM   27  C   UNK N   1      29.743  15.488   3.468  0.00  0.00    -0.022 A 
HETATM   28  C   UNK N   1      30.560  16.526   2.982  0.00  0.00     0.015 A 
HETATM   29  C   UNK N   1      31.910  16.310   2.833  0.00  0.00     0.037 A 
HETATM   30  C   UNK N   1      32.430  15.068   3.212  0.00  0.00     0.068 A 
HETATM   31  C   UNK N   1      31.593  14.033   3.610  0.00  0.00     0.037 A 
HETATM   32  C   UNK N   1      30.248  14.238   3.728  0.00  0.00     0.015 A 
BRANCH  30  33
HETATM   33  O   UNK N   1      33.733  14.801   3.109  0.00  0.00    -0.349 OA
BRANCH  33  34
HETATM   34  C   UNK N   1      34.511  14.620   4.220  0.00  0.00     0.202 C 
BRANCH  34  35
HETATM   35  C   UNK N   1      34.343  15.777   5.230  0.00  0.00     0.205 C 
BRANCH  35  36
HETATM   36  O   UNK N   1      35.023  15.638   6.436  0.00  0.00    -0.318 OA
BRANCH  36  37
HETATM   37  C   UNK N   1      34.459  15.731   7.676  0.00  0.00     0.281 C 
HETATM   38  O   UNK N   1      33.721  14.854   8.100  0.00  0.00    -0.263 OA
BRANCH  37  39
HETATM   39  C   UNK N   1      34.584  16.996   8.449  0.00  0.00     0.180 C 
HETATM   40  C   UNK N   1      33.708  18.128   7.948  0.00  0.00     0.043 C 
BRANCH  39  41
HETATM   41  N   UNK N   1      34.244  16.583   9.769  0.00  0.00    -0.346 N 
HETATM   42  C   UNK N   1      35.216  16.376  10.674  0.00  0.00     0.240 C 
HETATM   43  O   UNK N   1      36.274  16.986  10.602  0.00  0.00    -0.271 OA
HETATM   44  H   UNK N   1      33.301  16.450  10.017  0.00  0.00     0.163 HD
BRANCH  42  45
HETATM   45  C   UNK N   1      35.078  15.176  11.550  0.00  0.00     0.163 C 
HETATM   46  C   UNK N   1      36.288  14.267  11.497  0.00  0.00     0.041 C 
BRANCH  45  47
HETATM   47  N   UNK N   1      33.920  14.426  11.072  0.00  0.00    -0.419 N 
HETATM   48  H   UNK N   1      33.124  14.920  10.668  0.00  0.00     0.150 HD
HETATM   49  H   UNK N   1      33.908  13.409  11.142  0.00  0.00     0.150 HD
ENDBRANCH  45  47
ENDBRANCH  42  45
ENDBRANCH  39  41
ENDBRANCH  37  39
ENDBRANCH  36  37
ENDBRANCH  35  36
ENDBRANCH  34  35
ENDBRANCH  33  34
ENDBRANCH  30  33
ENDBRANCH   1  27
BRANCH   3  50
HETATM   50  N   UNK N   1      27.848  17.475   7.395  0.00  0.00    -0.366 N 
HETATM   51  C   UNK N   1      28.387  18.815   7.327  0.00  0.00     0.124 C 
HETATM   52  C   UNK N   1      28.959  19.090   8.692  0.00  0.00     0.021 C 
HETATM   53  C   UNK N   1      28.348  18.029   9.598  0.00  0.00     0.021 C 
HETATM   54  C   UNK N   1      27.835  16.907   8.697  0.00  0.00     0.124 C 
ENDBRANCH   3  50
TORSDOF 15
ENDMDL
