MODEL 1
REMARK VINA RESULT:      -7.4      0.000      0.000
REMARK  3 active torsions:
REMARK  status: ('A' for Active; 'I' for Inactive)
REMARK    1  A    between atoms: C_12  and  C_7 
REMARK    2  A    between atoms: C_15  and  C_7 
REMARK    3  A    between atoms: N_21  and  C_15 
ROOT
HETATM    1  C   UNK N   1      33.369  15.774   3.480  0.00  0.00     0.001 A 
HETATM    2  C   UNK N   1      28.057  18.372   8.750  0.00  0.00     0.001 A 
HETATM    3  C   UNK N   1      34.123  15.548   4.625  0.00  0.00     0.001 A 
HETATM    4  C   UNK N   1      29.177  18.521   9.558  0.00  0.00     0.001 A 
HETATM    5  C   UNK N   1      32.165  16.465   3.573  0.00  0.00     0.008 A 
HETATM    6  C   UNK N   1      28.192  17.830   7.476  0.00  0.00     0.008 A 
HETATM    7  C   UNK N   1      33.671  16.016   5.859  0.00  0.00     0.013 A 
HETATM    8  C   UNK N   1      30.430  18.139   9.085  0.00  0.00     0.013 A 
HETATM    9  C   UNK N   1      32.958  17.352   8.370  0.00  0.00    -0.011 C 
HETATM   10  C   UNK N   1      30.416  17.659   4.800  0.00  0.00     0.044 C 
HETATM   11  C   UNK N   1      29.469  16.856   5.633  0.00  0.00     0.044 C 
HETATM   12  C   UNK N   1      31.699  16.930   4.808  0.00  0.00    -0.047 A 
HETATM   13  C   UNK N   1      29.445  17.437   6.989  0.00  0.00    -0.047 A 
HETATM   14  C   UNK N   1      32.453  16.713   5.996  0.00  0.00    -0.019 A 
HETATM   15  C   UNK N   1      30.611  17.596   7.790  0.00  0.00    -0.019 A 
HETATM   16  C   UNK N   1      32.031  17.208   7.383  0.00  0.00    -0.018 C 
ENDROOT
BRANCH   9  17
HETATM   17  C   UNK N   1      34.428  17.084   8.320  0.00  0.00     0.064 C 
BRANCH  17  18
HETATM   18  C   UNK N   1      34.965  17.119   9.754  0.00  0.00     0.314 C 
BRANCH  18  19
HETATM   19  N   UNK N   1      35.590  15.888  10.202  0.00  0.00     0.005 N 
HETATM   20  C   UNK N   1      35.725  14.997   9.078  0.00  0.00     0.355 C 
HETATM   21  C   UNK N   1      34.722  15.253  11.161  0.00  0.00     0.355 C 
HETATM   22  O   UNK N   1      36.656  16.115  10.687  0.00  0.00    -0.065 OA
ENDBRANCH  18  19
ENDBRANCH  17  18
ENDBRANCH   9  17
TORSDOF 3
ENDMDL
MODEL 2
REMARK VINA RESULT:      -7.2      5.853     10.503
REMARK  3 active torsions:
REMARK  status: ('A' for Active; 'I' for Inactive)
REMARK    1  A    between atoms: C_12  and  C_7 
REMARK    2  A    between atoms: C_15  and  C_7 
REMARK    3  A    between atoms: N_21  and  C_15 
ROOT
HETATM    1  C   UNK N   1      36.365   8.484  12.861  0.00  0.00     0.001 A 
HETATM    2  C   UNK N   1      35.124  12.997  19.251  0.00  0.00     0.001 A 
HETATM    3  C   UNK N   1      36.922   9.657  12.367  0.00  0.00     0.001 A 
HETATM    4  C   UNK N   1      35.241  14.036  18.337  0.00  0.00     0.001 A 
HETATM    5  C   UNK N   1      35.685   8.503  14.074  0.00  0.00     0.008 A 
HETATM    6  C   UNK N   1      35.301  11.683  18.830  0.00  0.00     0.008 A 
HETATM    7  C   UNK N   1      36.794  10.846  13.087  0.00  0.00     0.013 A 
HETATM    8  C   UNK N   1      35.523  13.757  17.001  0.00  0.00     0.013 A 
HETATM    9  C   UNK N   1      36.172  13.414  14.359  0.00  0.00    -0.011 C 
HETATM   10  C   UNK N   1      34.812   9.606  16.077  0.00  0.00     0.044 C 
HETATM   11  C   UNK N   1      35.777   9.962  17.160  0.00  0.00     0.044 C 
HETATM   12  C   UNK N   1      35.559   9.688  14.808  0.00  0.00    -0.047 A 
HETATM   13  C   UNK N   1      35.589  11.388  17.492  0.00  0.00    -0.047 A 
HETATM   14  C   UNK N   1      36.119  10.904  14.323  0.00  0.00    -0.019 A 
HETATM   15  C   UNK N   1      35.697  12.433  16.531  0.00  0.00    -0.019 A 
HETATM   16  C   UNK N   1      36.008  12.249  15.047  0.00  0.00    -0.018 C 
ENDROOT
BRANCH   9  17
HETATM   17  C   UNK N   1      36.468  13.609  12.906  0.00  0.00     0.064 C 
BRANCH  17  18
HETATM   18  C   UNK N   1      36.080  15.043  12.533  0.00  0.00     0.314 C 
BRANCH  18  19
HETATM   19  N   UNK N   1      35.994  15.299  11.106  0.00  0.00     0.005 N 
HETATM   20  C   UNK N   1      34.611  15.254  10.707  0.00  0.00     0.355 C 
HETATM   21  C   UNK N   1      36.687  14.248  10.407  0.00  0.00     0.355 C 
HETATM   22  O   UNK N   1      36.472  16.362  10.847  0.00  0.00    -0.065 OA
ENDBRANCH  18  19
ENDBRANCH  17  18
ENDBRANCH   9  17
TORSDOF 3
ENDMDL
MODEL 3
REMARK VINA RESULT:      -7.0     13.536     15.710
REMARK  3 active torsions:
REMARK  status: ('A' for Active; 'I' for Inactive)
REMARK    1  A    between atoms: C_12  and  C_7 
REMARK    2  A    between atoms: C_15  and  C_7 
REMARK    3  A    between atoms: N_21  and  C_15 
ROOT
HETATM    1  C   UNK N   1      25.835  22.936  -8.186  0.00  0.00     0.001 A 
HETATM    2  C   UNK N   1      26.429  29.286  -3.488  0.00  0.00     0.001 A 
HETATM    3  C   UNK N   1      26.650  22.369  -7.214  0.00  0.00     0.001 A 
HETATM    4  C   UNK N   1      27.575  28.642  -3.039  0.00  0.00     0.001 A 
HETATM    5  C   UNK N   1      25.567  24.301  -8.148  0.00  0.00     0.008 A 
HETATM    6  C   UNK N   1      25.619  28.672  -4.438  0.00  0.00     0.008 A 
HETATM    7  C   UNK N   1      27.196  23.168  -6.210  0.00  0.00     0.013 A 
HETATM    8  C   UNK N   1      27.913  27.391  -3.549  0.00  0.00     0.013 A 
HETATM    9  C   UNK N   1      28.686  24.887  -4.359  0.00  0.00    -0.011 C 
HETATM   10  C   UNK N   1      25.767  26.545  -7.192  0.00  0.00     0.044 C 
HETATM   11  C   UNK N   1      25.003  26.847  -5.943  0.00  0.00     0.044 C 
HETATM   12  C   UNK N   1      26.102  25.110  -7.139  0.00  0.00    -0.047 A 
HETATM   13  C   UNK N   1      25.943  27.413  -4.957  0.00  0.00    -0.047 A 
HETATM   14  C   UNK N   1      26.941  24.553  -6.133  0.00  0.00    -0.019 A 
HETATM   15  C   UNK N   1      27.122  26.739  -4.526  0.00  0.00    -0.019 A 
HETATM   16  C   UNK N   1      27.589  25.367  -5.008  0.00  0.00    -0.018 C 
ENDROOT
BRANCH   9  17
HETATM   17  C   UNK N   1      29.415  23.600  -4.578  0.00  0.00     0.064 C 
BRANCH  17  18
HETATM   18  C   UNK N   1      29.827  23.050  -3.209  0.00  0.00     0.314 C 
BRANCH  18  19
HETATM   19  N   UNK N   1      31.065  22.292  -3.204  0.00  0.00     0.005 N 
HETATM   20  C   UNK N   1      32.012  22.938  -4.077  0.00  0.00     0.355 C 
HETATM   21  C   UNK N   1      30.804  20.979  -3.736  0.00  0.00     0.355 C 
HETATM   22  O   UNK N   1      31.501  22.217  -2.095  0.00  0.00    -0.065 OA
ENDBRANCH  18  19
ENDBRANCH  17  18
ENDBRANCH   9  17
TORSDOF 3
ENDMDL
MODEL 4
REMARK VINA RESULT:      -6.7     13.325     16.050
REMARK  3 active torsions:
REMARK  status: ('A' for Active; 'I' for Inactive)
REMARK    1  A    between atoms: C_12  and  C_7 
REMARK    2  A    between atoms: C_15  and  C_7 
REMARK    3  A    between atoms: N_21  and  C_15 
ROOT
HETATM    1  C   UNK N   1      31.188  22.591  -2.923  0.00  0.00     0.001 A 
HETATM    2  C   UNK N   1      26.365  22.084  -9.186  0.00  0.00     0.001 A 
HETATM    3  C   UNK N   1      30.069  23.171  -2.339  0.00  0.00     0.001 A 
HETATM    4  C   UNK N   1      25.683  23.104  -8.535  0.00  0.00     0.001 A 
HETATM    5  C   UNK N   1      31.187  22.313  -4.286  0.00  0.00     0.008 A 
HETATM    6  C   UNK N   1      27.483  21.510  -8.588  0.00  0.00     0.008 A 
HETATM    7  C   UNK N   1      28.954  23.474  -3.121  0.00  0.00     0.013 A 
HETATM    8  C   UNK N   1      26.126  23.554  -7.294  0.00  0.00     0.013 A 
HETATM    9  C   UNK N   1      26.787  24.503  -4.807  0.00  0.00    -0.011 C 
HETATM   10  C   UNK N   1      30.171  22.282  -6.512  0.00  0.00     0.044 C 
HETATM   11  C   UNK N   1      29.119  21.257  -6.790  0.00  0.00     0.044 C 
HETATM   12  C   UNK N   1      30.070  22.605  -5.077  0.00  0.00    -0.047 A 
HETATM   13  C   UNK N   1      27.938  21.949  -7.339  0.00  0.00    -0.047 A 
HETATM   14  C   UNK N   1      28.911  23.201  -4.503  0.00  0.00    -0.019 A 
HETATM   15  C   UNK N   1      27.267  23.006  -6.659  0.00  0.00    -0.019 A 
HETATM   16  C   UNK N   1      27.656  23.576  -5.297  0.00  0.00    -0.018 C 
ENDROOT
BRANCH   9  17
HETATM   17  C   UNK N   1      26.860  25.270  -3.526  0.00  0.00     0.064 C 
BRANCH  17  18
HETATM   18  C   UNK N   1      27.320  26.694  -3.851  0.00  0.00     0.314 C 
BRANCH  18  19
HETATM   19  N   UNK N   1      26.436  27.744  -3.378  0.00  0.00     0.005 N 
HETATM   20  C   UNK N   1      25.482  28.053  -4.412  0.00  0.00     0.355 C 
HETATM   21  C   UNK N   1      27.218  28.930  -3.135  0.00  0.00     0.355 C 
HETATM   22  O   UNK N   1      25.877  27.398  -2.382  0.00  0.00    -0.065 OA
ENDBRANCH  18  19
ENDBRANCH  17  18
ENDBRANCH   9  17
TORSDOF 3
ENDMDL
MODEL 5
REMARK VINA RESULT:      -6.5      6.920     10.278
REMARK  3 active torsions:
REMARK  status: ('A' for Active; 'I' for Inactive)
REMARK    1  A    between atoms: C_12  and  C_7 
REMARK    2  A    between atoms: C_15  and  C_7 
REMARK    3  A    between atoms: N_21  and  C_15 
ROOT
HETATM    1  C   UNK N   1      35.862  14.955  12.147  0.00  0.00     0.001 A 
HETATM    2  C   UNK N   1      35.048  10.533  18.669  0.00  0.00     0.001 A 
HETATM    3  C   UNK N   1      34.965  14.028  11.629  0.00  0.00     0.001 A 
HETATM    4  C   UNK N   1      34.637   9.565  17.761  0.00  0.00     0.001 A 
HETATM    5  C   UNK N   1      36.414  14.748  13.407  0.00  0.00     0.008 A 
HETATM    6  C   UNK N   1      35.366  11.811  18.219  0.00  0.00     0.008 A 
HETATM    7  C   UNK N   1      34.627  12.897  12.371  0.00  0.00     0.013 A 
HETATM    8  C   UNK N   1      34.555   9.874  16.406  0.00  0.00     0.013 A 
HETATM    9  C   UNK N   1      34.236  10.322  13.719  0.00  0.00    -0.011 C 
HETATM   10  C   UNK N   1      36.720  13.487  15.482  0.00  0.00     0.044 C 
HETATM   11  C   UNK N   1      35.624  13.527  16.497  0.00  0.00     0.044 C 
HETATM   12  C   UNK N   1      36.074  13.620  14.163  0.00  0.00    -0.047 A 
HETATM   13  C   UNK N   1      35.284  12.138  16.860  0.00  0.00    -0.047 A 
HETATM   14  C   UNK N   1      35.159  12.656  13.654  0.00  0.00    -0.019 A 
HETATM   15  C   UNK N   1      34.882  11.158  15.907  0.00  0.00    -0.019 A 
HETATM   16  C   UNK N   1      34.749  11.383  14.402  0.00  0.00    -0.018 C 
ENDROOT
BRANCH   9  17
HETATM   17  C   UNK N   1      33.985  10.186  12.251  0.00  0.00     0.064 C 
BRANCH  17  18
HETATM   18  C   UNK N   1      34.790   8.988  11.742  0.00  0.00     0.314 C 
BRANCH  18  19
HETATM   19  N   UNK N   1      35.898   9.325  10.866  0.00  0.00     0.005 N 
HETATM   20  C   UNK N   1      36.063   8.273   9.895  0.00  0.00     0.355 C 
HETATM   21  C   UNK N   1      37.104   9.388  11.652  0.00  0.00     0.355 C 
HETATM   22  O   UNK N   1      35.696  10.369  10.324  0.00  0.00    -0.065 OA
ENDBRANCH  18  19
ENDBRANCH  17  18
ENDBRANCH   9  17
TORSDOF 3
ENDMDL
MODEL 6
REMARK VINA RESULT:      -6.5      7.178      9.978
REMARK  3 active torsions:
REMARK  status: ('A' for Active; 'I' for Inactive)
REMARK    1  A    between atoms: C_12  and  C_7 
REMARK    2  A    between atoms: C_15  and  C_7 
REMARK    3  A    between atoms: N_21  and  C_15 
ROOT
HETATM    1  C   UNK N   1      20.540  15.889   5.726  0.00  0.00     0.001 A 
HETATM    2  C   UNK N   1      23.311  11.820  11.931  0.00  0.00     0.001 A 
HETATM    3  C   UNK N   1      21.723  15.451   5.143  0.00  0.00     0.001 A 
HETATM    4  C   UNK N   1      24.532  12.002  11.294  0.00  0.00     0.001 A 
HETATM    5  C   UNK N   1      20.321  15.676   7.083  0.00  0.00     0.008 A 
HETATM    6  C   UNK N   1      22.145  12.287  11.332  0.00  0.00     0.008 A 
HETATM    7  C   UNK N   1      22.683  14.803   5.920  0.00  0.00     0.013 A 
HETATM    8  C   UNK N   1      24.585  12.658  10.067  0.00  0.00     0.013 A 
HETATM    9  C   UNK N   1      24.877  13.833   7.606  0.00  0.00    -0.011 C 
HETATM   10  C   UNK N   1      20.953  14.851   9.298  0.00  0.00     0.044 C 
HETATM   11  C   UNK N   1      20.884  13.378   9.545  0.00  0.00     0.044 C 
HETATM   12  C   UNK N   1      21.275  15.019   7.869  0.00  0.00    -0.047 A 
HETATM   13  C   UNK N   1      22.182  12.944  10.097  0.00  0.00    -0.047 A 
HETATM   14  C   UNK N   1      22.495  14.562   7.296  0.00  0.00    -0.019 A 
HETATM   15  C   UNK N   1      23.423  13.159   9.432  0.00  0.00    -0.019 A 
HETATM   16  C   UNK N   1      23.603  13.856   8.086  0.00  0.00    -0.018 C 
ENDROOT
BRANCH   9  17
HETATM   17  C   UNK N   1      25.413  14.424   6.342  0.00  0.00     0.064 C 
BRANCH  17  18
HETATM   18  C   UNK N   1      26.309  15.609   6.715  0.00  0.00     0.314 C 
BRANCH  18  19
HETATM   19  N   UNK N   1      27.426  15.836   5.815  0.00  0.00     0.005 N 
HETATM   20  C   UNK N   1      28.348  16.752   6.438  0.00  0.00     0.355 C 
HETATM   21  C   UNK N   1      26.931  16.462   4.615  0.00  0.00     0.355 C 
HETATM   22  O   UNK N   1      27.968  14.805   5.558  0.00  0.00    -0.065 OA
ENDBRANCH  18  19
ENDBRANCH  17  18
ENDBRANCH   9  17
TORSDOF 3
ENDMDL
MODEL 7
REMARK VINA RESULT:      -6.3      7.383     12.058
REMARK  3 active torsions:
REMARK  status: ('A' for Active; 'I' for Inactive)
REMARK    1  A    between atoms: C_12  and  C_7 
REMARK    2  A    between atoms: C_15  and  C_7 
REMARK    3  A    between atoms: N_21  and  C_15 
ROOT
HETATM    1  C   UNK N   1      35.899   6.544  16.112  0.00  0.00     0.001 A 
HETATM    2  C   UNK N   1      35.104  13.645  19.529  0.00  0.00     0.001 A 
HETATM    3  C   UNK N   1      36.359   7.310  15.049  0.00  0.00     0.001 A 
HETATM    4  C   UNK N   1      35.090  14.093  18.214  0.00  0.00     0.001 A 
HETATM    5  C   UNK N   1      35.339   7.170  17.221  0.00  0.00     0.008 A 
HETATM    6  C   UNK N   1      35.290  12.293  19.796  0.00  0.00     0.008 A 
HETATM    7  C   UNK N   1      36.254   8.700  15.097  0.00  0.00     0.013 A 
HETATM    8  C   UNK N   1      35.253  13.186  17.170  0.00  0.00     0.013 A 
HETATM    9  C   UNK N   1      35.657  11.570  14.991  0.00  0.00    -0.011 C 
HETATM   10  C   UNK N   1      34.620   9.132  18.496  0.00  0.00     0.044 C 
HETATM   11  C   UNK N   1      35.671   9.965  19.155  0.00  0.00     0.044 C 
HETATM   12  C   UNK N   1      35.237   8.565  17.282  0.00  0.00    -0.047 A 
HETATM   13  C   UNK N   1      35.460  11.370  18.757  0.00  0.00    -0.047 A 
HETATM   14  C   UNK N   1      35.700   9.372  16.205  0.00  0.00    -0.019 A 
HETATM   15  C   UNK N   1      35.433  11.800  17.400  0.00  0.00    -0.019 A 
HETATM   16  C   UNK N   1      35.606  10.902  16.177  0.00  0.00    -0.018 C 
ENDROOT
BRANCH   9  17
HETATM   17  C   UNK N   1      35.803  11.016  13.610  0.00  0.00     0.064 C 
BRANCH  17  18
HETATM   18  C   UNK N   1      34.832  11.767  12.694  0.00  0.00     0.314 C 
BRANCH  18  19
HETATM   19  N   UNK N   1      35.360  12.992  12.120  0.00  0.00     0.005 N 
HETATM   20  C   UNK N   1      34.914  13.097  10.754  0.00  0.00     0.355 C 
HETATM   21  C   UNK N   1      36.798  12.912  12.106  0.00  0.00     0.355 C 
HETATM   22  O   UNK N   1      34.998  13.937  12.753  0.00  0.00    -0.065 OA
ENDBRANCH  18  19
ENDBRANCH  17  18
ENDBRANCH   9  17
TORSDOF 3
ENDMDL
MODEL 8
REMARK VINA RESULT:      -6.1      9.540     11.805
REMARK  3 active torsions:
REMARK  status: ('A' for Active; 'I' for Inactive)
REMARK    1  A    between atoms: C_12  and  C_7 
REMARK    2  A    between atoms: C_15  and  C_7 
REMARK    3  A    between atoms: N_21  and  C_15 
ROOT
HETATM    1  C   UNK N   1      36.945  11.275  11.884  0.00  0.00     0.001 A 
HETATM    2  C   UNK N   1      35.062  12.961  19.391  0.00  0.00     0.001 A 
HETATM    3  C   UNK N   1      36.671   9.978  12.299  0.00  0.00     0.001 A 
HETATM    4  C   UNK N   1      35.373  11.623  19.596  0.00  0.00     0.001 A 
HETATM    5  C   UNK N   1      36.987  12.303  12.821  0.00  0.00     0.008 A 
HETATM    6  C   UNK N   1      35.109  13.491  18.106  0.00  0.00     0.008 A 
HETATM    7  C   UNK N   1      36.443   9.713  13.650  0.00  0.00     0.013 A 
HETATM    8  C   UNK N   1      35.742  10.822  18.518  0.00  0.00     0.013 A 
HETATM    9  C   UNK N   1      36.389   9.069  16.510  0.00  0.00    -0.011 C 
HETATM   10  C   UNK N   1      36.829  13.203  15.091  0.00  0.00     0.044 C 
HETATM   11  C   UNK N   1      35.470  13.358  15.692  0.00  0.00     0.044 C 
HETATM   12  C   UNK N   1      36.752  12.048  14.177  0.00  0.00    -0.047 A 
HETATM   13  C   UNK N   1      35.473  12.698  17.011  0.00  0.00    -0.047 A 
HETATM   14  C   UNK N   1      36.470  10.728  14.628  0.00  0.00    -0.019 A 
HETATM   15  C   UNK N   1      35.814  11.327  17.197  0.00  0.00    -0.019 A 
HETATM   16  C   UNK N   1      36.225  10.355  16.093  0.00  0.00    -0.018 C 
ENDROOT
BRANCH   9  17
HETATM   17  C   UNK N   1      36.796   7.871  15.714  0.00  0.00     0.064 C 
BRANCH  17  18
HETATM   18  C   UNK N   1      38.145   7.383  16.249  0.00  0.00     0.314 C 
BRANCH  18  19
HETATM   19  N   UNK N   1      39.184   7.239  15.245  0.00  0.00     0.005 N 
HETATM   20  C   UNK N   1      39.728   8.540  14.946  0.00  0.00     0.355 C 
HETATM   21  C   UNK N   1      38.590   6.725  14.037  0.00  0.00     0.355 C 
HETATM   22  O   UNK N   1      40.041   6.507  15.636  0.00  0.00    -0.065 OA
ENDBRANCH  18  19
ENDBRANCH  17  18
ENDBRANCH   9  17
TORSDOF 3
ENDMDL
MODEL 9
REMARK VINA RESULT:      -6.1      4.325      6.720
REMARK  3 active torsions:
REMARK  status: ('A' for Active; 'I' for Inactive)
REMARK    1  A    between atoms: C_12  and  C_7 
REMARK    2  A    between atoms: C_15  and  C_7 
REMARK    3  A    between atoms: N_21  and  C_15 
ROOT
HETATM    1  C   UNK N   1      25.972  20.195   3.629  0.00  0.00     0.001 A 
HETATM    2  C   UNK N   1      27.597  12.466   3.024  0.00  0.00     0.001 A 
HETATM    3  C   UNK N   1      27.190  20.211   4.296  0.00  0.00     0.001 A 
HETATM    4  C   UNK N   1      28.421  12.723   4.112  0.00  0.00     0.001 A 
HETATM    5  C   UNK N   1      25.397  18.978   3.277  0.00  0.00     0.008 A 
HETATM    6  C   UNK N   1      26.895  13.509   2.428  0.00  0.00     0.008 A 
HETATM    7  C   UNK N   1      27.827  19.011   4.612  0.00  0.00     0.013 A 
HETATM    8  C   UNK N   1      28.534  14.020   4.607  0.00  0.00     0.013 A 
HETATM    9  C   UNK N   1      28.962  16.517   5.656  0.00  0.00    -0.011 C 
HETATM   10  C   UNK N   1      25.337  16.533   3.175  0.00  0.00     0.044 C 
HETATM   11  C   UNK N   1      26.230  15.849   2.191  0.00  0.00     0.044 C 
HETATM   12  C   UNK N   1      26.032  17.769   3.582  0.00  0.00    -0.047 A 
HETATM   13  C   UNK N   1      27.002  14.818   2.912  0.00  0.00    -0.047 A 
HETATM   14  C   UNK N   1      27.281  17.759   4.266  0.00  0.00    -0.019 A 
HETATM   15  C   UNK N   1      27.827  15.106   4.037  0.00  0.00    -0.019 A 
HETATM   16  C   UNK N   1      28.034  16.484   4.660  0.00  0.00    -0.018 C 
ENDROOT
BRANCH   9  17
HETATM   17  C   UNK N   1      29.403  17.679   6.488  0.00  0.00     0.064 C 
BRANCH  17  18
HETATM   18  C   UNK N   1      29.443  17.227   7.950  0.00  0.00     0.314 C 
BRANCH  18  19
HETATM   19  N   UNK N   1      28.743  18.098   8.878  0.00  0.00     0.005 N 
HETATM   20  C   UNK N   1      28.134  19.174   8.138  0.00  0.00     0.355 C 
HETATM   21  C   UNK N   1      29.705  18.677   9.780  0.00  0.00     0.355 C 
HETATM   22  O   UNK N   1      27.917  17.484   9.481  0.00  0.00    -0.065 OA
ENDBRANCH  18  19
ENDBRANCH  17  18
ENDBRANCH   9  17
TORSDOF 3
ENDMDL
