MODEL 1
REMARK VINA RESULT:      -5.4      0.000      0.000
REMARK  28 active torsions:
REMARK  status: ('A' for Active; 'I' for Inactive)
REMARK    1  A    between atoms: C_2  and  C_4 
REMARK    2  A    between atoms: C_4  and  C_5 
REMARK    3  A    between atoms: C_5  and  C_6 
REMARK    4  A    between atoms: C_5  and  N_9 
REMARK    5  A    between atoms: C_6  and  O_8 
REMARK       I    between atoms: N_9  and  C_10 
REMARK    6  A    between atoms: C_10  and  C_12 
REMARK    7  A    between atoms: C_12  and  C_13 
REMARK    8  A    between atoms: C_12  and  N_18 
REMARK    9  A    between atoms: C_13  and  C_14 
REMARK   10  A    between atoms: C_14  and  C_15 
REMARK   11  A    between atoms: C_15  and  O_17 
REMARK       I    between atoms: N_18  and  C_19 
REMARK   12  A    between atoms: C_19  and  C_21 
REMARK   13  A    between atoms: C_21  and  C_22 
REMARK   14  A    between atoms: C_21  and  N_24 
REMARK   15  A    between atoms: C_22  and  S_23 
REMARK       I    between atoms: N_24  and  C_25 
REMARK   16  A    between atoms: C_25  and  C_27 
REMARK   17  A    between atoms: C_27  and  N_28 
REMARK       I    between atoms: N_28  and  C_29 
REMARK   18  A    between atoms: C_29  and  C_31 
REMARK   19  A    between atoms: C_31  and  C_32 
REMARK   20  A    between atoms: C_31  and  N_36 
REMARK   21  A    between atoms: C_32  and  C_33 
REMARK   22  A    between atoms: C_33  and  O_35 
REMARK       I    between atoms: N_36  and  C_37 
REMARK   23  A    between atoms: C_37  and  C_39 
REMARK   24  A    between atoms: C_39  and  C_40 
REMARK   25  A    between atoms: C_39  and  N_44 
REMARK   26  A    between atoms: C_40  and  C_41 
REMARK   27  A    between atoms: C_41  and  S_42 
REMARK   28  A    between atoms: N_44  and  C_45 
ROOT
HETATM    1  C   UNK N   1      20.485  15.152   2.450  0.00  0.00     0.185 C 
ENDROOT
BRANCH   1   2
HETATM    2  C   UNK N   1      19.804  15.485   3.768  0.00  0.00     0.241 C 
HETATM    3  N   UNK N   1      19.880  16.725   4.315  0.00  0.00    -0.346 N 
HETATM    4  H   UNK N   1      19.360  16.899   5.132  0.00  0.00     0.163 HD
HETATM    5  O   UNK N   1      19.148  14.628   4.341  0.00  0.00    -0.271 OA
BRANCH   3   6
HETATM    6  C   UNK N   1      20.676  17.811   3.777  0.00  0.00     0.177 C 
BRANCH   6   7
HETATM    7  C   UNK N   1      21.468  18.522   4.851  0.00  0.00     0.241 C 
HETATM    8  N   UNK N   1      22.750  18.168   5.106  0.00  0.00    -0.345 N 
HETATM    9  H   UNK N   1      23.246  18.636   5.815  0.00  0.00     0.163 HD
HETATM   10  O   UNK N   1      20.971  19.454   5.463  0.00  0.00    -0.271 OA
BRANCH   8  11
HETATM   11  C   UNK N   1      23.405  17.122   4.360  0.00  0.00     0.182 C 
BRANCH  11  12
HETATM   12  C   UNK N   1      24.680  17.679   3.741  0.00  0.00     0.040 C 
BRANCH  12  13
HETATM   13  C   UNK N   1      25.019  19.048   4.302  0.00  0.00    -0.020 C 
HETATM   14  C   UNK N   1      26.324  18.963   5.064  0.00  0.00     0.009 C 
HETATM   15  C   UNK N   1      25.164  20.051   3.176  0.00  0.00     0.009 C 
ENDBRANCH  12  13
ENDBRANCH  11  12
BRANCH  11  16
HETATM   16  C   UNK N   1      23.667  15.940   5.241  0.00  0.00     0.163 C 
HETATM   17  O   UNK N   1      23.133  14.871   4.995  0.00  0.00    -0.648 OA
BRANCH  16  18
HETATM   18  O   UNK N   1      24.490  16.050   6.303  0.00  0.00    -0.775 OA
HETATM   19  H   UNK N   1      24.521  16.690   6.985  0.00  0.00     0.167 HD
ENDBRANCH  16  18
ENDBRANCH  11  16
ENDBRANCH   8  11
ENDBRANCH   6   7
BRANCH   6  20
HETATM   20  C   UNK N   1      19.855  18.723   2.871  0.00  0.00     0.045 C 
BRANCH  20  21
HETATM   21  C   UNK N   1      20.763  19.305   1.798  0.00  0.00     0.112 C 
BRANCH  21  22
HETATM   22  C   UNK N   1      20.794  20.792   1.876  0.00  0.00     0.139 C 
HETATM   23  O   UNK N   1      20.731  21.454   0.854  0.00  0.00    -0.650 OA
BRANCH  22  24
HETATM   24  O   UNK N   1      20.867  21.407   3.071  0.00  0.00    -0.776 OA
HETATM   25  H   UNK N   1      20.257  22.068   3.332  0.00  0.00     0.167 HD
ENDBRANCH  22  24
ENDBRANCH  21  22
ENDBRANCH  20  21
ENDBRANCH   6  20
ENDBRANCH   3   6
ENDBRANCH   1   2
BRANCH   1  26
HETATM   26  C   UNK N   1      19.495  14.818   1.332  0.00  0.00     0.105 C 
BRANCH  26  27
HETATM   27  S   UNK N   1      19.338  16.181   0.138  0.00  0.00    -0.180 SA
HETATM   28  H   UNK N   1      20.320  16.403  -0.777  0.00  0.00     0.101 HD
ENDBRANCH  26  27
ENDBRANCH   1  26
BRANCH   1  29
HETATM   29  N   UNK N   1      21.495  14.113   2.572  0.00  0.00    -0.346 N 
HETATM   30  C   UNK N   1      22.550  13.991   1.729  0.00  0.00     0.236 C 
HETATM   31  O   UNK N   1      22.668  14.742   0.771  0.00  0.00    -0.272 OA
HETATM   32  H   UNK N   1      21.409  13.463   3.306  0.00  0.00     0.163 HD
BRANCH  30  33
HETATM   33  C   UNK N   1      23.637  12.991   2.005  0.00  0.00     0.225 C 
BRANCH  33  34
HETATM   34  N   UNK N   1      23.426  12.526   3.353  0.00  0.00    -0.351 N 
HETATM   35  C   UNK N   1      23.210  11.219   3.623  0.00  0.00     0.241 C 
HETATM   36  O   UNK N   1      23.450  10.365   2.777  0.00  0.00    -0.271 OA
HETATM   37  H   UNK N   1      23.441  13.174   4.094  0.00  0.00     0.163 HD
BRANCH  35  38
HETATM   38  C   UNK N   1      22.497  10.855   4.900  0.00  0.00     0.186 C 
BRANCH  38  39
HETATM   39  C   UNK N   1      23.036   9.598   5.580  0.00  0.00     0.144 C 
BRANCH  39  40
HETATM   40  C   UNK N   1      21.920   8.597   5.720  0.00  0.00     0.141 C 
HETATM   41  O   UNK N   1      22.134   7.503   6.220  0.00  0.00    -0.650 OA
BRANCH  40  42
HETATM   42  O   UNK N   1      20.670   8.928   5.349  0.00  0.00    -0.776 OA
HETATM   43  H   UNK N   1      19.845   9.332   5.530  0.00  0.00     0.167 HD
ENDBRANCH  40  42
ENDBRANCH  39  40
ENDBRANCH  38  39
BRANCH  38  44
HETATM   44  N   UNK N   1      22.358  12.000   5.773  0.00  0.00    -0.346 N 
HETATM   45  C   UNK N   1      21.192  12.359   6.356  0.00  0.00     0.241 C 
HETATM   46  O   UNK N   1      20.148  11.787   6.074  0.00  0.00    -0.271 OA
HETATM   47  H   UNK N   1      23.156  12.548   5.951  0.00  0.00     0.163 HD
BRANCH  45  48
HETATM   48  C   UNK N   1      21.240  13.312   7.514  0.00  0.00     0.176 C 
BRANCH  48  49
HETATM   49  C   UNK N   1      22.605  13.337   8.176  0.00  0.00     0.045 C 
BRANCH  49  50
HETATM   50  C   UNK N   1      22.475  13.423   9.683  0.00  0.00     0.076 C 
BRANCH  50  51
HETATM   51  S   UNK N   1      22.759  11.776  10.396  0.00  0.00    -0.173 SA
HETATM   52  C   UNK N   1      24.490  12.147  10.801  0.00  0.00     0.089 C 
ENDBRANCH  50  51
ENDBRANCH  49  50
ENDBRANCH  48  49
BRANCH  48  53
HETATM   53  N   UNK N   1      20.905  14.634   7.044  0.00  0.00    -0.355 N 
HETATM   54  H   UNK N   1      21.247  14.947   6.176  0.00  0.00     0.162 HD
BRANCH  53  55
HETATM   55  C   UNK N   1      20.120  15.442   7.791  0.00  0.00     0.349 C 
HETATM   56  O   UNK N   1      19.201  16.053   7.275  0.00  0.00    -0.284 OA
ENDBRANCH  53  55
ENDBRANCH  48  53
ENDBRANCH  45  48
ENDBRANCH  38  44
ENDBRANCH  35  38
ENDBRANCH  33  34
ENDBRANCH  30  33
ENDBRANCH   1  29
TORSDOF 28
ENDMDL
MODEL 2
REMARK VINA RESULT:      -5.3      3.414      5.536
REMARK  28 active torsions:
REMARK  status: ('A' for Active; 'I' for Inactive)
REMARK    1  A    between atoms: C_2  and  C_4 
REMARK    2  A    between atoms: C_4  and  C_5 
REMARK    3  A    between atoms: C_5  and  C_6 
REMARK    4  A    between atoms: C_5  and  N_9 
REMARK    5  A    between atoms: C_6  and  O_8 
REMARK       I    between atoms: N_9  and  C_10 
REMARK    6  A    between atoms: C_10  and  C_12 
REMARK    7  A    between atoms: C_12  and  C_13 
REMARK    8  A    between atoms: C_12  and  N_18 
REMARK    9  A    between atoms: C_13  and  C_14 
REMARK   10  A    between atoms: C_14  and  C_15 
REMARK   11  A    between atoms: C_15  and  O_17 
REMARK       I    between atoms: N_18  and  C_19 
REMARK   12  A    between atoms: C_19  and  C_21 
REMARK   13  A    between atoms: C_21  and  C_22 
REMARK   14  A    between atoms: C_21  and  N_24 
REMARK   15  A    between atoms: C_22  and  S_23 
REMARK       I    between atoms: N_24  and  C_25 
REMARK   16  A    between atoms: C_25  and  C_27 
REMARK   17  A    between atoms: C_27  and  N_28 
REMARK       I    between atoms: N_28  and  C_29 
REMARK   18  A    between atoms: C_29  and  C_31 
REMARK   19  A    between atoms: C_31  and  C_32 
REMARK   20  A    between atoms: C_31  and  N_36 
REMARK   21  A    between atoms: C_32  and  C_33 
REMARK   22  A    between atoms: C_33  and  O_35 
REMARK       I    between atoms: N_36  and  C_37 
REMARK   23  A    between atoms: C_37  and  C_39 
REMARK   24  A    between atoms: C_39  and  C_40 
REMARK   25  A    between atoms: C_39  and  N_44 
REMARK   26  A    between atoms: C_40  and  C_41 
REMARK   27  A    between atoms: C_41  and  S_42 
REMARK   28  A    between atoms: N_44  and  C_45 
ROOT
HETATM    1  C   UNK N   1      21.872  15.444   3.138  0.00  0.00     0.185 C 
ENDROOT
BRANCH   1   2
HETATM    2  C   UNK N   1      20.542  15.848   3.753  0.00  0.00     0.241 C 
HETATM    3  N   UNK N   1      20.325  17.106   4.217  0.00  0.00    -0.346 N 
HETATM    4  H   UNK N   1      19.422  17.327   4.539  0.00  0.00     0.163 HD
HETATM    5  O   UNK N   1      19.632  15.035   3.810  0.00  0.00    -0.271 OA
BRANCH   3   6
HETATM    6  C   UNK N   1      21.335  18.145   4.272  0.00  0.00     0.177 C 
BRANCH   6   7
HETATM    7  C   UNK N   1      21.893  18.323   5.664  0.00  0.00     0.241 C 
HETATM    8  N   UNK N   1      23.232  18.331   5.872  0.00  0.00    -0.345 N 
HETATM    9  H   UNK N   1      23.576  18.438   6.787  0.00  0.00     0.163 HD
HETATM   10  O   UNK N   1      21.141  18.510   6.607  0.00  0.00    -0.271 OA
BRANCH   8  11
HETATM   11  C   UNK N   1      24.164  18.186   4.781  0.00  0.00     0.182 C 
BRANCH  11  12
HETATM   12  C   UNK N   1      25.118  19.372   4.784  0.00  0.00     0.040 C 
BRANCH  12  13
HETATM   13  C   UNK N   1      25.585  19.714   3.380  0.00  0.00    -0.020 C 
HETATM   14  C   UNK N   1      24.555  20.603   2.718  0.00  0.00     0.009 C 
HETATM   15  C   UNK N   1      26.911  20.446   3.436  0.00  0.00     0.009 C 
ENDBRANCH  12  13
ENDBRANCH  11  12
BRANCH  11  16
HETATM   16  C   UNK N   1      24.880  16.875   4.877  0.00  0.00     0.163 C 
HETATM   17  O   UNK N   1      25.167  16.265   3.862  0.00  0.00    -0.648 OA
BRANCH  16  18
HETATM   18  O   UNK N   1      25.210  16.366   6.081  0.00  0.00    -0.775 OA
HETATM   19  H   UNK N   1      24.964  15.561   6.491  0.00  0.00     0.167 HD
ENDBRANCH  16  18
ENDBRANCH  11  16
ENDBRANCH   8  11
ENDBRANCH   6   7
BRANCH   6  20
HETATM   20  C   UNK N   1      20.865  19.429   3.596  0.00  0.00     0.045 C 
BRANCH  20  21
HETATM   21  C   UNK N   1      20.643  19.158   2.116  0.00  0.00     0.112 C 
BRANCH  21  22
HETATM   22  C   UNK N   1      20.836  20.398   1.312  0.00  0.00     0.139 C 
HETATM   23  O   UNK N   1      21.208  21.423   1.859  0.00  0.00    -0.650 OA
BRANCH  22  24
HETATM   24  O   UNK N   1      20.625  20.383  -0.017  0.00  0.00    -0.776 OA
HETATM   25  H   UNK N   1      21.161  19.886  -0.603  0.00  0.00     0.167 HD
ENDBRANCH  22  24
ENDBRANCH  21  22
ENDBRANCH  20  21
ENDBRANCH   6  20
ENDBRANCH   3   6
ENDBRANCH   1   2
BRANCH   1  26
HETATM   26  C   UNK N   1      21.805  15.287   1.617  0.00  0.00     0.105 C 
BRANCH  26  27
HETATM   27  S   UNK N   1      21.699  13.541   1.120  0.00  0.00    -0.180 SA
HETATM   28  H   UNK N   1      21.225  12.610   1.992  0.00  0.00     0.101 HD
ENDBRANCH  26  27
ENDBRANCH   1  26
BRANCH   1  29
HETATM   29  N   UNK N   1      22.454  14.262   3.754  0.00  0.00    -0.346 N 
HETATM   30  C   UNK N   1      22.699  14.153   5.082  0.00  0.00     0.236 C 
HETATM   31  O   UNK N   1      22.482  15.095   5.832  0.00  0.00    -0.272 OA
HETATM   32  H   UNK N   1      22.682  13.499   3.174  0.00  0.00     0.163 HD
BRANCH  30  33
HETATM   33  C   UNK N   1      23.157  12.849   5.671  0.00  0.00     0.225 C 
BRANCH  33  34
HETATM   34  N   UNK N   1      24.444  12.569   5.082  0.00  0.00    -0.351 N 
HETATM   35  C   UNK N   1      25.591  12.988   5.661  0.00  0.00     0.241 C 
HETATM   36  O   UNK N   1      25.591  13.376   6.823  0.00  0.00    -0.271 OA
HETATM   37  H   UNK N   1      24.487  12.061   4.239  0.00  0.00     0.163 HD
BRANCH  35  38
HETATM   38  C   UNK N   1      26.818  13.144   4.800  0.00  0.00     0.186 C 
BRANCH  38  39
HETATM   39  C   UNK N   1      26.747  12.400   3.468  0.00  0.00     0.144 C 
BRANCH  39  40
HETATM   40  C   UNK N   1      26.638  13.401   2.349  0.00  0.00     0.141 C 
HETATM   41  O   UNK N   1      25.542  13.780   1.966  0.00  0.00    -0.650 OA
BRANCH  40  42
HETATM   42  O   UNK N   1      27.753  13.926   1.808  0.00  0.00    -0.776 OA
HETATM   43  H   UNK N   1      28.609  13.824   1.444  0.00  0.00     0.167 HD
ENDBRANCH  40  42
ENDBRANCH  39  40
ENDBRANCH  38  39
BRANCH  38  44
HETATM   44  N   UNK N   1      27.218  14.530   4.694  0.00  0.00    -0.346 N 
HETATM   45  C   UNK N   1      28.474  14.967   4.936  0.00  0.00     0.241 C 
HETATM   46  O   UNK N   1      29.327  14.211   5.379  0.00  0.00    -0.271 OA
HETATM   47  H   UNK N   1      26.536  15.192   4.434  0.00  0.00     0.163 HD
BRANCH  45  48
HETATM   48  C   UNK N   1      28.860  16.330   4.441  0.00  0.00     0.176 C 
BRANCH  48  49
HETATM   49  C   UNK N   1      28.425  17.428   5.394  0.00  0.00     0.045 C 
BRANCH  49  50
HETATM   50  C   UNK N   1      29.386  17.547   6.560  0.00  0.00     0.076 C 
BRANCH  50  51
HETATM   51  S   UNK N   1      28.542  18.377   7.938  0.00  0.00    -0.173 SA
HETATM   52  C   UNK N   1      30.056  18.458   8.939  0.00  0.00     0.089 C 
ENDBRANCH  50  51
ENDBRANCH  49  50
ENDBRANCH  48  49
BRANCH  48  53
HETATM   53  N   UNK N   1      30.291  16.376   4.269  0.00  0.00    -0.355 N 
HETATM   54  H   UNK N   1      30.879  16.406   5.057  0.00  0.00     0.162 HD
BRANCH  53  55
HETATM   55  C   UNK N   1      30.827  16.377   3.028  0.00  0.00     0.349 C 
HETATM   56  O   UNK N   1      31.981  16.727   2.858  0.00  0.00    -0.284 OA
ENDBRANCH  53  55
ENDBRANCH  48  53
ENDBRANCH  45  48
ENDBRANCH  38  44
ENDBRANCH  35  38
ENDBRANCH  33  34
ENDBRANCH  30  33
ENDBRANCH   1  29
TORSDOF 28
ENDMDL
MODEL 3
REMARK VINA RESULT:      -5.2      9.773     12.671
REMARK  28 active torsions:
REMARK  status: ('A' for Active; 'I' for Inactive)
REMARK    1  A    between atoms: C_2  and  C_4 
REMARK    2  A    between atoms: C_4  and  C_5 
REMARK    3  A    between atoms: C_5  and  C_6 
REMARK    4  A    between atoms: C_5  and  N_9 
REMARK    5  A    between atoms: C_6  and  O_8 
REMARK       I    between atoms: N_9  and  C_10 
REMARK    6  A    between atoms: C_10  and  C_12 
REMARK    7  A    between atoms: C_12  and  C_13 
REMARK    8  A    between atoms: C_12  and  N_18 
REMARK    9  A    between atoms: C_13  and  C_14 
REMARK   10  A    between atoms: C_14  and  C_15 
REMARK   11  A    between atoms: C_15  and  O_17 
REMARK       I    between atoms: N_18  and  C_19 
REMARK   12  A    between atoms: C_19  and  C_21 
REMARK   13  A    between atoms: C_21  and  C_22 
REMARK   14  A    between atoms: C_21  and  N_24 
REMARK   15  A    between atoms: C_22  and  S_23 
REMARK       I    between atoms: N_24  and  C_25 
REMARK   16  A    between atoms: C_25  and  C_27 
REMARK   17  A    between atoms: C_27  and  N_28 
REMARK       I    between atoms: N_28  and  C_29 
REMARK   18  A    between atoms: C_29  and  C_31 
REMARK   19  A    between atoms: C_31  and  C_32 
REMARK   20  A    between atoms: C_31  and  N_36 
REMARK   21  A    between atoms: C_32  and  C_33 
REMARK   22  A    between atoms: C_33  and  O_35 
REMARK       I    between atoms: N_36  and  C_37 
REMARK   23  A    between atoms: C_37  and  C_39 
REMARK   24  A    between atoms: C_39  and  C_40 
REMARK   25  A    between atoms: C_39  and  N_44 
REMARK   26  A    between atoms: C_40  and  C_41 
REMARK   27  A    between atoms: C_41  and  S_42 
REMARK   28  A    between atoms: N_44  and  C_45 
ROOT
HETATM    1  C   UNK N   1      32.091  16.094   5.814  0.00  0.00     0.185 C 
ENDROOT
BRANCH   1   2
HETATM    2  C   UNK N   1      31.168  14.886   5.792  0.00  0.00     0.241 C 
HETATM    3  N   UNK N   1      29.825  15.019   5.637  0.00  0.00    -0.346 N 
HETATM    4  H   UNK N   1      29.289  14.197   5.559  0.00  0.00     0.163 HD
HETATM    5  O   UNK N   1      31.642  13.764   5.888  0.00  0.00    -0.271 OA
BRANCH   3   6
HETATM    6  C   UNK N   1      29.128  16.289   5.579  0.00  0.00     0.177 C 
BRANCH   6   7
HETATM    7  C   UNK N   1      27.850  16.274   6.385  0.00  0.00     0.241 C 
HETATM    8  N   UNK N   1      27.554  17.297   7.221  0.00  0.00    -0.345 N 
HETATM    9  H   UNK N   1      26.722  17.264   7.746  0.00  0.00     0.163 HD
HETATM   10  O   UNK N   1      27.052  15.360   6.251  0.00  0.00    -0.271 OA
BRANCH   8  11
HETATM   11  C   UNK N   1      28.431  18.434   7.361  0.00  0.00     0.182 C 
BRANCH  11  12
HETATM   12  C   UNK N   1      27.598  19.708   7.333  0.00  0.00     0.040 C 
BRANCH  12  13
HETATM   13  C   UNK N   1      27.624  20.359   5.962  0.00  0.00    -0.020 C 
HETATM   14  C   UNK N   1      26.642  19.650   5.056  0.00  0.00     0.009 C 
HETATM   15  C   UNK N   1      27.234  21.820   6.072  0.00  0.00     0.009 C 
ENDBRANCH  12  13
ENDBRANCH  11  12
BRANCH  11  16
HETATM   16  C   UNK N   1      29.248  18.312   8.609  0.00  0.00     0.163 C 
HETATM   17  O   UNK N   1      30.383  17.872   8.549  0.00  0.00    -0.648 OA
BRANCH  16  18
HETATM   18  O   UNK N   1      28.736  18.688   9.798  0.00  0.00    -0.775 OA
HETATM   19  H   UNK N   1      27.865  18.936  10.035  0.00  0.00     0.167 HD
ENDBRANCH  16  18
ENDBRANCH  11  16
ENDBRANCH   8  11
ENDBRANCH   6   7
BRANCH   6  20
HETATM   20  C   UNK N   1      28.980  16.790   4.146  0.00  0.00     0.045 C 
BRANCH  20  21
HETATM   21  C   UNK N   1      28.636  15.616   3.242  0.00  0.00     0.112 C 
BRANCH  21  22
HETATM   22  C   UNK N   1      27.264  15.761   2.679  0.00  0.00     0.139 C 
HETATM   23  O   UNK N   1      26.513  16.612   3.125  0.00  0.00    -0.650 OA
BRANCH  22  24
HETATM   24  O   UNK N   1      26.861  14.973   1.665  0.00  0.00    -0.776 OA
HETATM   25  H   UNK N   1      27.242  15.024   0.811  0.00  0.00     0.167 HD
ENDBRANCH  22  24
ENDBRANCH  21  22
ENDBRANCH  20  21
ENDBRANCH   6  20
ENDBRANCH   3   6
ENDBRANCH   1   2
BRANCH   1  26
HETATM   26  C   UNK N   1      33.204  16.016   4.768  0.00  0.00     0.105 C 
BRANCH  26  27
HETATM   27  S   UNK N   1      32.688  16.727   3.175  0.00  0.00    -0.180 SA
HETATM   28  H   UNK N   1      31.367  16.918   2.909  0.00  0.00     0.101 HD
ENDBRANCH  26  27
ENDBRANCH   1  26
BRANCH   1  29
HETATM   29  N   UNK N   1      32.639  16.373   7.132  0.00  0.00    -0.346 N 
HETATM   30  C   UNK N   1      33.535  17.361   7.376  0.00  0.00     0.236 C 
HETATM   31  O   UNK N   1      33.972  18.043   6.459  0.00  0.00    -0.272 OA
HETATM   32  H   UNK N   1      32.344  15.816   7.887  0.00  0.00     0.163 HD
BRANCH  30  33
HETATM   33  C   UNK N   1      33.942  17.692   8.784  0.00  0.00     0.225 C 
BRANCH  33  34
HETATM   34  N   UNK N   1      34.119  16.432   9.462  0.00  0.00    -0.351 N 
HETATM   35  C   UNK N   1      35.177  16.208  10.272  0.00  0.00     0.241 C 
HETATM   36  O   UNK N   1      35.864  17.144  10.664  0.00  0.00    -0.271 OA
HETATM   37  H   UNK N   1      33.453  15.718   9.332  0.00  0.00     0.163 HD
BRANCH  35  38
HETATM   38  C   UNK N   1      35.602  14.785  10.527  0.00  0.00     0.186 C 
BRANCH  38  39
HETATM   39  C   UNK N   1      36.441  14.173   9.408  0.00  0.00     0.144 C 
BRANCH  39  40
HETATM   40  C   UNK N   1      37.834  13.918   9.919  0.00  0.00     0.141 C 
HETATM   41  O   UNK N   1      38.169  12.794  10.260  0.00  0.00    -0.650 OA
BRANCH  40  42
HETATM   42  O   UNK N   1      38.733  14.919   9.945  0.00  0.00    -0.776 OA
HETATM   43  H   UNK N   1      39.238  15.551  10.418  0.00  0.00     0.167 HD
ENDBRANCH  40  42
ENDBRANCH  39  40
ENDBRANCH  38  39
BRANCH  38  44
HETATM   44  N   UNK N   1      36.160  14.629  11.853  0.00  0.00    -0.346 N 
HETATM   45  C   UNK N   1      35.620  13.832  12.803  0.00  0.00     0.241 C 
HETATM   46  O   UNK N   1      34.543  13.282  12.622  0.00  0.00    -0.271 OA
HETATM   47  H   UNK N   1      36.977  15.132  12.075  0.00  0.00     0.163 HD
BRANCH  45  48
HETATM   48  C   UNK N   1      36.469  13.459  13.983  0.00  0.00     0.176 C 
BRANCH  48  49
HETATM   49  C   UNK N   1      35.699  12.640  15.003  0.00  0.00     0.045 C 
BRANCH  49  50
HETATM   50  C   UNK N   1      35.646  13.349  16.340  0.00  0.00     0.076 C 
BRANCH  50  51
HETATM   51  S   UNK N   1      35.184  12.151  17.626  0.00  0.00    -0.173 SA
HETATM   52  C   UNK N   1      35.196  13.411  18.935  0.00  0.00     0.089 C 
ENDBRANCH  50  51
ENDBRANCH  49  50
ENDBRANCH  48  49
BRANCH  48  53
HETATM   53  N   UNK N   1      37.609  12.708  13.519  0.00  0.00    -0.355 N 
HETATM   54  H   UNK N   1      38.392  13.180  13.155  0.00  0.00     0.162 HD
BRANCH  53  55
HETATM   55  C   UNK N   1      37.605  11.358  13.584  0.00  0.00     0.349 C 
HETATM   56  O   UNK N   1      37.282  10.697  12.612  0.00  0.00    -0.284 OA
ENDBRANCH  53  55
ENDBRANCH  48  53
ENDBRANCH  45  48
ENDBRANCH  38  44
ENDBRANCH  35  38
ENDBRANCH  33  34
ENDBRANCH  30  33
ENDBRANCH   1  29
TORSDOF 28
ENDMDL
MODEL 4
REMARK VINA RESULT:      -5.1      2.272      3.487
REMARK  28 active torsions:
REMARK  status: ('A' for Active; 'I' for Inactive)
REMARK    1  A    between atoms: C_2  and  C_4 
REMARK    2  A    between atoms: C_4  and  C_5 
REMARK    3  A    between atoms: C_5  and  C_6 
REMARK    4  A    between atoms: C_5  and  N_9 
REMARK    5  A    between atoms: C_6  and  O_8 
REMARK       I    between atoms: N_9  and  C_10 
REMARK    6  A    between atoms: C_10  and  C_12 
REMARK    7  A    between atoms: C_12  and  C_13 
REMARK    8  A    between atoms: C_12  and  N_18 
REMARK    9  A    between atoms: C_13  and  C_14 
REMARK   10  A    between atoms: C_14  and  C_15 
REMARK   11  A    between atoms: C_15  and  O_17 
REMARK       I    between atoms: N_18  and  C_19 
REMARK   12  A    between atoms: C_19  and  C_21 
REMARK   13  A    between atoms: C_21  and  C_22 
REMARK   14  A    between atoms: C_21  and  N_24 
REMARK   15  A    between atoms: C_22  and  S_23 
REMARK       I    between atoms: N_24  and  C_25 
REMARK   16  A    between atoms: C_25  and  C_27 
REMARK   17  A    between atoms: C_27  and  N_28 
REMARK       I    between atoms: N_28  and  C_29 
REMARK   18  A    between atoms: C_29  and  C_31 
REMARK   19  A    between atoms: C_31  and  C_32 
REMARK   20  A    between atoms: C_31  and  N_36 
REMARK   21  A    between atoms: C_32  and  C_33 
REMARK   22  A    between atoms: C_33  and  O_35 
REMARK       I    between atoms: N_36  and  C_37 
REMARK   23  A    between atoms: C_37  and  C_39 
REMARK   24  A    between atoms: C_39  and  C_40 
REMARK   25  A    between atoms: C_39  and  N_44 
REMARK   26  A    between atoms: C_40  and  C_41 
REMARK   27  A    between atoms: C_41  and  S_42 
REMARK   28  A    between atoms: N_44  and  C_45 
ROOT
HETATM    1  C   UNK N   1      21.074  15.670   2.734  0.00  0.00     0.185 C 
ENDROOT
BRANCH   1   2
HETATM    2  C   UNK N   1      20.003  15.999   3.761  0.00  0.00     0.241 C 
HETATM    3  N   UNK N   1      20.022  17.163   4.461  0.00  0.00    -0.346 N 
HETATM    4  H   UNK N   1      19.264  17.351   5.060  0.00  0.00     0.163 HD
HETATM    5  O   UNK N   1      19.085  15.214   3.948  0.00  0.00    -0.271 OA
BRANCH   3   6
HETATM    6  C   UNK N   1      21.084  18.147   4.387  0.00  0.00     0.177 C 
BRANCH   6   7
HETATM    7  C   UNK N   1      21.697  18.425   5.739  0.00  0.00     0.241 C 
HETATM    8  N   UNK N   1      23.039  18.360   5.911  0.00  0.00    -0.345 N 
HETATM    9  H   UNK N   1      23.419  18.535   6.802  0.00  0.00     0.163 HD
HETATM   10  O   UNK N   1      20.989  18.759   6.676  0.00  0.00    -0.271 OA
BRANCH   8  11
HETATM   11  C   UNK N   1      23.924  18.041   4.819  0.00  0.00     0.182 C 
BRANCH  11  12
HETATM   12  C   UNK N   1      25.088  19.022   4.820  0.00  0.00     0.040 C 
BRANCH  12  13
HETATM   13  C   UNK N   1      25.385  19.535   3.422  0.00  0.00    -0.020 C 
HETATM   14  C   UNK N   1      24.320  20.534   3.023  0.00  0.00     0.009 C 
HETATM   15  C   UNK N   1      26.740  20.214   3.393  0.00  0.00     0.009 C 
ENDBRANCH  12  13
ENDBRANCH  11  12
BRANCH  11  16
HETATM   16  C   UNK N   1      24.377  16.617   4.913  0.00  0.00     0.163 C 
HETATM   17  O   UNK N   1      24.456  15.938   3.904  0.00  0.00    -0.648 OA
BRANCH  16  18
HETATM   18  O   UNK N   1      24.698  16.083   6.108  0.00  0.00    -0.775 OA
HETATM   19  H   UNK N   1      24.351  16.247   6.963  0.00  0.00     0.167 HD
ENDBRANCH  16  18
ENDBRANCH  11  16
ENDBRANCH   8  11
ENDBRANCH   6   7
BRANCH   6  20
HETATM   20  C   UNK N   1      20.657  19.385   3.605  0.00  0.00     0.045 C 
BRANCH  20  21
HETATM   21  C   UNK N   1      21.030  19.201   2.141  0.00  0.00     0.112 C 
BRANCH  21  22
HETATM   22  C   UNK N   1      21.045  20.508   1.427  0.00  0.00     0.139 C 
HETATM   23  O   UNK N   1      21.058  20.532   0.207  0.00  0.00    -0.650 OA
BRANCH  22  24
HETATM   24  O   UNK N   1      21.019  21.660   2.122  0.00  0.00    -0.776 OA
HETATM   25  H   UNK N   1      21.455  22.434   1.824  0.00  0.00     0.167 HD
ENDBRANCH  22  24
ENDBRANCH  21  22
ENDBRANCH  20  21
ENDBRANCH   6  20
ENDBRANCH   3   6
ENDBRANCH   1   2
BRANCH   1  26
HETATM   26  C   UNK N   1      20.590  15.835   1.291  0.00  0.00     0.105 C 
BRANCH  26  27
HETATM   27  S   UNK N   1      19.453  14.504   0.801  0.00  0.00    -0.180 SA
HETATM   28  H   UNK N   1      18.110  14.724   0.786  0.00  0.00     0.101 HD
ENDBRANCH  26  27
ENDBRANCH   1  26
BRANCH   1  29
HETATM   29  N   UNK N   1      21.675  14.360   2.930  0.00  0.00    -0.346 N 
HETATM   30  C   UNK N   1      22.731  13.906   2.212  0.00  0.00     0.236 C 
HETATM   31  O   UNK N   1      23.202  14.580   1.307  0.00  0.00    -0.272 OA
HETATM   32  H   UNK N   1      21.294  13.771   3.621  0.00  0.00     0.163 HD
BRANCH  30  33
HETATM   33  C   UNK N   1      23.397  12.607   2.571  0.00  0.00     0.225 C 
BRANCH  33  34
HETATM   34  N   UNK N   1      24.484  12.942   3.459  0.00  0.00    -0.351 N 
HETATM   35  C   UNK N   1      25.329  11.997   3.927  0.00  0.00     0.241 C 
HETATM   36  O   UNK N   1      25.364  10.887   3.408  0.00  0.00    -0.271 OA
HETATM   37  H   UNK N   1      24.613  13.880   3.729  0.00  0.00     0.163 HD
BRANCH  35  38
HETATM   38  C   UNK N   1      26.081  12.271   5.204  0.00  0.00     0.186 C 
BRANCH  38  39
HETATM   39  C   UNK N   1      27.482  12.839   4.995  0.00  0.00     0.144 C 
BRANCH  39  40
HETATM   40  C   UNK N   1      27.391  14.335   4.849  0.00  0.00     0.141 C 
HETATM   41  O   UNK N   1      27.550  15.059   5.820  0.00  0.00    -0.650 OA
BRANCH  40  42
HETATM   42  O   UNK N   1      27.193  14.880   3.634  0.00  0.00    -0.776 OA
HETATM   43  H   UNK N   1      26.646  15.042   2.892  0.00  0.00     0.167 HD
ENDBRANCH  40  42
ENDBRANCH  39  40
ENDBRANCH  38  39
BRANCH  38  44
HETATM   44  N   UNK N   1      25.268  13.005   6.149  0.00  0.00    -0.346 N 
HETATM   45  C   UNK N   1      24.438  12.415   7.039  0.00  0.00     0.241 C 
HETATM   46  O   UNK N   1      24.241  11.208   7.008  0.00  0.00    -0.271 OA
HETATM   47  H   UNK N   1      25.322  13.988   6.143  0.00  0.00     0.163 HD
BRANCH  45  48
HETATM   48  C   UNK N   1      23.942  13.230   8.197  0.00  0.00     0.176 C 
BRANCH  48  49
HETATM   49  C   UNK N   1      22.517  12.873   8.578  0.00  0.00     0.045 C 
BRANCH  49  50
HETATM   50  C   UNK N   1      21.666  14.117   8.722  0.00  0.00     0.076 C 
BRANCH  50  51
HETATM   51  S   UNK N   1      21.413  14.854   7.081  0.00  0.00    -0.173 SA
HETATM   52  C   UNK N   1      20.660  13.341   6.415  0.00  0.00     0.089 C 
ENDBRANCH  50  51
ENDBRANCH  49  50
ENDBRANCH  48  49
BRANCH  48  53
HETATM   53  N   UNK N   1      24.814  13.015   9.326  0.00  0.00    -0.355 N 
HETATM   54  H   UNK N   1      25.677  13.485   9.375  0.00  0.00     0.162 HD
BRANCH  53  55
HETATM   55  C   UNK N   1      24.448  12.171  10.316  0.00  0.00     0.349 C 
HETATM   56  O   UNK N   1      24.975  12.246  11.412  0.00  0.00    -0.284 OA
ENDBRANCH  53  55
ENDBRANCH  48  53
ENDBRANCH  45  48
ENDBRANCH  38  44
ENDBRANCH  35  38
ENDBRANCH  33  34
ENDBRANCH  30  33
ENDBRANCH   1  29
TORSDOF 28
ENDMDL
MODEL 5
REMARK VINA RESULT:      -5.0      2.302      4.407
REMARK  28 active torsions:
REMARK  status: ('A' for Active; 'I' for Inactive)
REMARK    1  A    between atoms: C_2  and  C_4 
REMARK    2  A    between atoms: C_4  and  C_5 
REMARK    3  A    between atoms: C_5  and  C_6 
REMARK    4  A    between atoms: C_5  and  N_9 
REMARK    5  A    between atoms: C_6  and  O_8 
REMARK       I    between atoms: N_9  and  C_10 
REMARK    6  A    between atoms: C_10  and  C_12 
REMARK    7  A    between atoms: C_12  and  C_13 
REMARK    8  A    between atoms: C_12  and  N_18 
REMARK    9  A    between atoms: C_13  and  C_14 
REMARK   10  A    between atoms: C_14  and  C_15 
REMARK   11  A    between atoms: C_15  and  O_17 
REMARK       I    between atoms: N_18  and  C_19 
REMARK   12  A    between atoms: C_19  and  C_21 
REMARK   13  A    between atoms: C_21  and  C_22 
REMARK   14  A    between atoms: C_21  and  N_24 
REMARK   15  A    between atoms: C_22  and  S_23 
REMARK       I    between atoms: N_24  and  C_25 
REMARK   16  A    between atoms: C_25  and  C_27 
REMARK   17  A    between atoms: C_27  and  N_28 
REMARK       I    between atoms: N_28  and  C_29 
REMARK   18  A    between atoms: C_29  and  C_31 
REMARK   19  A    between atoms: C_31  and  C_32 
REMARK   20  A    between atoms: C_31  and  N_36 
REMARK   21  A    between atoms: C_32  and  C_33 
REMARK   22  A    between atoms: C_33  and  O_35 
REMARK       I    between atoms: N_36  and  C_37 
REMARK   23  A    between atoms: C_37  and  C_39 
REMARK   24  A    between atoms: C_39  and  C_40 
REMARK   25  A    between atoms: C_39  and  N_44 
REMARK   26  A    between atoms: C_40  and  C_41 
REMARK   27  A    between atoms: C_41  and  S_42 
REMARK   28  A    between atoms: N_44  and  C_45 
ROOT
HETATM    1  C   UNK N   1      21.437  18.202   4.249  0.00  0.00     0.185 C 
ENDROOT
BRANCH   1   2
HETATM    2  C   UNK N   1      22.156  18.211   5.588  0.00  0.00     0.241 C 
HETATM    3  N   UNK N   1      23.453  17.821   5.702  0.00  0.00    -0.346 N 
HETATM    4  H   UNK N   1      23.885  17.916   6.582  0.00  0.00     0.163 HD
HETATM    5  O   UNK N   1      21.569  18.600   6.586  0.00  0.00    -0.271 OA
BRANCH   3   6
HETATM    6  C   UNK N   1      24.244  17.275   4.617  0.00  0.00     0.177 C 
BRANCH   6   7
HETATM    7  C   UNK N   1      25.081  16.098   5.059  0.00  0.00     0.241 C 
HETATM    8  N   UNK N   1      25.354  15.088   4.200  0.00  0.00    -0.345 N 
HETATM    9  H   UNK N   1      25.893  14.325   4.509  0.00  0.00     0.163 HD
HETATM   10  O   UNK N   1      25.559  16.073   6.183  0.00  0.00    -0.271 OA
BRANCH   8  11
HETATM   11  C   UNK N   1      24.873  15.105   2.840  0.00  0.00     0.182 C 
BRANCH  11  12
HETATM   12  C   UNK N   1      26.065  15.089   1.893  0.00  0.00     0.040 C 
BRANCH  12  13
HETATM   13  C   UNK N   1      27.282  14.455   2.542  0.00  0.00    -0.020 C 
HETATM   14  C   UNK N   1      27.529  13.099   1.916  0.00  0.00     0.009 C 
HETATM   15  C   UNK N   1      28.501  15.330   2.329  0.00  0.00     0.009 C 
ENDBRANCH  12  13
ENDBRANCH  11  12
BRANCH  11  16
HETATM   16  C   UNK N   1      23.939  13.960   2.603  0.00  0.00     0.163 C 
HETATM   17  O   UNK N   1      23.975  13.358   1.544  0.00  0.00    -0.648 OA
BRANCH  16  18
HETATM   18  O   UNK N   1      23.058  13.591   3.555  0.00  0.00    -0.775 OA
HETATM   19  H   UNK N   1      23.193  13.157   4.374  0.00  0.00     0.167 HD
ENDBRANCH  16  18
ENDBRANCH  11  16
ENDBRANCH   8  11
ENDBRANCH   6   7
BRANCH   6  20
HETATM   20  C   UNK N   1      25.005  18.363   3.866  0.00  0.00     0.045 C 
BRANCH  20  21
HETATM   21  C   UNK N   1      25.393  19.462   4.845  0.00  0.00     0.112 C 
BRANCH  21  22
HETATM   22  C   UNK N   1      26.800  19.294   5.304  0.00  0.00     0.139 C 
HETATM   23  O   UNK N   1      27.717  19.702   4.611  0.00  0.00    -0.650 OA
BRANCH  22  24
HETATM   24  O   UNK N   1      27.061  18.715   6.491  0.00  0.00    -0.776 OA
HETATM   25  H   UNK N   1      27.589  19.130   7.145  0.00  0.00     0.167 HD
ENDBRANCH  22  24
ENDBRANCH  21  22
ENDBRANCH  20  21
ENDBRANCH   6  20
ENDBRANCH   3   6
ENDBRANCH   1   2
BRANCH   1  26
HETATM   26  C   UNK N   1      20.891  19.576   3.855  0.00  0.00     0.105 C 
BRANCH  26  27
HETATM   27  S   UNK N   1      20.993  19.857   2.061  0.00  0.00    -0.180 SA
HETATM   28  H   UNK N   1      21.502  18.892   1.248  0.00  0.00     0.101 HD
ENDBRANCH  26  27
ENDBRANCH   1  26
BRANCH   1  29
HETATM   29  N   UNK N   1      20.398  17.189   4.161  0.00  0.00    -0.346 N 
HETATM   30  C   UNK N   1      20.471  16.111   3.342  0.00  0.00     0.236 C 
HETATM   31  O   UNK N   1      21.419  15.972   2.583  0.00  0.00    -0.272 OA
HETATM   32  H   UNK N   1      19.599  17.291   4.726  0.00  0.00     0.163 HD
BRANCH  30  33
HETATM   33  C   UNK N   1      19.435  15.025   3.415  0.00  0.00     0.225 C 
BRANCH  33  34
HETATM   34  N   UNK N   1      20.110  13.854   3.918  0.00  0.00    -0.351 N 
HETATM   35  C   UNK N   1      19.429  12.844   4.503  0.00  0.00     0.241 C 
HETATM   36  O   UNK N   1      18.211  12.768   4.384  0.00  0.00    -0.271 OA
HETATM   37  H   UNK N   1      21.088  13.789   3.832  0.00  0.00     0.163 HD
BRANCH  35  38
HETATM   38  C   UNK N   1      20.165  11.931   5.449  0.00  0.00     0.186 C 
BRANCH  38  39
HETATM   39  C   UNK N   1      20.360  10.511   4.923  0.00  0.00     0.144 C 
BRANCH  39  40
HETATM   40  C   UNK N   1      21.827  10.274   4.676  0.00  0.00     0.141 C 
HETATM   41  O   UNK N   1      22.351  10.676   3.649  0.00  0.00    -0.650 OA
BRANCH  40  42
HETATM   42  O   UNK N   1      22.576   9.668   5.616  0.00  0.00    -0.776 OA
HETATM   43  H   UNK N   1      23.388   9.296   5.897  0.00  0.00     0.167 HD
ENDBRANCH  40  42
ENDBRANCH  39  40
ENDBRANCH  38  39
BRANCH  38  44
HETATM   44  N   UNK N   1      21.367  12.555   5.958  0.00  0.00    -0.346 N 
HETATM   45  C   UNK N   1      21.554  12.867   7.261  0.00  0.00     0.241 C 
HETATM   46  O   UNK N   1      20.648  12.740   8.073  0.00  0.00    -0.271 OA
HETATM   47  H   UNK N   1      22.088  12.766   5.321  0.00  0.00     0.163 HD
BRANCH  45  48
HETATM   48  C   UNK N   1      22.950  13.155   7.729  0.00  0.00     0.176 C 
BRANCH  48  49
HETATM   49  C   UNK N   1      23.470  12.082   8.669  0.00  0.00     0.045 C 
BRANCH  49  50
HETATM   50  C   UNK N   1      23.694  12.640  10.059  0.00  0.00     0.076 C 
BRANCH  50  51
HETATM   51  S   UNK N   1      22.241  12.270  11.086  0.00  0.00    -0.173 SA
HETATM   52  C   UNK N   1      23.252  11.925  12.556  0.00  0.00     0.089 C 
ENDBRANCH  50  51
ENDBRANCH  49  50
ENDBRANCH  48  49
BRANCH  48  53
HETATM   53  N   UNK N   1      23.817  13.255   6.581  0.00  0.00    -0.355 N 
HETATM   54  H   UNK N   1      23.673  13.968   5.919  0.00  0.00     0.162 HD
BRANCH  53  55
HETATM   55  C   UNK N   1      24.826  12.372   6.413  0.00  0.00     0.349 C 
HETATM   56  O   UNK N   1      25.854  12.714   5.856  0.00  0.00    -0.284 OA
ENDBRANCH  53  55
ENDBRANCH  48  53
ENDBRANCH  45  48
ENDBRANCH  38  44
ENDBRANCH  35  38
ENDBRANCH  33  34
ENDBRANCH  30  33
ENDBRANCH   1  29
TORSDOF 28
ENDMDL
MODEL 6
REMARK VINA RESULT:      -5.0      4.946      8.765
REMARK  28 active torsions:
REMARK  status: ('A' for Active; 'I' for Inactive)
REMARK    1  A    between atoms: C_2  and  C_4 
REMARK    2  A    between atoms: C_4  and  C_5 
REMARK    3  A    between atoms: C_5  and  C_6 
REMARK    4  A    between atoms: C_5  and  N_9 
REMARK    5  A    between atoms: C_6  and  O_8 
REMARK       I    between atoms: N_9  and  C_10 
REMARK    6  A    between atoms: C_10  and  C_12 
REMARK    7  A    between atoms: C_12  and  C_13 
REMARK    8  A    between atoms: C_12  and  N_18 
REMARK    9  A    between atoms: C_13  and  C_14 
REMARK   10  A    between atoms: C_14  and  C_15 
REMARK   11  A    between atoms: C_15  and  O_17 
REMARK       I    between atoms: N_18  and  C_19 
REMARK   12  A    between atoms: C_19  and  C_21 
REMARK   13  A    between atoms: C_21  and  C_22 
REMARK   14  A    between atoms: C_21  and  N_24 
REMARK   15  A    between atoms: C_22  and  S_23 
REMARK       I    between atoms: N_24  and  C_25 
REMARK   16  A    between atoms: C_25  and  C_27 
REMARK   17  A    between atoms: C_27  and  N_28 
REMARK       I    between atoms: N_28  and  C_29 
REMARK   18  A    between atoms: C_29  and  C_31 
REMARK   19  A    between atoms: C_31  and  C_32 
REMARK   20  A    between atoms: C_31  and  N_36 
REMARK   21  A    between atoms: C_32  and  C_33 
REMARK   22  A    between atoms: C_33  and  O_35 
REMARK       I    between atoms: N_36  and  C_37 
REMARK   23  A    between atoms: C_37  and  C_39 
REMARK   24  A    between atoms: C_39  and  C_40 
REMARK   25  A    between atoms: C_39  and  N_44 
REMARK   26  A    between atoms: C_40  and  C_41 
REMARK   27  A    between atoms: C_41  and  S_42 
REMARK   28  A    between atoms: N_44  and  C_45 
ROOT
HETATM    1  C   UNK N   1      22.317  18.297   4.727  0.00  0.00     0.185 C 
ENDROOT
BRANCH   1   2
HETATM    2  C   UNK N   1      21.400  17.906   5.875  0.00  0.00     0.241 C 
HETATM    3  N   UNK N   1      20.777  16.699   5.910  0.00  0.00    -0.346 N 
HETATM    4  H   UNK N   1      20.253  16.476   6.713  0.00  0.00     0.163 HD
HETATM    5  O   UNK N   1      21.236  18.681   6.805  0.00  0.00    -0.271 OA
BRANCH   3   6
HETATM    6  C   UNK N   1      20.831  15.718   4.844  0.00  0.00     0.177 C 
BRANCH   6   7
HETATM    7  C   UNK N   1      19.456  15.362   4.329  0.00  0.00     0.241 C 
HETATM    8  N   UNK N   1      19.238  15.213   3.000  0.00  0.00    -0.345 N 
HETATM    9  H   UNK N   1      18.333  14.992   2.683  0.00  0.00     0.163 HD
HETATM   10  O   UNK N   1      18.542  15.158   5.111  0.00  0.00    -0.271 OA
BRANCH   8  11
HETATM   11  C   UNK N   1      20.302  15.373   2.040  0.00  0.00     0.182 C 
BRANCH  11  12
HETATM   12  C   UNK N   1      20.868  14.003   1.695  0.00  0.00     0.040 C 
BRANCH  12  13
HETATM   13  C   UNK N   1      22.163  14.117   0.912  0.00  0.00    -0.020 C 
HETATM   14  C   UNK N   1      23.238  14.692   1.809  0.00  0.00     0.009 C 
HETATM   15  C   UNK N   1      22.600  12.750   0.425  0.00  0.00     0.009 C 
ENDBRANCH  12  13
ENDBRANCH  11  12
BRANCH  11  16
HETATM   16  C   UNK N   1      19.809  16.109   0.832  0.00  0.00     0.163 C 
HETATM   17  O   UNK N   1      20.467  17.025   0.371  0.00  0.00    -0.648 OA
BRANCH  16  18
HETATM   18  O   UNK N   1      18.642  15.762   0.253  0.00  0.00    -0.775 OA
HETATM   19  H   UNK N   1      18.115  16.215  -0.374  0.00  0.00     0.167 HD
ENDBRANCH  16  18
ENDBRANCH  11  16
ENDBRANCH   8  11
ENDBRANCH   6   7
BRANCH   6  20
HETATM   20  C   UNK N   1      21.709  14.527   5.213  0.00  0.00     0.045 C 
BRANCH  20  21
HETATM   21  C   UNK N   1      21.839  14.457   6.728  0.00  0.00     0.112 C 
BRANCH  21  22
HETATM   22  C   UNK N   1      20.871  13.480   7.300  0.00  0.00     0.139 C 
HETATM   23  O   UNK N   1      20.670  12.421   6.731  0.00  0.00    -0.650 OA
BRANCH  22  24
HETATM   24  O   UNK N   1      20.237  13.753   8.456  0.00  0.00    -0.776 OA
HETATM   25  H   UNK N   1      20.551  13.445   9.284  0.00  0.00     0.167 HD
ENDBRANCH  22  24
ENDBRANCH  21  22
ENDBRANCH  20  21
ENDBRANCH   6  20
ENDBRANCH   3   6
ENDBRANCH   1   2
BRANCH   1  26
HETATM   26  C   UNK N   1      21.573  18.472   3.401  0.00  0.00     0.105 C 
BRANCH  26  27
HETATM   27  S   UNK N   1      20.675  20.052   3.332  0.00  0.00    -0.180 SA
HETATM   28  H   UNK N   1      19.333  20.085   3.553  0.00  0.00     0.101 HD
ENDBRANCH  26  27
ENDBRANCH   1  26
BRANCH   1  29
HETATM   29  N   UNK N   1      23.452  17.402   4.568  0.00  0.00    -0.346 N 
HETATM   30  C   UNK N   1      24.739  17.786   4.750  0.00  0.00     0.236 C 
HETATM   31  O   UNK N   1      25.008  18.950   5.012  0.00  0.00    -0.272 OA
HETATM   32  H   UNK N   1      23.276  16.467   4.314  0.00  0.00     0.163 HD
BRANCH  30  33
HETATM   33  C   UNK N   1      25.850  16.774   4.720  0.00  0.00     0.225 C 
BRANCH  33  34
HETATM   34  N   UNK N   1      27.063  17.497   5.012  0.00  0.00    -0.351 N 
HETATM   35  C   UNK N   1      28.005  16.991   5.839  0.00  0.00     0.241 C 
HETATM   36  O   UNK N   1      27.982  15.805   6.149  0.00  0.00    -0.271 OA
HETATM   37  H   UNK N   1      27.210  18.379   4.598  0.00  0.00     0.163 HD
BRANCH  35  38
HETATM   38  C   UNK N   1      28.958  17.942   6.514  0.00  0.00     0.186 C 
BRANCH  38  39
HETATM   39  C   UNK N   1      28.285  18.939   7.455  0.00  0.00     0.144 C 
BRANCH  39  40
HETATM   40  C   UNK N   1      28.443  18.461   8.874  0.00  0.00     0.141 C 
HETATM   41  O   UNK N   1      29.448  18.742   9.510  0.00  0.00    -0.650 OA
BRANCH  40  42
HETATM   42  O   UNK N   1      27.450  17.773   9.465  0.00  0.00    -0.776 OA
HETATM   43  H   UNK N   1      26.930  16.998   9.546  0.00  0.00     0.167 HD
ENDBRANCH  40  42
ENDBRANCH  39  40
ENDBRANCH  38  39
BRANCH  38  44
HETATM   44  N   UNK N   1      30.088  17.242   7.086  0.00  0.00    -0.346 N 
HETATM   45  C   UNK N   1      31.283  17.118   6.466  0.00  0.00     0.241 C 
HETATM   46  O   UNK N   1      31.435  17.501   5.314  0.00  0.00    -0.271 OA
HETATM   47  H   UNK N   1      29.979  16.832   7.975  0.00  0.00     0.163 HD
BRANCH  45  48
HETATM   48  C   UNK N   1      32.472  16.713   7.288  0.00  0.00     0.176 C 
BRANCH  48  49
HETATM   49  C   UNK N   1      33.024  15.364   6.865  0.00  0.00     0.045 C 
BRANCH  49  50
HETATM   50  C   UNK N   1      34.264  15.529   6.010  0.00  0.00     0.076 C 
BRANCH  50  51
HETATM   51  S   UNK N   1      34.227  14.301   4.672  0.00  0.00    -0.173 SA
HETATM   52  C   UNK N   1      32.480  13.897   4.965  0.00  0.00     0.089 C 
ENDBRANCH  50  51
ENDBRANCH  49  50
ENDBRANCH  48  49
BRANCH  48  53
HETATM   53  N   UNK N   1      33.495  17.719   7.156  0.00  0.00    -0.355 N 
HETATM   54  H   UNK N   1      33.872  17.923   6.270  0.00  0.00     0.162 HD
BRANCH  53  55
HETATM   55  C   UNK N   1      33.939  18.384   8.246  0.00  0.00     0.349 C 
HETATM   56  O   UNK N   1      34.944  19.070   8.180  0.00  0.00    -0.284 OA
ENDBRANCH  53  55
ENDBRANCH  48  53
ENDBRANCH  45  48
ENDBRANCH  38  44
ENDBRANCH  35  38
ENDBRANCH  33  34
ENDBRANCH  30  33
ENDBRANCH   1  29
TORSDOF 28
ENDMDL
MODEL 7
REMARK VINA RESULT:      -5.0      6.737      9.644
REMARK  28 active torsions:
REMARK  status: ('A' for Active; 'I' for Inactive)
REMARK    1  A    between atoms: C_2  and  C_4 
REMARK    2  A    between atoms: C_4  and  C_5 
REMARK    3  A    between atoms: C_5  and  C_6 
REMARK    4  A    between atoms: C_5  and  N_9 
REMARK    5  A    between atoms: C_6  and  O_8 
REMARK       I    between atoms: N_9  and  C_10 
REMARK    6  A    between atoms: C_10  and  C_12 
REMARK    7  A    between atoms: C_12  and  C_13 
REMARK    8  A    between atoms: C_12  and  N_18 
REMARK    9  A    between atoms: C_13  and  C_14 
REMARK   10  A    between atoms: C_14  and  C_15 
REMARK   11  A    between atoms: C_15  and  O_17 
REMARK       I    between atoms: N_18  and  C_19 
REMARK   12  A    between atoms: C_19  and  C_21 
REMARK   13  A    between atoms: C_21  and  C_22 
REMARK   14  A    between atoms: C_21  and  N_24 
REMARK   15  A    between atoms: C_22  and  S_23 
REMARK       I    between atoms: N_24  and  C_25 
REMARK   16  A    between atoms: C_25  and  C_27 
REMARK   17  A    between atoms: C_27  and  N_28 
REMARK       I    between atoms: N_28  and  C_29 
REMARK   18  A    between atoms: C_29  and  C_31 
REMARK   19  A    between atoms: C_31  and  C_32 
REMARK   20  A    between atoms: C_31  and  N_36 
REMARK   21  A    between atoms: C_32  and  C_33 
REMARK   22  A    between atoms: C_33  and  O_35 
REMARK       I    between atoms: N_36  and  C_37 
REMARK   23  A    between atoms: C_37  and  C_39 
REMARK   24  A    between atoms: C_39  and  C_40 
REMARK   25  A    between atoms: C_39  and  N_44 
REMARK   26  A    between atoms: C_40  and  C_41 
REMARK   27  A    between atoms: C_41  and  S_42 
REMARK   28  A    between atoms: N_44  and  C_45 
ROOT
HETATM    1  C   UNK N   1      25.995  16.839   5.280  0.00  0.00     0.185 C 
ENDROOT
BRANCH   1   2
HETATM    2  C   UNK N   1      24.775  15.977   5.562  0.00  0.00     0.241 C 
HETATM    3  N   UNK N   1      23.516  16.485   5.507  0.00  0.00    -0.346 N 
HETATM    4  H   UNK N   1      22.764  15.861   5.629  0.00  0.00     0.163 HD
HETATM    5  O   UNK N   1      24.921  14.792   5.821  0.00  0.00    -0.271 OA
BRANCH   3   6
HETATM    6  C   UNK N   1      23.205  17.882   5.279  0.00  0.00     0.177 C 
BRANCH   6   7
HETATM    7  C   UNK N   1      21.797  18.228   5.706  0.00  0.00     0.241 C 
HETATM    8  N   UNK N   1      20.774  18.155   4.821  0.00  0.00    -0.345 N 
HETATM    9  H   UNK N   1      19.866  18.395   5.116  0.00  0.00     0.163 HD
HETATM   10  O   UNK N   1      21.565  18.530   6.866  0.00  0.00    -0.271 OA
BRANCH   8  11
HETATM   11  C   UNK N   1      20.985  17.735   3.458  0.00  0.00     0.182 C 
BRANCH  11  12
HETATM   12  C   UNK N   1      20.613  16.264   3.330  0.00  0.00     0.040 C 
BRANCH  12  13
HETATM   13  C   UNK N   1      21.620  15.508   2.483  0.00  0.00    -0.020 C 
HETATM   14  C   UNK N   1      21.968  14.205   3.170  0.00  0.00     0.009 C 
HETATM   15  C   UNK N   1      21.033  15.209   1.118  0.00  0.00     0.009 C 
ENDBRANCH  12  13
ENDBRANCH  11  12
BRANCH  11  16
HETATM   16  C   UNK N   1      20.211  18.605   2.518  0.00  0.00     0.163 C 
HETATM   17  O   UNK N   1      18.998  18.679   2.620  0.00  0.00    -0.648 OA
BRANCH  16  18
HETATM   18  O   UNK N   1      20.847  19.309   1.560  0.00  0.00    -0.775 OA
HETATM   19  H   UNK N   1      20.517  19.724   0.788  0.00  0.00     0.167 HD
ENDBRANCH  16  18
ENDBRANCH  11  16
ENDBRANCH   8  11
ENDBRANCH   6   7
BRANCH   6  20
HETATM   20  C   UNK N   1      23.578  18.324   3.867  0.00  0.00     0.045 C 
BRANCH  20  21
HETATM   21  C   UNK N   1      24.395  19.605   3.948  0.00  0.00     0.112 C 
BRANCH  21  22
HETATM   22  C   UNK N   1      23.963  20.579   2.908  0.00  0.00     0.139 C 
HETATM   23  O   UNK N   1      24.739  20.908   2.026  0.00  0.00    -0.650 OA
BRANCH  22  24
HETATM   24  O   UNK N   1      22.713  21.078   2.925  0.00  0.00    -0.776 OA
HETATM   25  H   UNK N   1      22.169  21.091   2.162  0.00  0.00     0.167 HD
ENDBRANCH  22  24
ENDBRANCH  21  22
ENDBRANCH  20  21
ENDBRANCH   6  20
ENDBRANCH   3   6
ENDBRANCH   1   2
BRANCH   1  26
HETATM   26  C   UNK N   1      26.740  16.422   4.011  0.00  0.00     0.105 C 
BRANCH  26  27
HETATM   27  S   UNK N   1      28.112  15.284   4.374  0.00  0.00    -0.180 SA
HETATM   28  H   UNK N   1      27.913  14.213   5.188  0.00  0.00     0.101 HD
ENDBRANCH  26  27
ENDBRANCH   1  26
BRANCH   1  29
HETATM   29  N   UNK N   1      26.907  16.930   6.409  0.00  0.00    -0.346 N 
HETATM   30  C   UNK N   1      27.665  18.023   6.672  0.00  0.00     0.236 C 
HETATM   31  O   UNK N   1      27.650  18.985   5.917  0.00  0.00    -0.272 OA
HETATM   32  H   UNK N   1      26.978  16.158   7.014  0.00  0.00     0.163 HD
BRANCH  30  33
HETATM   33  C   UNK N   1      28.468  18.108   7.939  0.00  0.00     0.225 C 
BRANCH  33  34
HETATM   34  N   UNK N   1      29.522  17.131   7.816  0.00  0.00    -0.351 N 
HETATM   35  C   UNK N   1      30.775  17.385   8.256  0.00  0.00     0.241 C 
HETATM   36  O   UNK N   1      30.987  18.332   9.004  0.00  0.00    -0.271 OA
HETATM   37  H   UNK N   1      29.324  16.259   7.404  0.00  0.00     0.163 HD
BRANCH  35  38
HETATM   38  C   UNK N   1      31.919  16.604   7.663  0.00  0.00     0.186 C 
BRANCH  38  39
HETATM   39  C   UNK N   1      32.579  17.276   6.462  0.00  0.00     0.144 C 
BRANCH  39  40
HETATM   40  C   UNK N   1      34.068  17.335   6.686  0.00  0.00     0.141 C 
HETATM   41  O   UNK N   1      34.798  16.490   6.193  0.00  0.00    -0.650 OA
BRANCH  40  42
HETATM   42  O   UNK N   1      34.601  18.355   7.383  0.00  0.00    -0.776 OA
HETATM   43  H   UNK N   1      34.914  19.236   7.429  0.00  0.00     0.167 HD
ENDBRANCH  40  42
ENDBRANCH  39  40
ENDBRANCH  38  39
BRANCH  38  44
HETATM   44  N   UNK N   1      32.840  16.157   8.685  0.00  0.00    -0.346 N 
HETATM   45  C   UNK N   1      32.993  14.861   9.041  0.00  0.00     0.241 C 
HETATM   46  O   UNK N   1      32.258  13.996   8.586  0.00  0.00    -0.271 OA
HETATM   47  H   UNK N   1      33.385  16.835   9.149  0.00  0.00     0.163 HD
BRANCH  45  48
HETATM   48  C   UNK N   1      34.215  14.478   9.822  0.00  0.00     0.176 C 
BRANCH  48  49
HETATM   49  C   UNK N   1      34.664  13.060   9.521  0.00  0.00     0.045 C 
BRANCH  49  50
HETATM   50  C   UNK N   1      34.777  12.244  10.792  0.00  0.00     0.076 C 
BRANCH  50  51
HETATM   51  S   UNK N   1      36.437  11.512  10.879  0.00  0.00    -0.173 SA
HETATM   52  C   UNK N   1      37.163  13.013  11.598  0.00  0.00     0.089 C 
ENDBRANCH  50  51
ENDBRANCH  49  50
ENDBRANCH  48  49
BRANCH  48  53
HETATM   53  N   UNK N   1      35.278  15.400   9.508  0.00  0.00    -0.355 N 
HETATM   54  H   UNK N   1      35.753  15.327   8.649  0.00  0.00     0.162 HD
BRANCH  53  55
HETATM   55  C   UNK N   1      35.623  16.365  10.390  0.00  0.00     0.349 C 
HETATM   56  O   UNK N   1      35.376  17.533  10.148  0.00  0.00    -0.284 OA
ENDBRANCH  53  55
ENDBRANCH  48  53
ENDBRANCH  45  48
ENDBRANCH  38  44
ENDBRANCH  35  38
ENDBRANCH  33  34
ENDBRANCH  30  33
ENDBRANCH   1  29
TORSDOF 28
ENDMDL
MODEL 8
REMARK VINA RESULT:      -5.0     10.999     15.665
REMARK  28 active torsions:
REMARK  status: ('A' for Active; 'I' for Inactive)
REMARK    1  A    between atoms: C_2  and  C_4 
REMARK    2  A    between atoms: C_4  and  C_5 
REMARK    3  A    between atoms: C_5  and  C_6 
REMARK    4  A    between atoms: C_5  and  N_9 
REMARK    5  A    between atoms: C_6  and  O_8 
REMARK       I    between atoms: N_9  and  C_10 
REMARK    6  A    between atoms: C_10  and  C_12 
REMARK    7  A    between atoms: C_12  and  C_13 
REMARK    8  A    between atoms: C_12  and  N_18 
REMARK    9  A    between atoms: C_13  and  C_14 
REMARK   10  A    between atoms: C_14  and  C_15 
REMARK   11  A    between atoms: C_15  and  O_17 
REMARK       I    between atoms: N_18  and  C_19 
REMARK   12  A    between atoms: C_19  and  C_21 
REMARK   13  A    between atoms: C_21  and  C_22 
REMARK   14  A    between atoms: C_21  and  N_24 
REMARK   15  A    between atoms: C_22  and  S_23 
REMARK       I    between atoms: N_24  and  C_25 
REMARK   16  A    between atoms: C_25  and  C_27 
REMARK   17  A    between atoms: C_27  and  N_28 
REMARK       I    between atoms: N_28  and  C_29 
REMARK   18  A    between atoms: C_29  and  C_31 
REMARK   19  A    between atoms: C_31  and  C_32 
REMARK   20  A    between atoms: C_31  and  N_36 
REMARK   21  A    between atoms: C_32  and  C_33 
REMARK   22  A    between atoms: C_33  and  O_35 
REMARK       I    between atoms: N_36  and  C_37 
REMARK   23  A    between atoms: C_37  and  C_39 
REMARK   24  A    between atoms: C_39  and  C_40 
REMARK   25  A    between atoms: C_39  and  N_44 
REMARK   26  A    between atoms: C_40  and  C_41 
REMARK   27  A    between atoms: C_41  and  S_42 
REMARK   28  A    between atoms: N_44  and  C_45 
ROOT
HETATM    1  C   UNK N   1      36.027  13.119  10.455  0.00  0.00     0.185 C 
ENDROOT
BRANCH   1   2
HETATM    2  C   UNK N   1      37.491  12.928  10.815  0.00  0.00     0.241 C 
HETATM    3  N   UNK N   1      37.872  12.135  11.851  0.00  0.00    -0.346 N 
HETATM    4  H   UNK N   1      38.836  11.994  11.990  0.00  0.00     0.163 HD
HETATM    5  O   UNK N   1      38.353  13.477  10.146  0.00  0.00    -0.271 OA
BRANCH   3   6
HETATM    6  C   UNK N   1      36.954  11.482  12.764  0.00  0.00     0.177 C 
BRANCH   6   7
HETATM    7  C   UNK N   1      37.493  11.437  14.175  0.00  0.00     0.241 C 
HETATM    8  N   UNK N   1      37.023  12.290  15.117  0.00  0.00    -0.345 N 
HETATM    9  H   UNK N   1      37.393  12.252  16.028  0.00  0.00     0.163 HD
HETATM   10  O   UNK N   1      38.321  10.597  14.489  0.00  0.00    -0.271 OA
BRANCH   8  11
HETATM   11  C   UNK N   1      35.993  13.253  14.814  0.00  0.00     0.182 C 
BRANCH  11  12
HETATM   12  C   UNK N   1      34.970  13.255  15.942  0.00  0.00     0.040 C 
BRANCH  12  13
HETATM   13  C   UNK N   1      35.582  12.779  17.247  0.00  0.00    -0.020 C 
HETATM   14  C   UNK N   1      35.197  13.737  18.354  0.00  0.00     0.009 C 
HETATM   15  C   UNK N   1      35.070  11.394  17.588  0.00  0.00     0.009 C 
ENDBRANCH  12  13
ENDBRANCH  11  12
BRANCH  11  16
HETATM   16  C   UNK N   1      36.593  14.604  14.584  0.00  0.00     0.163 C 
HETATM   17  O   UNK N   1      37.203  15.157  15.483  0.00  0.00    -0.648 OA
BRANCH  16  18
HETATM   18  O   UNK N   1      36.464  15.213  13.388  0.00  0.00    -0.775 OA
HETATM   19  H   UNK N   1      36.955  15.911  13.003  0.00  0.00     0.167 HD
ENDBRANCH  16  18
ENDBRANCH  11  16
ENDBRANCH   8  11
ENDBRANCH   6   7
BRANCH   6  20
HETATM   20  C   UNK N   1      36.465  10.145  12.217  0.00  0.00     0.045 C 
BRANCH  20  21
HETATM   21  C   UNK N   1      35.461   9.548  13.192  0.00  0.00     0.112 C 
BRANCH  21  22
HETATM   22  C   UNK N   1      34.156  10.262  13.117  0.00  0.00     0.139 C 
HETATM   23  O   UNK N   1      33.625  10.665  14.138  0.00  0.00    -0.650 OA
BRANCH  22  24
HETATM   24  O   UNK N   1      33.573  10.484  11.923  0.00  0.00    -0.776 OA
HETATM   25  H   UNK N   1      34.070  10.669  11.151  0.00  0.00     0.167 HD
ENDBRANCH  22  24
ENDBRANCH  21  22
ENDBRANCH  20  21
ENDBRANCH   6  20
ENDBRANCH   3   6
ENDBRANCH   1   2
BRANCH   1  26
HETATM   26  C   UNK N   1      35.480  12.003   9.562  0.00  0.00     0.105 C 
BRANCH  26  27
HETATM   27  S   UNK N   1      35.539  12.455   7.801  0.00  0.00    -0.180 SA
HETATM   28  H   UNK N   1      35.882  13.719   7.432  0.00  0.00     0.101 HD
ENDBRANCH  26  27
ENDBRANCH   1  26
BRANCH   1  29
HETATM   29  N   UNK N   1      35.741  14.425   9.883  0.00  0.00    -0.346 N 
HETATM   30  C   UNK N   1      34.827  15.285  10.397  0.00  0.00     0.236 C 
HETATM   31  O   UNK N   1      34.148  14.963  11.362  0.00  0.00    -0.272 OA
HETATM   32  H   UNK N   1      36.238  14.700   9.079  0.00  0.00     0.163 HD
BRANCH  30  33
HETATM   33  C   UNK N   1      34.694  16.677   9.848  0.00  0.00     0.225 C 
BRANCH  33  34
HETATM   34  N   UNK N   1      34.377  16.531   8.448  0.00  0.00    -0.351 N 
HETATM   35  C   UNK N   1      33.405  17.266   7.865  0.00  0.00     0.241 C 
HETATM   36  O   UNK N   1      32.953  18.254   8.431  0.00  0.00    -0.271 OA
HETATM   37  H   UNK N   1      34.881  15.882   7.906  0.00  0.00     0.163 HD
BRANCH  35  38
HETATM   38  C   UNK N   1      32.763  16.743   6.605  0.00  0.00     0.186 C 
BRANCH  38  39
HETATM   39  C   UNK N   1      33.175  15.319   6.239  0.00  0.00     0.144 C 
BRANCH  39  40
HETATM   40  C   UNK N   1      32.175  14.352   6.816  0.00  0.00     0.141 C 
HETATM   41  O   UNK N   1      32.233  14.037   7.995  0.00  0.00    -0.650 OA
BRANCH  40  42
HETATM   42  O   UNK N   1      31.178  13.878   6.046  0.00  0.00    -0.776 OA
HETATM   43  H   UNK N   1      30.878  13.350   5.334  0.00  0.00     0.167 HD
ENDBRANCH  40  42
ENDBRANCH  39  40
ENDBRANCH  38  39
BRANCH  38  44
HETATM   44  N   UNK N   1      31.336  16.976   6.602  0.00  0.00    -0.346 N 
HETATM   45  C   UNK N   1      30.644  17.368   5.508  0.00  0.00     0.241 C 
HETATM   46  O   UNK N   1      31.224  17.664   4.472  0.00  0.00    -0.271 OA
HETATM   47  H   UNK N   1      30.841  16.844   7.444  0.00  0.00     0.163 HD
BRANCH  45  48
HETATM   48  C   UNK N   1      29.151  17.217   5.519  0.00  0.00     0.176 C 
BRANCH  48  49
HETATM   49  C   UNK N   1      28.529  17.597   4.188  0.00  0.00     0.045 C 
BRANCH  49  50
HETATM   50  C   UNK N   1      27.992  19.013   4.224  0.00  0.00     0.076 C 
BRANCH  50  51
HETATM   51  S   UNK N   1      27.145  19.284   5.809  0.00  0.00    -0.173 SA
HETATM   52  C   UNK N   1      25.512  19.405   5.022  0.00  0.00     0.089 C 
ENDBRANCH  50  51
ENDBRANCH  49  50
ENDBRANCH  48  49
BRANCH  48  53
HETATM   53  N   UNK N   1      28.823  15.849   5.835  0.00  0.00    -0.355 N 
HETATM   54  H   UNK N   1      29.245  15.410   6.608  0.00  0.00     0.162 HD
BRANCH  53  55
HETATM   55  C   UNK N   1      27.936  15.170   5.074  0.00  0.00     0.349 C 
HETATM   56  O   UNK N   1      27.494  14.100   5.453  0.00  0.00    -0.284 OA
ENDBRANCH  53  55
ENDBRANCH  48  53
ENDBRANCH  45  48
ENDBRANCH  38  44
ENDBRANCH  35  38
ENDBRANCH  33  34
ENDBRANCH  30  33
ENDBRANCH   1  29
TORSDOF 28
ENDMDL
MODEL 9
REMARK VINA RESULT:      -5.0      9.164     12.242
REMARK  28 active torsions:
REMARK  status: ('A' for Active; 'I' for Inactive)
REMARK    1  A    between atoms: C_2  and  C_4 
REMARK    2  A    between atoms: C_4  and  C_5 
REMARK    3  A    between atoms: C_5  and  C_6 
REMARK    4  A    between atoms: C_5  and  N_9 
REMARK    5  A    between atoms: C_6  and  O_8 
REMARK       I    between atoms: N_9  and  C_10 
REMARK    6  A    between atoms: C_10  and  C_12 
REMARK    7  A    between atoms: C_12  and  C_13 
REMARK    8  A    between atoms: C_12  and  N_18 
REMARK    9  A    between atoms: C_13  and  C_14 
REMARK   10  A    between atoms: C_14  and  C_15 
REMARK   11  A    between atoms: C_15  and  O_17 
REMARK       I    between atoms: N_18  and  C_19 
REMARK   12  A    between atoms: C_19  and  C_21 
REMARK   13  A    between atoms: C_21  and  C_22 
REMARK   14  A    between atoms: C_21  and  N_24 
REMARK   15  A    between atoms: C_22  and  S_23 
REMARK       I    between atoms: N_24  and  C_25 
REMARK   16  A    between atoms: C_25  and  C_27 
REMARK   17  A    between atoms: C_27  and  N_28 
REMARK       I    between atoms: N_28  and  C_29 
REMARK   18  A    between atoms: C_29  and  C_31 
REMARK   19  A    between atoms: C_31  and  C_32 
REMARK   20  A    between atoms: C_31  and  N_36 
REMARK   21  A    between atoms: C_32  and  C_33 
REMARK   22  A    between atoms: C_33  and  O_35 
REMARK       I    between atoms: N_36  and  C_37 
REMARK   23  A    between atoms: C_37  and  C_39 
REMARK   24  A    between atoms: C_39  and  C_40 
REMARK   25  A    between atoms: C_39  and  N_44 
REMARK   26  A    between atoms: C_40  and  C_41 
REMARK   27  A    between atoms: C_41  and  S_42 
REMARK   28  A    between atoms: N_44  and  C_45 
ROOT
HETATM    1  C   UNK N   1      32.677  15.849   5.851  0.00  0.00     0.185 C 
ENDROOT
BRANCH   1   2
HETATM    2  C   UNK N   1      31.502  14.917   6.102  0.00  0.00     0.241 C 
HETATM    3  N   UNK N   1      30.232  15.386   6.206  0.00  0.00    -0.346 N 
HETATM    4  H   UNK N   1      29.506  14.728   6.298  0.00  0.00     0.163 HD
HETATM    5  O   UNK N   1      31.695  13.714   6.186  0.00  0.00    -0.271 OA
BRANCH   3   6
HETATM    6  C   UNK N   1      29.872  16.791   6.194  0.00  0.00     0.177 C 
BRANCH   6   7
HETATM    7  C   UNK N   1      30.071  17.416   4.832  0.00  0.00     0.241 C 
HETATM    8  N   UNK N   1      29.030  17.535   3.973  0.00  0.00    -0.345 N 
HETATM    9  H   UNK N   1      29.181  17.936   3.087  0.00  0.00     0.163 HD
HETATM   10  O   UNK N   1      31.162  17.863   4.516  0.00  0.00    -0.271 OA
BRANCH   8  11
HETATM   11  C   UNK N   1      27.706  17.088   4.328  0.00  0.00     0.182 C 
BRANCH  11  12
HETATM   12  C   UNK N   1      26.896  18.279   4.822  0.00  0.00     0.040 C 
BRANCH  12  13
HETATM   13  C   UNK N   1      27.397  19.579   4.219  0.00  0.00    -0.020 C 
HETATM   14  C   UNK N   1      26.319  20.161   3.330  0.00  0.00     0.009 C 
HETATM   15  C   UNK N   1      27.724  20.571   5.317  0.00  0.00     0.009 C 
ENDBRANCH  12  13
ENDBRANCH  11  12
BRANCH  11  16
HETATM   16  C   UNK N   1      27.059  16.399   3.167  0.00  0.00     0.163 C 
HETATM   17  O   UNK N   1      25.892  16.627   2.900  0.00  0.00    -0.648 OA
BRANCH  16  18
HETATM   18  O   UNK N   1      27.762  15.529   2.414  0.00  0.00    -0.775 OA
HETATM   19  H   UNK N   1      27.994  14.636   2.572  0.00  0.00     0.167 HD
ENDBRANCH  16  18
ENDBRANCH  11  16
ENDBRANCH   8  11
ENDBRANCH   6   7
BRANCH   6  20
HETATM   20  C   UNK N   1      30.511  17.551   7.352  0.00  0.00     0.045 C 
BRANCH  20  21
HETATM   21  C   UNK N   1      29.719  17.277   8.622  0.00  0.00     0.112 C 
BRANCH  21  22
HETATM   22  C   UNK N   1      28.325  17.789   8.501  0.00  0.00     0.139 C 
HETATM   23  O   UNK N   1      28.127  18.986   8.380  0.00  0.00    -0.650 OA
BRANCH  22  24
HETATM   24  O   UNK N   1      27.287  16.932   8.500  0.00  0.00    -0.776 OA
HETATM   25  H   UNK N   1      27.151  16.310   9.188  0.00  0.00     0.167 HD
ENDBRANCH  22  24
ENDBRANCH  21  22
ENDBRANCH  20  21
ENDBRANCH   6  20
ENDBRANCH   3   6
ENDBRANCH   1   2
BRANCH   1  26
HETATM   26  C   UNK N   1      33.719  15.256   4.900  0.00  0.00     0.105 C 
BRANCH  26  27
HETATM   27  S   UNK N   1      33.122  15.216   3.182  0.00  0.00    -0.180 SA
HETATM   28  H   UNK N   1      33.976  14.901   2.171  0.00  0.00     0.101 HD
ENDBRANCH  26  27
ENDBRANCH   1  26
BRANCH   1  29
HETATM   29  N   UNK N   1      33.305  16.323   7.074  0.00  0.00    -0.346 N 
HETATM   30  C   UNK N   1      34.004  17.482   7.156  0.00  0.00     0.236 C 
HETATM   31  O   UNK N   1      34.185  18.169   6.161  0.00  0.00    -0.272 OA
HETATM   32  H   UNK N   1      33.218  15.774   7.886  0.00  0.00     0.163 HD
BRANCH  30  33
HETATM   33  C   UNK N   1      34.494  17.986   8.484  0.00  0.00     0.225 C 
BRANCH  33  34
HETATM   34  N   UNK N   1      34.004  17.059   9.475  0.00  0.00    -0.351 N 
HETATM   35  C   UNK N   1      34.849  16.352  10.258  0.00  0.00     0.241 C 
HETATM   36  O   UNK N   1      36.030  16.669  10.338  0.00  0.00    -0.271 OA
HETATM   37  H   UNK N   1      33.033  16.940   9.583  0.00  0.00     0.163 HD
BRANCH  35  38
HETATM   38  C   UNK N   1      34.355  15.068  10.875  0.00  0.00     0.186 C 
BRANCH  38  39
HETATM   39  C   UNK N   1      33.170  14.440  10.146  0.00  0.00     0.144 C 
BRANCH  39  40
HETATM   40  C   UNK N   1      33.678  13.396   9.187  0.00  0.00     0.141 C 
HETATM   41  O   UNK N   1      33.473  12.211   9.401  0.00  0.00    -0.650 OA
BRANCH  40  42
HETATM   42  O   UNK N   1      34.308  13.772   8.059  0.00  0.00    -0.776 OA
HETATM   43  H   UNK N   1      35.077  13.801   7.524  0.00  0.00     0.167 HD
ENDBRANCH  40  42
ENDBRANCH  39  40
ENDBRANCH  38  39
BRANCH  38  44
HETATM   44  N   UNK N   1      35.446  14.159  11.147  0.00  0.00    -0.346 N 
HETATM   45  C   UNK N   1      35.665  13.592  12.355  0.00  0.00     0.241 C 
HETATM   46  O   UNK N   1      35.004  13.921  13.331  0.00  0.00    -0.271 OA
HETATM   47  H   UNK N   1      36.065  13.941  10.412  0.00  0.00     0.163 HD
BRANCH  45  48
HETATM   48  C   UNK N   1      36.574  12.401  12.428  0.00  0.00     0.176 C 
BRANCH  48  49
HETATM   49  C   UNK N   1      36.134  11.290  11.493  0.00  0.00     0.045 C 
BRANCH  49  50
HETATM   50  C   UNK N   1      34.975  10.511  12.082  0.00  0.00     0.076 C 
BRANCH  50  51
HETATM   51  S   UNK N   1      35.357  10.099  13.809  0.00  0.00    -0.173 SA
HETATM   52  C   UNK N   1      33.760  10.725  14.409  0.00  0.00     0.089 C 
ENDBRANCH  50  51
ENDBRANCH  49  50
ENDBRANCH  48  49
BRANCH  48  53
HETATM   53  N   UNK N   1      37.914  12.815  12.093  0.00  0.00    -0.355 N 
HETATM   54  H   UNK N   1      38.513  13.154  12.796  0.00  0.00     0.162 HD
BRANCH  53  55
HETATM   55  C   UNK N   1      38.349  12.737  10.815  0.00  0.00     0.349 C 
HETATM   56  O   UNK N   1      38.343  13.726  10.104  0.00  0.00    -0.284 OA
ENDBRANCH  53  55
ENDBRANCH  48  53
ENDBRANCH  45  48
ENDBRANCH  38  44
ENDBRANCH  35  38
ENDBRANCH  33  34
ENDBRANCH  30  33
ENDBRANCH   1  29
TORSDOF 28
ENDMDL
