REMARK  17 active torsions:
REMARK  status: ('A' for Active; 'I' for Inactive)
REMARK    1  A    between atoms: C_6  and  C_7 
REMARK    2  A    between atoms: C_7  and  N_8 
REMARK    3  A    between atoms: C_7  and  N_10 
REMARK    4  A    between atoms: C_12  and  C_15 
REMARK    5  A    between atoms: C_17  and  C_33 
REMARK    6  A    between atoms: C_19  and  C_22 
REMARK    7  A    between atoms: C_20  and  O_21 
REMARK    8  A    between atoms: C_24  and  S_29 
REMARK    9  A    between atoms: C_27  and  O_28 
REMARK   10  A    between atoms: S_29  and  N_32 
REMARK   11  A    between atoms: C_33  and  C_34 
REMARK       I    between atoms: C_34  and  N_36 
REMARK   12  A    between atoms: C_37  and  N_36 
REMARK   13  A    between atoms: C_37  and  C_38 
REMARK   14  A    between atoms: C_37  and  C_42 
REMARK   15  A    between atoms: C_38  and  C_39 
REMARK   16  A    between atoms: C_39  and  O_41 
REMARK   17  A    between atoms: C_42  and  O_44 
ROOT
HETATM    1  C   UNK N   1      -6.500   5.063   0.170  0.00  0.00     0.043 A 
HETATM    2  C   UNK N   1      -5.403   5.731  -0.377  0.00  0.00     0.025 A 
HETATM    3  C   UNK N   1      -4.271   5.017  -0.762  0.00  0.00    -0.048 A 
HETATM    4  C   UNK N   1      -4.250   3.617  -0.651  0.00  0.00     0.022 A 
HETATM    5  C   UNK N   1      -5.342   2.915  -0.124  0.00  0.00     0.011 A 
HETATM    6  C   UNK N   1      -6.456   3.660   0.335  0.00  0.00     0.090 A 
ENDROOT
BRANCH   1   7
HETATM    7  C   UNK N   1      -7.759   5.799   0.419  0.00  0.00     0.119 A 
HETATM    8  N   UNK N   1      -8.913   5.156   0.724  0.00  0.00    -0.340 N 
HETATM    9  C   UNK N   1      -9.857   6.074   0.545  0.00  0.00     0.061 A 
HETATM   10  H   UNK N   1      -9.026   4.222   1.014  0.00  0.00     0.167 HD
HETATM   11  C   UNK N   1      -9.295   7.246   0.156  0.00  0.00     0.060 A 
HETATM   12  C   UNK N   1     -11.225   5.878   0.600  0.00  0.00     0.047 A 
HETATM   13  C   UNK N   1     -10.069   8.349  -0.189  0.00  0.00     0.033 A 
HETATM   14  N   UNK N   1      -7.960   7.099   0.072  0.00  0.00    -0.340 N 
HETATM   15  C   UNK N   1     -11.473   8.191  -0.154  0.00  0.00     0.017 A 
HETATM   16  C   UNK N   1     -12.055   6.949   0.228  0.00  0.00     0.009 A 
ATOM     17  HN  UNK N   1      -7.264   7.797  -0.190  1.00  0.00     0.167 HD
BRANCH  16  18
HETATM   18  C   UNK N   1     -13.516   6.737   0.169  0.00  0.00     0.102 C 
BRANCH  18  19
HETATM   19  N   UNK N   1     -14.287   7.658  -0.276  0.00  0.00    -0.385 N 
HETATM   20  H   UNK N   1     -13.971   8.526  -0.617  0.00  0.00     0.157 HD
ATOM     21  HN  UNK N   1     -15.292   7.482  -0.276  1.00  0.00     0.157 HD
ENDBRANCH  18  19
BRANCH  18  22
HETATM   22  N   UNK N   1     -14.061   5.472   0.493  0.00  0.00    -0.385 N 
HETATM   23  H   UNK N   1     -15.013   5.360   0.718  0.00  0.00     0.157 HD
HETATM   24  H   UNK N   1     -13.473   4.682   0.493  0.00  0.00     0.157 HD
ENDBRANCH  18  22
ENDBRANCH  16  18
ENDBRANCH   1   7
BRANCH   6  25
HETATM   25  O   UNK N   1      -7.482   3.039   0.940  0.00  0.00    -0.359 OA
HETATM   26  H   UNK N   1      -8.215   3.443   1.363  0.00  0.00     0.217 HD
ENDBRANCH   6  25
BRANCH   3  27
HETATM   27  C   UNK N   1      -3.078   5.746  -1.288  0.00  0.00     0.141 C 
BRANCH  27  28
HETATM   28  C   UNK N   1      -1.902   5.351  -0.463  0.00  0.00     0.222 C 
HETATM   29  O   UNK N   1      -1.909   5.567   0.741  0.00  0.00    -0.273 OA
HETATM   30  N   UNK N   1      -0.892   4.657  -1.047  0.00  0.00    -0.346 N 
HETATM   31  H   UNK N   1      -0.870   4.616  -2.030  0.00  0.00     0.163 HD
BRANCH  30  32
HETATM   32  C   UNK N   1       0.155   3.973  -0.316  0.00  0.00     0.192 C 
BRANCH  32  33
HETATM   33  C   UNK N   1       0.780   4.844   0.768  0.00  0.00     0.146 C 
BRANCH  33  34
HETATM   34  C   UNK N   1       2.246   4.983   0.555  0.00  0.00     0.141 C 
HETATM   35  O   UNK N   1       2.731   6.089   0.391  0.00  0.00    -0.650 OA
BRANCH  34  36
HETATM   36  O   UNK N   1       3.038   3.895   0.560  0.00  0.00    -0.776 OA
HETATM   37  H   UNK N   1       2.658   3.038   0.564  0.00  0.00     0.167 HD
ENDBRANCH  34  36
ENDBRANCH  33  34
ENDBRANCH  32  33
BRANCH  32  38
HETATM   38  C   UNK N   1      -0.369   2.687   0.248  0.00  0.00     0.164 C 
HETATM   39  O   UNK N   1       0.108   1.629  -0.125  0.00  0.00    -0.648 OA
BRANCH  38  40
HETATM   40  O   UNK N   1      -1.377   2.688   1.142  0.00  0.00    -0.775 OA
HETATM   41  H   UNK N   1      -1.727   3.296   1.764  0.00  0.00     0.167 HD
ENDBRANCH  38  40
ENDBRANCH  32  38
ENDBRANCH  30  32
ENDBRANCH  27  28
ENDBRANCH   3  27
BRANCH   5  42
HETATM   42  C   UNK N   1      -5.302   1.408  -0.119  0.00  0.00     0.011 A 
HETATM   43  C   UNK N   1      -4.054   0.750  -0.037  0.00  0.00     0.040 A 
HETATM   44  C   UNK N   1      -3.984  -0.657  -0.070  0.00  0.00     0.080 A 
HETATM   45  C   UNK N   1      -5.149  -1.408  -0.178  0.00  0.00     0.028 A 
HETATM   46  C   UNK N   1      -6.377  -0.783  -0.297  0.00  0.00     0.039 A 
HETATM   47  C   UNK N   1      -6.470   0.605  -0.288  0.00  0.00     0.076 A 
BRANCH  44  48
HETATM   48  S   UNK N   1      -2.433  -1.551  -0.011  0.00  0.00     0.256 S 
HETATM   49  O   UNK N   1      -1.028  -0.936  -0.017  0.00  0.00    -0.201 OA
HETATM   50  O   UNK N   1      -2.339  -2.961  -0.612  0.00  0.00    -0.201 OA
BRANCH  48  51
HETATM   51  N   UNK N   1      -2.450  -1.030  -1.698  0.00  0.00    -0.324 N 
HETATM   52  H   UNK N   1      -2.194  -0.872  -2.673  0.00  0.00     0.169 HD
HETATM   53  H   UNK N   1      -3.349  -0.549  -1.698  0.00  0.00     0.169 HD
ENDBRANCH  48  51
ENDBRANCH  44  48
BRANCH  47  54
HETATM   54  O   UNK N   1      -7.678   1.139  -0.521  0.00  0.00    -0.360 OA
HETATM   55  H   UNK N   1      -7.777   2.057  -0.684  0.00  0.00     0.217 HD
ENDBRANCH  47  54
ENDBRANCH   5  42
TORSDOF 17
