MODEL 1
REMARK VINA RESULT:     -14.2      0.000      0.000
REMARK  5 active torsions:
REMARK  status: ('A' for Active; 'I' for Inactive)
REMARK    1  A    between atoms: N_6  and  C_7 
REMARK    2  A    between atoms: N_29  and  C_30 
REMARK    3  A    between atoms: C_36  and  C_41 
REMARK    4  A    between atoms: C_53  and  C_58 
REMARK    5  A    between atoms: N_63  and  C_64 
ROOT
HETATM    1  C   UNK N   1      34.086  14.428   7.622  0.00  0.00     0.241 A 
HETATM    2  O   UNK N   1      33.957  13.768   6.985  0.00  0.00    -0.271 OA
HETATM    3  C   UNK N   1      33.229  14.811   7.397  0.00  0.00     0.278 A 
HETATM    4  O   UNK N   1      31.686  15.306   6.831  0.00  0.00    -0.345 OA
HETATM    5  C   UNK N   1      31.687  14.497   6.153  0.00  0.00     0.061 A 
HETATM    6  C   UNK N   1      31.229  14.144   5.565  0.00  0.00    -0.024 A 
HETATM    7  C   UNK N   1      30.986  13.510   4.878  0.00  0.00     0.010 A 
HETATM    8  C   UNK N   1      32.239  13.151   5.375  0.00  0.00    -0.003 A 
HETATM    9  C   UNK N   1      32.697  13.505   5.963  0.00  0.00    -0.015 A 
HETATM   10  C   UNK N   1      31.902  14.217   6.054  0.00  0.00     0.070 A 
HETATM   11  C   UNK N   1      32.840  14.569   6.946  0.00  0.00     0.056 A 
HETATM   12  C   UNK N   1      32.264  15.821   7.630  0.00  0.00    -0.023 A 
HETATM   13  C   UNK N   1      33.471  15.802   8.383  0.00  0.00     0.010 A 
HETATM   14  C   UNK N   1      33.576  16.395   8.947  0.00  0.00     0.001 A 
HETATM   15  C   UNK N   1      32.993  16.968   9.057  0.00  0.00     0.010 A 
HETATM   16  C   UNK N   1      32.305  16.948   8.602  0.00  0.00    -0.020 A 
HETATM   17  C   UNK N   1      31.681  16.394   7.740  0.00  0.00     0.081 A 
HETATM   18  O   UNK N   1      31.130  16.314   7.323  0.00  0.00    -0.346 OA
HETATM   19  C   UNK N   1      31.036  16.924   7.774  0.00  0.00     0.229 A 
HETATM   20  C   UNK N   1      30.026  17.903   7.953  0.00  0.00     0.237 A 
HETATM   21  O   UNK N   1      30.080  16.631   6.920  0.00  0.00    -0.375 OA
ATOM     22  HO  UNK N   1      29.403  17.287   7.040  1.00  0.00     0.212 HD
HETATM   23  N   UNK N   1      28.643  17.849   7.028  0.00  0.00    -0.394 N 
HETATM   24  C   UNK N   1      31.692  17.496   8.672  0.00  0.00     0.078 A 
HETATM   25  C   UNK N   1      30.809  17.849   8.406  0.00  0.00    -0.046 A 
HETATM   26  C   UNK N   1      30.532  18.522   8.795  0.00  0.00     0.005 A 
HETATM   27  C   UNK N   1      29.798  18.842   8.595  0.00  0.00    -0.003 A 
HETATM   28  C   UNK N   1      29.340  18.488   8.007  0.00  0.00    -0.019 A 
HETATM   29  C   UNK N   1      29.243  17.366   7.004  0.00  0.00     0.045 A 
HETATM   30  C   UNK N   1      30.496  17.007   7.501  0.00  0.00     0.159 A 
HETATM   31  O   UNK N   1      29.799  17.082   7.120  0.00  0.00    -0.372 OA
HETATM   32  C   UNK N   1      28.416  17.116   6.268  0.00  0.00     0.271 A 
HETATM   33  C   UNK N   1      27.593  17.157   5.779  0.00  0.00     0.241 A 
HETATM   34  O   UNK N   1      27.533  17.727   6.219  0.00  0.00    -0.271 OA
HETATM   35  N   UNK N   1      26.894  17.026   5.224  0.00  0.00    -0.358 N 
HETATM   36  C   UNK N   1      26.253  16.714   4.555  0.00  0.00     0.142 A 
HETATM   37  C   UNK N   1      26.133  16.484   4.285  0.00  0.00     0.135 A 
HETATM   38  N   UNK N   1      25.225  17.325   4.413  0.00  0.00    -0.419 N 
HETATM   39  C   UNK N   1      24.352  16.539   3.198  0.00  0.00     0.142 C 
HETATM   40  C   UNK N   1      24.299  18.045   4.427  0.00  0.00     0.142 C 
HETATM   41  C   UNK N   1      29.199  17.424   7.025  0.00  0.00     0.048 A 
HETATM   42  C   UNK N   1      29.254  16.211   6.042  0.00  0.00    -0.046 A 
HETATM   43  C   UNK N   1      29.423  16.270   6.199  0.00  0.00     0.006 A 
HETATM   44  C   UNK N   1      30.526  15.658   6.387  0.00  0.00     0.001 A 
HETATM   45  C   UNK N   1      29.757  15.592   5.843  0.00  0.00     0.006 A 
HETATM   46  C   UNK N   1      29.734  15.045   5.369  0.00  0.00    -0.043 A 
HETATM   47  C   UNK N   1      28.631  15.657   5.180  0.00  0.00     0.180 A 
HETATM   48  O   UNK N   1      28.289  15.122   4.514  0.00  0.00    -0.368 OA
HETATM   49  C   UNK N   1      28.070  14.522   3.871  0.00  0.00     0.271 A 
HETATM   50  C   UNK N   1      28.699  13.782   3.651  0.00  0.00     0.241 A 
HETATM   51  O   UNK N   1      29.300  13.938   4.164  0.00  0.00    -0.271 OA
HETATM   52  N   UNK N   1      27.867  13.703   3.056  0.00  0.00    -0.358 N 
HETATM   53  C   UNK N   1      29.826  14.536   5.000  0.00  0.00     0.078 A 
HETATM   54  H   UNK N   1      28.431  17.183   6.334  0.00  0.00     0.155 HD
HETATM   55  H   UNK N   1      26.364  17.796   5.533  0.00  0.00     0.162 HD
HETATM   56  H   UNK N   1      27.030  14.210   2.947  0.00  0.00     0.162 HD
ENDROOT
BRANCH   1  57
HETATM   57  N   UNK N   1      34.837  14.481   8.144  0.00  0.00    -0.358 N 
HETATM   58  C   UNK N   1      35.757  14.324   8.471  0.00  0.00     0.142 A 
HETATM   59  C   UNK N   1      36.153  13.983   8.225  0.00  0.00     0.135 A 
HETATM   60  N   UNK N   1      36.540  14.366   8.997  0.00  0.00    -0.419 N 
HETATM   61  C   UNK N   1      38.136  13.778   9.119  0.00  0.00     0.142 C 
HETATM   62  C   UNK N   1      36.829  14.978  10.034  0.00  0.00     0.142 C 
HETATM   63  H   UNK N   1      34.517  15.105   8.834  0.00  0.00     0.162 HD
ENDBRANCH   1  57
BRANCH  23  64
HETATM   64  C   UNK N   1      27.788  18.986   7.438  0.00  0.00     0.146 A 
HETATM   65  C   UNK N   1      27.298  19.740   7.579  0.00  0.00     0.290 A 
HETATM   66  N   UNK N   1      27.527  19.759   7.175  0.00  0.00     0.081 N 
HETATM   67  C   UNK N   1      26.721  21.248   7.182  0.00  0.00     0.309 A 
HETATM   68  C   UNK N   1      27.758  20.569   6.049  0.00  0.00     0.309 C 
ENDBRANCH  23  64
BRANCH  52  69
HETATM   69  C   UNK N   1      28.459  12.525   2.444  0.00  0.00     0.152 A 
HETATM   70  C   UNK N   1      28.906  11.854   2.118  0.00  0.00     0.290 A 
HETATM   71  N   UNK N   1      27.903  11.342   1.583  0.00  0.00     0.081 N 
HETATM   72  C   UNK N   1      29.353  10.612   1.435  0.00  0.00     0.309 A 
HETATM   73  C   UNK N   1      27.563  10.535   1.005  0.00  0.00     0.309 C 
ENDBRANCH  52  69
TORSDOF 5
ENDMDL
MODEL 2
REMARK VINA RESULT:     -14.0      2.351      6.869
REMARK  5 active torsions:
REMARK  status: ('A' for Active; 'I' for Inactive)
REMARK    1  A    between atoms: N_6  and  C_7 
REMARK    2  A    between atoms: N_29  and  C_30 
REMARK    3  A    between atoms: C_36  and  C_41 
REMARK    4  A    between atoms: C_53  and  C_58 
REMARK    5  A    between atoms: N_63  and  C_64 
ROOT
HETATM    1  C   UNK N   1      28.023  17.307   4.309  0.00  0.00     0.241 A 
HETATM    2  O   UNK N   1      28.190  16.815   3.542  0.00  0.00    -0.271 OA
HETATM    3  C   UNK N   1      28.893  17.071   4.650  0.00  0.00     0.278 A 
HETATM    4  O   UNK N   1      30.471  16.522   5.044  0.00  0.00    -0.345 OA
HETATM    5  C   UNK N   1      30.511  16.008   4.123  0.00  0.00     0.061 A 
HETATM    6  C   UNK N   1      31.004  15.526   3.670  0.00  0.00    -0.024 A 
HETATM    7  C   UNK N   1      31.289  14.987   2.922  0.00  0.00     0.010 A 
HETATM    8  C   UNK N   1      30.005  15.460   2.651  0.00  0.00    -0.003 A 
HETATM    9  C   UNK N   1      29.512  15.942   3.104  0.00  0.00    -0.015 A 
HETATM   10  C   UNK N   1      30.302  15.949   3.828  0.00  0.00     0.070 A 
HETATM   11  C   UNK N   1      29.310  16.699   4.331  0.00  0.00     0.056 A 
HETATM   12  C   UNK N   1      29.845  17.173   5.694  0.00  0.00    -0.023 A 
HETATM   13  C   UNK N   1      28.592  17.837   5.805  0.00  0.00     0.010 A 
HETATM   14  C   UNK N   1      28.453  18.273   6.492  0.00  0.00     0.001 A 
HETATM   15  C   UNK N   1      29.030  18.311   7.080  0.00  0.00     0.010 A 
HETATM   16  C   UNK N   1      29.746  17.913   6.982  0.00  0.00    -0.020 A 
HETATM   17  C   UNK N   1      30.422  17.211   6.282  0.00  0.00     0.081 A 
HETATM   18  O   UNK N   1      30.998  16.852   6.131  0.00  0.00    -0.346 OA
HETATM   19  C   UNK N   1      31.065  17.187   6.815  0.00  0.00     0.229 A 
HETATM   20  C   UNK N   1      32.064  17.244   7.818  0.00  0.00     0.237 A 
HETATM   21  O   UNK N   1      32.073  16.465   6.377  0.00  0.00    -0.375 OA
ATOM     22  HO  UNK N   1      32.743  16.504   7.049  1.00  0.00     0.212 HD
HETATM   23  N   UNK N   1      33.504  16.435   7.606  0.00  0.00    -0.394 N 
HETATM   24  C   UNK N   1      30.354  17.919   7.539  0.00  0.00     0.078 A 
HETATM   25  C   UNK N   1      31.254  17.648   7.843  0.00  0.00    -0.046 A 
HETATM   26  C   UNK N   1      31.508  17.922   8.579  0.00  0.00     0.005 A 
HETATM   27  C   UNK N   1      32.254  17.714   8.863  0.00  0.00    -0.003 A 
HETATM   28  C   UNK N   1      32.747  17.232   8.410  0.00  0.00    -0.019 A 
HETATM   29  C   UNK N   1      32.905  16.464   7.121  0.00  0.00     0.045 A 
HETATM   30  C   UNK N   1      31.621  16.938   6.851  0.00  0.00     0.159 A 
HETATM   31  O   UNK N   1      32.342  16.595   6.859  0.00  0.00    -0.372 OA
HETATM   32  C   UNK N   1      33.777  15.841   6.745  0.00  0.00     0.271 A 
HETATM   33  C   UNK N   1      34.630  15.407   6.702  0.00  0.00     0.241 A 
HETATM   34  O   UNK N   1      34.664  15.736   7.345  0.00  0.00    -0.271 OA
HETATM   35  N   UNK N   1      35.363  14.932   6.476  0.00  0.00    -0.358 N 
HETATM   36  C   UNK N   1      36.044  14.375   6.050  0.00  0.00     0.142 A 
HETATM   37  C   UNK N   1      36.181  14.161   5.776  0.00  0.00     0.135 A 
HETATM   38  N   UNK N   1      37.082  14.187   6.633  0.00  0.00    -0.419 N 
HETATM   39  C   UNK N   1      38.028  13.199   5.643  0.00  0.00     0.142 C 
HETATM   40  C   UNK N   1      38.007  14.127   7.351  0.00  0.00     0.142 C 
HETATM   41  C   UNK N   1      32.949  16.476   7.183  0.00  0.00     0.048 A 
HETATM   42  C   UNK N   1      32.952  15.735   5.807  0.00  0.00    -0.046 A 
HETATM   43  C   UNK N   1      32.774  15.867   5.893  0.00  0.00     0.006 A 
HETATM   44  C   UNK N   1      31.659  16.095   5.317  0.00  0.00     0.001 A 
HETATM   45  C   UNK N   1      32.461  15.623   5.158  0.00  0.00     0.006 A 
HETATM   46  C   UNK N   1      32.513  15.262   4.532  0.00  0.00    -0.043 A 
HETATM   47  C   UNK N   1      33.627  15.034   5.108  0.00  0.00     0.180 A 
HETATM   48  O   UNK N   1      34.010  14.502   4.462  0.00  0.00    -0.368 OA
HETATM   49  C   UNK N   1      34.267  13.997   3.754  0.00  0.00     0.271 A 
HETATM   50  C   UNK N   1      33.652  13.879   2.980  0.00  0.00     0.241 A 
HETATM   51  O   UNK N   1      33.019  14.315   3.225  0.00  0.00    -0.271 OA
HETATM   52  N   UNK N   1      34.520  13.363   2.800  0.00  0.00    -0.358 N 
HETATM   53  C   UNK N   1      32.443  14.989   3.963  0.00  0.00     0.078 A 
HETATM   54  H   UNK N   1      33.758  15.893   6.824  0.00  0.00     0.155 HD
HETATM   55  H   UNK N   1      35.875  15.125   7.295  0.00  0.00     0.162 HD
HETATM   56  H   UNK N   1      35.364  13.216   3.284  0.00  0.00     0.162 HD
ENDROOT
BRANCH   1  57
HETATM   57  N   UNK N   1      27.239  17.761   4.451  0.00  0.00    -0.358 N 
HETATM   58  C   UNK N   1      26.312  18.081   4.326  0.00  0.00     0.142 A 
HETATM   59  C   UNK N   1      25.952  17.925   3.903  0.00  0.00     0.135 A 
HETATM   60  N   UNK N   1      25.498  18.540   4.457  0.00  0.00    -0.419 N 
HETATM   61  C   UNK N   1      23.933  18.756   3.815  0.00  0.00     0.142 C 
HETATM   62  C   UNK N   1      25.113  19.349   5.312  0.00  0.00     0.142 C 
HETATM   63  H   UNK N   1      27.481  18.260   5.264  0.00  0.00     0.162 HD
ENDBRANCH   1  57
BRANCH  23  64
HETATM   64  C   UNK N   1      34.335  16.680   8.806  0.00  0.00     0.146 A 
HETATM   65  C   UNK N   1      34.802  16.717   9.587  0.00  0.00     0.290 A 
HETATM   66  N   UNK N   1      34.552  16.326   9.556  0.00  0.00     0.081 N 
HETATM   67  C   UNK N   1      35.301  16.138  11.064  0.00  0.00     0.309 A 
HETATM   68  C   UNK N   1      34.234  15.137  10.236  0.00  0.00     0.309 C 
ENDBRANCH  23  64
BRANCH  52  69
HETATM   69  C   UNK N   1      33.965  12.945   1.523  0.00  0.00     0.152 A 
HETATM   70  C   UNK N   1      33.538  12.688   0.810  0.00  0.00     0.290 A 
HETATM   71  N   UNK N   1      34.559  12.714   0.094  0.00  0.00     0.081 N 
HETATM   72  C   UNK N   1      33.130  12.276  -0.559  0.00  0.00     0.309 A 
HETATM   73  C   UNK N   1      34.924  12.550  -0.876  0.00  0.00     0.309 C 
ENDBRANCH  52  69
TORSDOF 5
ENDMDL
MODEL 3
REMARK VINA RESULT:     -13.6      2.892      7.731
REMARK  5 active torsions:
REMARK  status: ('A' for Active; 'I' for Inactive)
REMARK    1  A    between atoms: N_6  and  C_7 
REMARK    2  A    between atoms: N_29  and  C_30 
REMARK    3  A    between atoms: C_36  and  C_41 
REMARK    4  A    between atoms: C_53  and  C_58 
REMARK    5  A    between atoms: N_63  and  C_64 
ROOT
HETATM    1  C   UNK N   1      30.482  17.315   5.197  0.00  0.00     0.241 A 
HETATM    2  O   UNK N   1      30.618  17.037   4.324  0.00  0.00    -0.271 OA
HETATM    3  C   UNK N   1      31.296  16.871   5.466  0.00  0.00     0.278 A 
HETATM    4  O   UNK N   1      32.765  16.015   5.702  0.00  0.00    -0.345 OA
HETATM    5  C   UNK N   1      32.779  15.777   4.673  0.00  0.00     0.061 A 
HETATM    6  C   UNK N   1      33.225  15.376   4.107  0.00  0.00    -0.024 A 
HETATM    7  C   UNK N   1      33.470  15.031   3.239  0.00  0.00     0.010 A 
HETATM    8  C   UNK N   1      32.276  15.739   3.102  0.00  0.00    -0.003 A 
HETATM    9  C   UNK N   1      31.831  16.141   3.669  0.00  0.00    -0.015 A 
HETATM   10  C   UNK N   1      32.579  15.834   4.371  0.00  0.00     0.070 A 
HETATM   11  C   UNK N   1      31.674  16.547   5.058  0.00  0.00     0.056 A 
HETATM   12  C   UNK N   1      32.201  16.541   6.503  0.00  0.00    -0.023 A 
HETATM   13  C   UNK N   1      31.045  17.320   6.787  0.00  0.00     0.010 A 
HETATM   14  C   UNK N   1      30.933  17.563   7.568  0.00  0.00     0.001 A 
HETATM   15  C   UNK N   1      31.481  17.352   8.148  0.00  0.00     0.010 A 
HETATM   16  C   UNK N   1      32.140  16.900   7.947  0.00  0.00    -0.020 A 
HETATM   17  C   UNK N   1      32.749  16.331   7.083  0.00  0.00     0.081 A 
HETATM   18  O   UNK N   1      33.278  15.950   6.842  0.00  0.00    -0.346 OA
HETATM   19  C   UNK N   1      33.357  16.068   7.592  0.00  0.00     0.229 A 
HETATM   20  C   UNK N   1      34.305  15.701   8.580  0.00  0.00     0.237 A 
HETATM   21  O   UNK N   1      34.278  15.361   6.977  0.00  0.00    -0.375 OA
ATOM     22  HO  UNK N   1      34.914  15.115   7.638  1.00  0.00     0.212 HD
HETATM   23  N   UNK N   1      35.632  14.787   8.159  0.00  0.00    -0.394 N 
HETATM   24  C   UNK N   1      32.716  16.663   8.488  0.00  0.00     0.078 A 
HETATM   25  C   UNK N   1      33.556  16.194   8.711  0.00  0.00    -0.046 A 
HETATM   26  C   UNK N   1      33.809  16.212   9.497  0.00  0.00     0.005 A 
HETATM   27  C   UNK N   1      34.506  15.829   9.716  0.00  0.00    -0.003 A 
HETATM   28  C   UNK N   1      34.951  15.428   9.149  0.00  0.00    -0.019 A 
HETATM   29  C   UNK N   1      35.066  15.034   7.698  0.00  0.00     0.045 A 
HETATM   30  C   UNK N   1      33.872  15.743   7.561  0.00  0.00     0.159 A 
HETATM   31  O   UNK N   1      34.538  15.312   7.479  0.00  0.00    -0.372 OA
HETATM   32  C   UNK N   1      35.863  14.423   7.169  0.00  0.00     0.271 A 
HETATM   33  C   UNK N   1      36.651  13.901   7.011  0.00  0.00     0.241 A 
HETATM   34  O   UNK N   1      36.698  14.030   7.721  0.00  0.00    -0.271 OA
HETATM   35  N   UNK N   1      37.324  13.408   6.667  0.00  0.00    -0.358 N 
HETATM   36  C   UNK N   1      37.943  12.901   6.107  0.00  0.00     0.142 A 
HETATM   37  C   UNK N   1      38.063  12.755   5.784  0.00  0.00     0.135 A 
HETATM   38  N   UNK N   1      38.917  12.412   6.621  0.00  0.00    -0.419 N 
HETATM   39  C   UNK N   1      39.769  11.614   5.399  0.00  0.00     0.142 C 
HETATM   40  C   UNK N   1      39.790  12.023   7.301  0.00  0.00     0.142 C 
HETATM   41  C   UNK N   1      35.108  15.022   7.760  0.00  0.00     0.048 A 
HETATM   42  C   UNK N   1      35.078  14.701   6.232  0.00  0.00    -0.046 A 
HETATM   43  C   UNK N   1      34.915  14.828   6.350  0.00  0.00     0.006 A 
HETATM   44  C   UNK N   1      33.870  15.364   5.853  0.00  0.00     0.001 A 
HETATM   45  C   UNK N   1      34.608  14.846   5.574  0.00  0.00     0.006 A 
HETATM   46  C   UNK N   1      34.641  14.669   4.871  0.00  0.00    -0.043 A 
HETATM   47  C   UNK N   1      35.686  14.133   5.368  0.00  0.00     0.180 A 
HETATM   48  O   UNK N   1      36.024  13.754   4.602  0.00  0.00    -0.368 OA
HETATM   49  C   UNK N   1      36.245  13.435   3.782  0.00  0.00     0.271 A 
HETATM   50  C   UNK N   1      35.657  13.625   3.001  0.00  0.00     0.241 A 
HETATM   51  O   UNK N   1      35.078  14.062   3.354  0.00  0.00    -0.271 OA
HETATM   52  N   UNK N   1      36.455  13.062   2.690  0.00  0.00    -0.358 N 
HETATM   53  C   UNK N   1      34.563  14.579   4.247  0.00  0.00     0.078 A 
HETATM   54  H   UNK N   1      35.847  14.453   7.258  0.00  0.00     0.155 HD
HETATM   55  H   UNK N   1      37.817  13.291   7.511  0.00  0.00     0.162 HD
HETATM   56  H   UNK N   1      37.248  12.667   3.120  0.00  0.00     0.162 HD
ENDROOT
BRANCH   1  57
HETATM   57  N   UNK N   1      29.761  17.818   5.455  0.00  0.00    -0.358 N 
HETATM   58  C   UNK N   1      28.911  18.320   5.408  0.00  0.00     0.142 A 
HETATM   59  C   UNK N   1      28.585  18.394   4.937  0.00  0.00     0.135 A 
HETATM   60  N   UNK N   1      28.162  18.838   5.656  0.00  0.00    -0.419 N 
HETATM   61  C   UNK N   1      26.731  19.546   5.055  0.00  0.00     0.142 C 
HETATM   62  C   UNK N   1      27.798  19.338   6.730  0.00  0.00     0.142 C 
HETATM   63  H   UNK N   1      29.974  17.938   6.409  0.00  0.00     0.162 HD
ENDBRANCH   1  57
BRANCH  23  64
HETATM   64  C   UNK N   1      36.429  14.566   9.387  0.00  0.00     0.146 A 
HETATM   65  C   UNK N   1      36.857  14.319  10.151  0.00  0.00     0.290 A 
HETATM   66  N   UNK N   1      36.552  13.996  10.014  0.00  0.00     0.081 N 
HETATM   67  C   UNK N   1      37.187  13.295  11.419  0.00  0.00     0.309 A 
HETATM   68  C   UNK N   1      36.023  12.735  10.344  0.00  0.00     0.309 C 
ENDBRANCH  23  64
BRANCH  52  69
HETATM   69  C   UNK N   1      35.911  13.099   1.343  0.00  0.00     0.152 A 
HETATM   70  C   UNK N   1      35.502  13.067   0.576  0.00  0.00     0.290 A 
HETATM   71  N   UNK N   1      36.401  13.693  -0.020  0.00  0.00     0.081 N 
HETATM   72  C   UNK N   1      35.088  13.192  -0.846  0.00  0.00     0.309 A 
HETATM   73  C   UNK N   1      36.699  14.079  -0.949  0.00  0.00     0.309 C 
ENDBRANCH  52  69
TORSDOF 5
ENDMDL
MODEL 4
REMARK VINA RESULT:     -13.3      4.827      7.645
REMARK  5 active torsions:
REMARK  status: ('A' for Active; 'I' for Inactive)
REMARK    1  A    between atoms: N_6  and  C_7 
REMARK    2  A    between atoms: N_29  and  C_30 
REMARK    3  A    between atoms: C_36  and  C_41 
REMARK    4  A    between atoms: C_53  and  C_58 
REMARK    5  A    between atoms: N_63  and  C_64 
ROOT
HETATM    1  C   UNK N   1      35.074  10.724  14.557  0.00  0.00     0.241 A 
HETATM    2  O   UNK N   1      34.792   9.928  14.176  0.00  0.00    -0.271 OA
HETATM    3  C   UNK N   1      34.969  11.168  13.707  0.00  0.00     0.278 A 
HETATM    4  O   UNK N   1      34.707  11.734  12.108  0.00  0.00    -0.345 OA
HETATM    5  C   UNK N   1      34.407  10.763  11.824  0.00  0.00     0.061 A 
HETATM    6  C   UNK N   1      34.143  10.330  11.173  0.00  0.00    -0.024 A 
HETATM    7  C   UNK N   1      33.838   9.564  10.671  0.00  0.00     0.010 A 
HETATM    8  C   UNK N   1      34.067   9.156  11.985  0.00  0.00    -0.003 A 
HETATM    9  C   UNK N   1      34.330   9.589  12.636  0.00  0.00    -0.015 A 
HETATM   10  C   UNK N   1      34.365  10.430  11.972  0.00  0.00     0.070 A 
HETATM   11  C   UNK N   1      34.766  10.870  13.174  0.00  0.00     0.056 A 
HETATM   12  C   UNK N   1      35.064  12.363  12.953  0.00  0.00    -0.023 A 
HETATM   13  C   UNK N   1      35.406  12.363  14.334  0.00  0.00     0.010 A 
HETATM   14  C   UNK N   1      35.656  13.077  14.663  0.00  0.00     0.001 A 
HETATM   15  C   UNK N   1      35.700  13.754  14.194  0.00  0.00     0.010 A 
HETATM   16  C   UNK N   1      35.494  13.718  13.397  0.00  0.00    -0.020 A 
HETATM   17  C   UNK N   1      35.108  13.040  12.484  0.00  0.00     0.081 A 
HETATM   18  O   UNK N   1      34.920  12.935  11.824  0.00  0.00    -0.346 OA
HETATM   19  C   UNK N   1      35.119  13.665  11.929  0.00  0.00     0.229 A 
HETATM   20  C   UNK N   1      35.190  14.822  11.114  0.00  0.00     0.237 A 
HETATM   21  O   UNK N   1      34.734  13.296  10.728  0.00  0.00    -0.375 OA
ATOM     22  HO  UNK N   1      34.782  14.071  10.181  1.00  0.00     0.212 HD
HETATM   23  N   UNK N   1      34.771  14.732   9.505  0.00  0.00    -0.394 N 
HETATM   24  C   UNK N   1      35.521  14.365  12.886  0.00  0.00     0.078 A 
HETATM   25  C   UNK N   1      35.396  14.772  11.994  0.00  0.00    -0.046 A 
HETATM   26  C   UNK N   1      35.566  15.575  11.913  0.00  0.00     0.005 A 
HETATM   27  C   UNK N   1      35.472  15.946  11.182  0.00  0.00    -0.003 A 
HETATM   28  C   UNK N   1      35.209  15.512  10.531  0.00  0.00    -0.019 A 
HETATM   29  C   UNK N   1      34.765  14.163  10.024  0.00  0.00     0.045 A 
HETATM   30  C   UNK N   1      34.994  13.755  11.339  0.00  0.00     0.159 A 
HETATM   31  O   UNK N   1      34.820  13.832  10.564  0.00  0.00    -0.372 OA
HETATM   32  C   UNK N   1      34.433  13.847   8.986  0.00  0.00     0.271 A 
HETATM   33  C   UNK N   1      34.210  13.882   8.054  0.00  0.00     0.241 A 
HETATM   34  O   UNK N   1      34.404  14.565   8.186  0.00  0.00    -0.271 OA
HETATM   35  N   UNK N   1      33.960  13.711   7.204  0.00  0.00    -0.358 N 
HETATM   36  C   UNK N   1      33.659  13.325   6.359  0.00  0.00     0.142 A 
HETATM   37  C   UNK N   1      33.539  13.047   6.139  0.00  0.00     0.135 A 
HETATM   38  N   UNK N   1      33.589  14.040   5.391  0.00  0.00    -0.419 N 
HETATM   39  C   UNK N   1      33.045  13.080   4.111  0.00  0.00     0.142 C 
HETATM   40  C   UNK N   1      33.588  14.887   4.581  0.00  0.00     0.142 C 
HETATM   41  C   UNK N   1      34.773  14.232   9.994  0.00  0.00     0.048 A 
HETATM   42  C   UNK N   1      34.339  12.776   9.631  0.00  0.00    -0.046 A 
HETATM   43  C   UNK N   1      34.410  12.850   9.845  0.00  0.00     0.006 A 
HETATM   44  C   UNK N   1      34.502  12.135  10.897  0.00  0.00     0.001 A 
HETATM   45  C   UNK N   1      34.255  12.042   9.991  0.00  0.00     0.006 A 
HETATM   46  C   UNK N   1      34.045  11.384   9.771  0.00  0.00    -0.043 A 
HETATM   47  C   UNK N   1      33.954  12.099   8.719  0.00  0.00     0.180 A 
HETATM   48  O   UNK N   1      33.657  11.451   8.138  0.00  0.00    -0.368 OA
HETATM   49  C   UNK N   1      33.371  10.725   7.675  0.00  0.00     0.271 A 
HETATM   50  C   UNK N   1      33.278   9.848   8.137  0.00  0.00     0.241 A 
HETATM   51  O   UNK N   1      33.510  10.047   8.883  0.00  0.00    -0.271 OA
HETATM   52  N   UNK N   1      33.009   9.739   7.154  0.00  0.00    -0.358 N 
HETATM   53  C   UNK N   1      33.883  10.775   9.698  0.00  0.00     0.078 A 
HETATM   54  H   UNK N   1      34.462  13.928   9.027  0.00  0.00     0.155 HD
HETATM   55  H   UNK N   1      34.092  14.627   6.866  0.00  0.00     0.162 HD
HETATM   56  H   UNK N   1      32.954  10.331   6.369  0.00  0.00     0.162 HD
ENDROOT
BRANCH   1  57
HETATM   57  N   UNK N   1      35.311  10.801  15.439  0.00  0.00    -0.358 N 
HETATM   58  C   UNK N   1      35.629  10.557  16.343  0.00  0.00     0.142 A 
HETATM   59  C   UNK N   1      35.801  10.033  16.514  0.00  0.00     0.135 A 
HETATM   60  N   UNK N   1      35.877  10.617  17.252  0.00  0.00    -0.419 N 
HETATM   61  C   UNK N   1      36.470   9.711  18.569  0.00  0.00     0.142 C 
HETATM   62  C   UNK N   1      35.891  11.554  18.063  0.00  0.00     0.142 C 
HETATM   63  H   UNK N   1      35.126  11.758  15.578  0.00  0.00     0.162 HD
ENDBRANCH   1  57
BRANCH  23  64
HETATM   64  C   UNK N   1      34.945  16.082   8.923  0.00  0.00     0.146 A 
HETATM   65  C   UNK N   1      34.926  16.925   8.579  0.00  0.00     0.290 A 
HETATM   66  N   UNK N   1      34.502  16.782   8.705  0.00  0.00     0.081 N 
HETATM   67  C   UNK N   1      34.180  18.338   8.117  0.00  0.00     0.309 A 
HETATM   68  C   UNK N   1      33.152  17.174   8.759  0.00  0.00     0.309 C 
ENDBRANCH  23  64
BRANCH  52  69
HETATM   69  C   UNK N   1      32.742   8.335   7.419  0.00  0.00     0.152 A 
HETATM   70  C   UNK N   1      32.685   7.488   7.611  0.00  0.00     0.290 A 
HETATM   71  N   UNK N   1      31.493   7.407   7.255  0.00  0.00     0.081 N 
HETATM   72  C   UNK N   1      32.253   6.082   7.824  0.00  0.00     0.309 A 
HETATM   73  C   UNK N   1      30.674   6.758   7.159  0.00  0.00     0.309 C 
ENDBRANCH  52  69
TORSDOF 5
ENDMDL
MODEL 5
REMARK VINA RESULT:     -13.2      8.971     14.314
REMARK  5 active torsions:
REMARK  status: ('A' for Active; 'I' for Inactive)
REMARK    1  A    between atoms: N_6  and  C_7 
REMARK    2  A    between atoms: N_29  and  C_30 
REMARK    3  A    between atoms: C_36  and  C_41 
REMARK    4  A    between atoms: C_53  and  C_58 
REMARK    5  A    between atoms: N_63  and  C_64 
ROOT
HETATM    1  C   UNK N   1      36.888  12.509  12.435  0.00  0.00     0.241 A 
HETATM    2  O   UNK N   1      37.357  11.805  12.058  0.00  0.00    -0.271 OA
HETATM    3  C   UNK N   1      36.850  12.034  13.274  0.00  0.00     0.278 A 
HETATM    4  O   UNK N   1      36.909  11.008  14.649  0.00  0.00    -0.345 OA
HETATM    5  C   UNK N   1      37.443  10.296  14.082  0.00  0.00     0.061 A 
HETATM    6  C   UNK N   1      37.790   9.550  14.139  0.00  0.00    -0.024 A 
HETATM    7  C   UNK N   1      38.270   8.761  13.857  0.00  0.00     0.010 A 
HETATM    8  C   UNK N   1      38.193   9.633  12.770  0.00  0.00    -0.003 A 
HETATM    9  C   UNK N   1      37.845  10.378  12.713  0.00  0.00    -0.015 A 
HETATM   10  C   UNK N   1      37.574  10.252  13.742  0.00  0.00     0.070 A 
HETATM   11  C   UNK N   1      37.107  11.452  13.363  0.00  0.00     0.056 A 
HETATM   12  C   UNK N   1      36.425  12.010  14.625  0.00  0.00    -0.023 A 
HETATM   13  C   UNK N   1      36.135  13.138  13.807  0.00  0.00     0.010 A 
HETATM   14  C   UNK N   1      35.718  13.760  14.152  0.00  0.00     0.001 A 
HETATM   15  C   UNK N   1      35.486  13.712  14.942  0.00  0.00     0.010 A 
HETATM   16  C   UNK N   1      35.671  13.042  15.387  0.00  0.00    -0.020 A 
HETATM   17  C   UNK N   1      36.192  11.962  15.415  0.00  0.00     0.081 A 
HETATM   18  O   UNK N   1      36.382  11.370  15.726  0.00  0.00    -0.346 OA
HETATM   19  C   UNK N   1      36.004  11.818  16.216  0.00  0.00     0.229 A 
HETATM   20  C   UNK N   1      35.610  11.724  17.574  0.00  0.00     0.237 A 
HETATM   21  O   UNK N   1      36.436  10.654  16.648  0.00  0.00    -0.375 OA
ATOM     22  HO  UNK N   1      36.172  10.591  17.558  1.00  0.00     0.212 HD
HETATM   23  N   UNK N   1      35.991  10.366  18.458  0.00  0.00    -0.394 N 
HETATM   24  C   UNK N   1      35.462  12.945  16.179  0.00  0.00     0.078 A 
HETATM   25  C   UNK N   1      35.450  12.419  17.015  0.00  0.00    -0.046 A 
HETATM   26  C   UNK N   1      35.075  12.750  17.671  0.00  0.00     0.005 A 
HETATM   27  C   UNK N   1      35.047  12.336  18.384  0.00  0.00    -0.003 A 
HETATM   28  C   UNK N   1      35.395  11.590  18.441  0.00  0.00    -0.019 A 
HETATM   29  C   UNK N   1      36.160  10.508  17.720  0.00  0.00     0.045 A 
HETATM   30  C   UNK N   1      36.084  11.380  16.634  0.00  0.00     0.159 A 
HETATM   31  O   UNK N   1      36.208  10.786  17.150  0.00  0.00    -0.372 OA
HETATM   32  C   UNK N   1      36.532   9.504  18.096  0.00  0.00     0.271 A 
HETATM   33  C   UNK N   1      36.710   8.760  18.673  0.00  0.00     0.241 A 
HETATM   34  O   UNK N   1      36.349   9.206  19.113  0.00  0.00    -0.271 OA
HETATM   35  N   UNK N   1      36.972   7.982  19.047  0.00  0.00    -0.358 N 
HETATM   36  C   UNK N   1      37.338   7.100  19.255  0.00  0.00     0.142 A 
HETATM   37  C   UNK N   1      37.519   6.783  19.175  0.00  0.00     0.135 A 
HETATM   38  N   UNK N   1      37.191   6.664  20.369  0.00  0.00    -0.419 N 
HETATM   39  C   UNK N   1      37.928   5.143  20.400  0.00  0.00     0.142 C 
HETATM   40  C   UNK N   1      36.948   6.421  21.490  0.00  0.00     0.142 C 
HETATM   41  C   UNK N   1      36.133  10.518  17.790  0.00  0.00     0.048 A 
HETATM   42  C   UNK N   1      36.920   9.501  16.903  0.00  0.00    -0.046 A 
HETATM   43  C   UNK N   1      36.839   9.713  16.832  0.00  0.00     0.006 A 
HETATM   44  C   UNK N   1      36.967  10.218  15.669  0.00  0.00     0.001 A 
HETATM   45  C   UNK N   1      37.202   9.432  16.135  0.00  0.00     0.006 A 
HETATM   46  C   UNK N   1      37.570   8.927  15.767  0.00  0.00    -0.043 A 
HETATM   47  C   UNK N   1      37.441   8.421  16.930  0.00  0.00     0.180 A 
HETATM   48  O   UNK N   1      37.879   7.626  16.784  0.00  0.00    -0.368 OA
HETATM   49  C   UNK N   1      38.330   6.889  16.509  0.00  0.00     0.271 A 
HETATM   50  C   UNK N   1      38.662   6.832  15.571  0.00  0.00     0.241 A 
HETATM   51  O   UNK N   1      38.408   7.540  15.281  0.00  0.00    -0.271 OA
HETATM   52  N   UNK N   1      38.921   5.975  16.071  0.00  0.00    -0.358 N 
HETATM   53  C   UNK N   1      37.882   8.565  15.349  0.00  0.00     0.078 A 
HETATM   54  H   UNK N   1      36.484   9.578  18.133  0.00  0.00     0.155 HD
HETATM   55  H   UNK N   1      36.596   8.158  19.940  0.00  0.00     0.162 HD
HETATM   56  H   UNK N   1      38.796   5.627  16.984  0.00  0.00     0.162 HD
ENDROOT
BRANCH   1  57
HETATM   57  N   UNK N   1      36.666  13.267  11.971  0.00  0.00    -0.358 N 
HETATM   58  C   UNK N   1      36.418  13.862  11.220  0.00  0.00     0.142 A 
HETATM   59  C   UNK N   1      36.342  13.702  10.670  0.00  0.00     0.135 A 
HETATM   60  N   UNK N   1      36.188  14.632  10.726  0.00  0.00    -0.419 N 
HETATM   61  C   UNK N   1      35.794  15.184   9.162  0.00  0.00     0.142 C 
HETATM   62  C   UNK N   1      36.037  15.821  11.038  0.00  0.00     0.142 C 
HETATM   63  H   UNK N   1      36.689  13.924  12.704  0.00  0.00     0.162 HD
ENDBRANCH   1  57
BRANCH  23  64
HETATM   64  C   UNK N   1      35.454  10.558  19.824  0.00  0.00     0.146 A 
HETATM   65  C   UNK N   1      35.031  10.595  20.630  0.00  0.00     0.290 A 
HETATM   66  N   UNK N   1      34.810  10.313  20.334  0.00  0.00     0.081 N 
HETATM   67  C   UNK N   1      33.834  10.196  21.713  0.00  0.00     0.309 A 
HETATM   68  C   UNK N   1      33.696   9.464  20.207  0.00  0.00     0.309 C 
ENDBRANCH  23  64
BRANCH  52  69
HETATM   69  C   UNK N   1      39.551   5.497  14.852  0.00  0.00     0.152 A 
HETATM   70  C   UNK N   1      39.853   5.267  14.068  0.00  0.00     0.290 A 
HETATM   71  N   UNK N   1      40.772   4.569  14.541  0.00  0.00     0.081 N 
HETATM   72  C   UNK N   1      40.608   4.694  12.923  0.00  0.00     0.309 A 
HETATM   73  C   UNK N   1      41.585   3.951  14.297  0.00  0.00     0.309 C 
ENDBRANCH  52  69
TORSDOF 5
ENDMDL
MODEL 6
REMARK VINA RESULT:     -13.2      7.295     11.461
REMARK  5 active torsions:
REMARK  status: ('A' for Active; 'I' for Inactive)
REMARK    1  A    between atoms: N_6  and  C_7 
REMARK    2  A    between atoms: N_29  and  C_30 
REMARK    3  A    between atoms: C_36  and  C_41 
REMARK    4  A    between atoms: C_53  and  C_58 
REMARK    5  A    between atoms: N_63  and  C_64 
ROOT
HETATM    1  C   UNK N   1      36.437  10.441  16.927  0.00  0.00     0.241 A 
HETATM    2  O   UNK N   1      36.834   9.627  16.729  0.00  0.00    -0.271 OA
HETATM    3  C   UNK N   1      36.573  10.729  16.016  0.00  0.00     0.278 A 
HETATM    4  O   UNK N   1      36.920  11.016  14.360  0.00  0.00    -0.345 OA
HETATM    5  C   UNK N   1      37.343  10.052  14.292  0.00  0.00     0.061 A 
HETATM    6  C   UNK N   1      37.708   9.540  13.758  0.00  0.00    -0.024 A 
HETATM    7  C   UNK N   1      38.136   8.736  13.436  0.00  0.00     0.010 A 
HETATM    8  C   UNK N   1      37.832   8.555  14.785  0.00  0.00    -0.003 A 
HETATM    9  C   UNK N   1      37.466   9.066  15.319  0.00  0.00    -0.015 A 
HETATM   10  C   UNK N   1      37.406   9.759  14.504  0.00  0.00     0.070 A 
HETATM   11  C   UNK N   1      36.853  10.363  15.567  0.00  0.00     0.056 A 
HETATM   12  C   UNK N   1      36.423  11.743  15.040  0.00  0.00    -0.023 A 
HETATM   13  C   UNK N   1      35.959  11.958  16.367  0.00  0.00     0.010 A 
HETATM   14  C   UNK N   1      35.607  12.686  16.533  0.00  0.00     0.001 A 
HETATM   15  C   UNK N   1      35.536  13.254  15.940  0.00  0.00     0.010 A 
HETATM   16  C   UNK N   1      35.816  13.096  15.181  0.00  0.00    -0.020 A 
HETATM   17  C   UNK N   1      36.352  12.312  14.446  0.00  0.00     0.081 A 
HETATM   18  O   UNK N   1      36.610  12.109  13.834  0.00  0.00    -0.346 OA
HETATM   19  C   UNK N   1      36.328  12.817  13.781  0.00  0.00     0.229 A 
HETATM   20  C   UNK N   1      36.211  13.786  12.754  0.00  0.00     0.237 A 
HETATM   21  O   UNK N   1      36.856  12.281  12.704  0.00  0.00    -0.375 OA
ATOM     22  HO  UNK N   1      36.778  12.930  12.015  1.00  0.00     0.212 HD
HETATM   23  N   UNK N   1      36.782  13.451  11.226  0.00  0.00    -0.394 N 
HETATM   24  C   UNK N   1      35.770  13.629  14.553  0.00  0.00     0.078 A 
HETATM   25  C   UNK N   1      35.932  13.876  13.611  0.00  0.00    -0.046 A 
HETATM   26  C   UNK N   1      35.688  14.625  13.363  0.00  0.00     0.005 A 
HETATM   27  C   UNK N   1      35.809  14.861  12.583  0.00  0.00    -0.003 A 
HETATM   28  C   UNK N   1      36.174  14.350  12.048  0.00  0.00    -0.019 A 
HETATM   29  C   UNK N   1      36.800  12.992  11.845  0.00  0.00     0.045 A 
HETATM   30  C   UNK N   1      36.496  12.811  13.195  0.00  0.00     0.159 A 
HETATM   31  O   UNK N   1      36.730  12.763  12.434  0.00  0.00    -0.372 OA
HETATM   32  C   UNK N   1      37.256  12.532  10.913  0.00  0.00     0.271 A 
HETATM   33  C   UNK N   1      37.557  12.419  10.011  0.00  0.00     0.241 A 
HETATM   34  O   UNK N   1      37.282  13.087   9.993  0.00  0.00    -0.271 OA
HETATM   35  N   UNK N   1      37.901  12.126   9.230  0.00  0.00    -0.358 N 
HETATM   36  C   UNK N   1      38.316  11.628   8.498  0.00  0.00     0.142 A 
HETATM   37  C   UNK N   1      38.483  11.330   8.346  0.00  0.00     0.135 A 
HETATM   38  N   UNK N   1      38.399  12.155   7.418  0.00  0.00    -0.419 N 
HETATM   39  C   UNK N   1      39.154  11.046   6.390  0.00  0.00     0.142 C 
HETATM   40  C   UNK N   1      38.386  12.831   6.460  0.00  0.00     0.142 C 
HETATM   41  C   UNK N   1      36.787  13.053  11.801  0.00  0.00     0.048 A 
HETATM   42  C   UNK N   1      37.401  11.617  11.759  0.00  0.00    -0.046 A 
HETATM   43  C   UNK N   1      37.304  11.721  11.950  0.00  0.00     0.006 A 
HETATM   44  C   UNK N   1      37.191  11.207  13.112  0.00  0.00     0.001 A 
HETATM   45  C   UNK N   1      37.527  10.978  12.260  0.00  0.00     0.006 A 
HETATM   46  C   UNK N   1      37.823  10.321  12.188  0.00  0.00    -0.043 A 
HETATM   47  C   UNK N   1      37.936  10.834  11.026  0.00  0.00     0.180 A 
HETATM   48  O   UNK N   1      38.350  10.130  10.603  0.00  0.00    -0.368 OA
HETATM   49  C   UNK N   1      38.751   9.370  10.312  0.00  0.00     0.271 A 
HETATM   50  C   UNK N   1      38.892   8.611  10.941  0.00  0.00     0.241 A 
HETATM   51  O   UNK N   1      38.574   8.916  11.616  0.00  0.00    -0.271 OA
HETATM   52  N   UNK N   1      39.259   8.355  10.018  0.00  0.00    -0.358 N 
HETATM   53  C   UNK N   1      38.054   9.732  12.245  0.00  0.00     0.078 A 
HETATM   54  H   UNK N   1      37.214  12.615  10.936  0.00  0.00     0.155 HD
HETATM   55  H   UNK N   1      37.705  12.940   8.712  0.00  0.00     0.162 HD
HETATM   56  H   UNK N   1      39.323   8.794   9.139  0.00  0.00     0.162 HD
ENDROOT
BRANCH   1  57
HETATM   57  N   UNK N   1      36.115  10.651  17.758  0.00  0.00    -0.358 N 
HETATM   58  C   UNK N   1      35.828  10.550  18.700  0.00  0.00     0.142 A 
HETATM   59  C   UNK N   1      35.838  10.061  19.008  0.00  0.00     0.135 A 
HETATM   60  N   UNK N   1      35.498  10.748  19.561  0.00  0.00    -0.419 N 
HETATM   61  C   UNK N   1      35.154  10.060  21.084  0.00  0.00     0.142 C 
HETATM   62  C   UNK N   1      35.085  11.790  20.089  0.00  0.00     0.142 C 
HETATM   63  H   UNK N   1      35.936  11.610  17.631  0.00  0.00     0.162 HD
ENDBRANCH   1  57
BRANCH  23  64
HETATM   64  C   UNK N   1      36.522  14.639  10.382  0.00  0.00     0.146 A 
HETATM   65  C   UNK N   1      36.254  15.310   9.828  0.00  0.00     0.290 A 
HETATM   66  N   UNK N   1      35.946  14.961   9.836  0.00  0.00     0.081 N 
HETATM   67  C   UNK N   1      35.215  16.043   8.756  0.00  0.00     0.309 A 
HETATM   68  C   UNK N   1      34.715  14.536   9.306  0.00  0.00     0.309 C 
ENDBRANCH  23  64
BRANCH  52  69
HETATM   69  C   UNK N   1      39.644   7.066  10.569  0.00  0.00     0.152 A 
HETATM   70  C   UNK N   1      39.809   6.317  10.981  0.00  0.00     0.290 A 
HETATM   71  N   UNK N   1      40.599   5.917  10.102  0.00  0.00     0.081 N 
HETATM   72  C   UNK N   1      40.302   4.981  11.404  0.00  0.00     0.309 A 
HETATM   73  C   UNK N   1      41.231   5.128   9.820  0.00  0.00     0.309 C 
ENDBRANCH  52  69
TORSDOF 5
ENDMDL
MODEL 7
REMARK VINA RESULT:     -13.1      8.651     12.914
REMARK  5 active torsions:
REMARK  status: ('A' for Active; 'I' for Inactive)
REMARK    1  A    between atoms: N_6  and  C_7 
REMARK    2  A    between atoms: N_29  and  C_30 
REMARK    3  A    between atoms: C_36  and  C_41 
REMARK    4  A    between atoms: C_53  and  C_58 
REMARK    5  A    between atoms: N_63  and  C_64 
ROOT
HETATM    1  C   UNK N   1      36.122   8.902  18.749  0.00  0.00     0.241 A 
HETATM    2  O   UNK N   1      36.501   8.125  18.417  0.00  0.00    -0.271 OA
HETATM    3  C   UNK N   1      36.282   9.341  17.905  0.00  0.00     0.278 A 
HETATM    4  O   UNK N   1      36.667   9.904  16.330  0.00  0.00    -0.345 OA
HETATM    5  C   UNK N   1      37.066   8.954  16.099  0.00  0.00     0.061 A 
HETATM    6  C   UNK N   1      37.428   8.534  15.489  0.00  0.00    -0.024 A 
HETATM    7  C   UNK N   1      37.840   7.787  15.037  0.00  0.00     0.010 A 
HETATM    8  C   UNK N   1      37.507   7.381  16.329  0.00  0.00    -0.003 A 
HETATM    9  C   UNK N   1      37.145   7.801  16.939  0.00  0.00    -0.015 A 
HETATM   10  C   UNK N   1      37.117   8.628  16.258  0.00  0.00     0.070 A 
HETATM   11  C   UNK N   1      36.561   9.052  17.402  0.00  0.00     0.056 A 
HETATM   12  C   UNK N   1      36.177  10.515  17.119  0.00  0.00    -0.023 A 
HETATM   13  C   UNK N   1      35.694  10.507  18.458  0.00  0.00     0.010 A 
HETATM   14  C   UNK N   1      35.358  11.204  18.744  0.00  0.00     0.001 A 
HETATM   15  C   UNK N   1      35.312  11.870  18.259  0.00  0.00     0.010 A 
HETATM   16  C   UNK N   1      35.603  11.838  17.487  0.00  0.00    -0.020 A 
HETATM   17  C   UNK N   1      36.131  11.180  16.634  0.00  0.00     0.081 A 
HETATM   18  O   UNK N   1      36.395  11.081  15.999  0.00  0.00    -0.346 OA
HETATM   19  C   UNK N   1      36.133  11.794  16.068  0.00  0.00     0.229 A 
HETATM   20  C   UNK N   1      36.060  12.931  15.225  0.00  0.00     0.237 A 
HETATM   21  O   UNK N   1      36.667  11.440  14.921  0.00  0.00    -0.375 OA
ATOM     22  HO  UNK N   1      36.619  12.201  14.355  1.00  0.00     0.212 HD
HETATM   23  N   UNK N   1      36.651  12.852  13.670  0.00  0.00    -0.394 N 
HETATM   24  C   UNK N   1      35.582  12.474  16.963  0.00  0.00     0.078 A 
HETATM   25  C   UNK N   1      35.768  12.878  16.080  0.00  0.00    -0.046 A 
HETATM   26  C   UNK N   1      35.548  13.665  15.964  0.00  0.00     0.005 A 
HETATM   27  C   UNK N   1      35.689  14.031  15.239  0.00  0.00    -0.003 A 
HETATM   28  C   UNK N   1      36.051  13.610  14.629  0.00  0.00    -0.019 A 
HETATM   29  C   UNK N   1      36.645  12.292  14.199  0.00  0.00     0.045 A 
HETATM   30  C   UNK N   1      36.311  11.886  15.492  0.00  0.00     0.159 A 
HETATM   31  O   UNK N   1      36.558  11.966  14.738  0.00  0.00    -0.372 OA
HETATM   32  C   UNK N   1      37.106  11.988  13.207  0.00  0.00     0.271 A 
HETATM   33  C   UNK N   1      37.421  12.027  12.303  0.00  0.00     0.241 A 
HETATM   34  O   UNK N   1      37.164  12.695  12.399  0.00  0.00    -0.271 OA
HETATM   35  N   UNK N   1      37.771  11.865  11.488  0.00  0.00    -0.358 N 
HETATM   36  C   UNK N   1      38.187  11.491  10.686  0.00  0.00     0.142 A 
HETATM   37  C   UNK N   1      38.349  11.220  10.486  0.00  0.00     0.135 A 
HETATM   38  N   UNK N   1      38.304  12.196   9.716  0.00  0.00    -0.419 N 
HETATM   39  C   UNK N   1      39.049  11.263   8.520  0.00  0.00     0.142 C 
HETATM   40  C   UNK N   1      38.326  13.030   8.891  0.00  0.00     0.142 C 
HETATM   41  C   UNK N   1      36.634  12.360  14.167  0.00  0.00     0.048 A 
HETATM   42  C   UNK N   1      37.211  10.936  13.882  0.00  0.00    -0.046 A 
HETATM   43  C   UNK N   1      37.114  11.008  14.086  0.00  0.00     0.006 A 
HETATM   44  C   UNK N   1      36.966  10.302  15.138  0.00  0.00     0.001 A 
HETATM   45  C   UNK N   1      37.312  10.216  14.264  0.00  0.00     0.006 A 
HETATM   46  C   UNK N   1      37.592   9.573  14.082  0.00  0.00    -0.043 A 
HETATM   47  C   UNK N   1      37.740  10.278  13.030  0.00  0.00     0.180 A 
HETATM   48  O   UNK N   1      38.143   9.647  12.496  0.00  0.00    -0.368 OA
HETATM   49  C   UNK N   1      38.529   8.939  12.081  0.00  0.00     0.271 A 
HETATM   50  C   UNK N   1      38.639   8.078  12.569  0.00  0.00     0.241 A 
HETATM   51  O   UNK N   1      38.316   8.269  13.282  0.00  0.00    -0.271 OA
HETATM   52  N   UNK N   1      39.017   7.977  11.621  0.00  0.00    -0.358 N 
HETATM   53  C   UNK N   1      37.807   8.977  14.038  0.00  0.00     0.078 A 
HETATM   54  H   UNK N   1      37.067  12.067  13.244  0.00  0.00     0.155 HD
HETATM   55  H   UNK N   1      37.607  12.762  11.118  0.00  0.00     0.162 HD
HETATM   56  H   UNK N   1      39.108   8.561  10.834  0.00  0.00     0.162 HD
ENDROOT
BRANCH   1  57
HETATM   57  N   UNK N   1      35.790   8.973  19.600  0.00  0.00    -0.358 N 
HETATM   58  C   UNK N   1      35.549   8.734  20.529  0.00  0.00     0.142 A 
HETATM   59  C   UNK N   1      35.651   8.228  20.788  0.00  0.00     0.135 A 
HETATM   60  N   UNK N   1      35.212   8.789  21.409  0.00  0.00    -0.419 N 
HETATM   61  C   UNK N   1      35.032   7.910  22.860  0.00  0.00     0.142 C 
HETATM   62  C   UNK N   1      34.639   9.688  22.040  0.00  0.00     0.142 C 
HETATM   63  H   UNK N   1      35.445   9.894  19.569  0.00  0.00     0.162 HD
ENDBRANCH   1  57
BRANCH  23  64
HETATM   64  C   UNK N   1      36.438  14.176  13.044  0.00  0.00     0.146 A 
HETATM   65  C   UNK N   1      36.209  14.935  12.596  0.00  0.00     0.290 A 
HETATM   66  N   UNK N   1      35.930  14.581  12.484  0.00  0.00     0.081 N 
HETATM   67  C   UNK N   1      35.295  15.830  11.533  0.00  0.00     0.309 A 
HETATM   68  C   UNK N   1      34.827  14.224  11.687  0.00  0.00     0.309 C 
ENDBRANCH  23  64
BRANCH  52  69
HETATM   69  C   UNK N   1      39.358   6.601  11.942  0.00  0.00     0.152 A 
HETATM   70  C   UNK N   1      39.480   5.780  12.204  0.00  0.00     0.290 A 
HETATM   71  N   UNK N   1      40.451   5.598  11.443  0.00  0.00     0.081 N 
HETATM   72  C   UNK N   1      39.955   4.388  12.417  0.00  0.00     0.309 A 
HETATM   73  C   UNK N   1      41.171   4.901  11.130  0.00  0.00     0.309 C 
ENDBRANCH  52  69
TORSDOF 5
ENDMDL
MODEL 8
REMARK VINA RESULT:     -13.0      1.855      7.662
REMARK  5 active torsions:
REMARK  status: ('A' for Active; 'I' for Inactive)
REMARK    1  A    between atoms: N_6  and  C_7 
REMARK    2  A    between atoms: N_29  and  C_30 
REMARK    3  A    between atoms: C_36  and  C_41 
REMARK    4  A    between atoms: C_53  and  C_58 
REMARK    5  A    between atoms: N_63  and  C_64 
ROOT
HETATM    1  C   UNK N   1      28.645  18.656   6.801  0.00  0.00     0.241 A 
HETATM    2  O   UNK N   1      29.160  18.631   7.570  0.00  0.00    -0.271 OA
HETATM    3  C   UNK N   1      29.118  17.888   6.459  0.00  0.00     0.278 A 
HETATM    4  O   UNK N   1      30.089  16.530   6.063  0.00  0.00    -0.345 OA
HETATM    5  C   UNK N   1      30.589  16.631   6.987  0.00  0.00     0.061 A 
HETATM    6  C   UNK N   1      31.187  16.291   7.442  0.00  0.00    -0.024 A 
HETATM    7  C   UNK N   1      31.782  16.166   8.193  0.00  0.00     0.010 A 
HETATM    8  C   UNK N   1      30.965  17.264   8.464  0.00  0.00    -0.003 A 
HETATM    9  C   UNK N   1      30.367  17.604   8.010  0.00  0.00    -0.015 A 
HETATM   10  C   UNK N   1      30.585  16.847   7.284  0.00  0.00     0.070 A 
HETATM   11  C   UNK N   1      29.590  17.591   6.779  0.00  0.00     0.056 A 
HETATM   12  C   UNK N   1      29.292  16.951   5.412  0.00  0.00    -0.023 A 
HETATM   13  C   UNK N   1      28.303  17.968   5.300  0.00  0.00     0.010 A 
HETATM   14  C   UNK N   1      27.849  17.982   4.611  0.00  0.00     0.001 A 
HETATM   15  C   UNK N   1      27.978  17.420   4.021  0.00  0.00     0.010 A 
HETATM   16  C   UNK N   1      28.560  16.844   4.120  0.00  0.00    -0.020 A 
HETATM   17  C   UNK N   1      29.420  16.389   4.822  0.00  0.00     0.081 A 
HETATM   18  O   UNK N   1      29.925  15.936   4.973  0.00  0.00    -0.346 OA
HETATM   19  C   UNK N   1      29.626  15.780   4.287  0.00  0.00     0.229 A 
HETATM   20  C   UNK N   1      29.857  14.810   3.281  0.00  0.00     0.237 A 
HETATM   21  O   UNK N   1      30.599  15.013   4.727  0.00  0.00    -0.375 OA
ATOM     22  HO  UNK N   1      30.754  14.363   4.053  1.00  0.00     0.212 HD
HETATM   23  N   UNK N   1      31.035  13.654   3.494  0.00  0.00    -0.394 N 
HETATM   24  C   UNK N   1      28.728  16.261   3.561  0.00  0.00     0.078 A 
HETATM   25  C   UNK N   1      29.241  15.474   3.255  0.00  0.00    -0.046 A 
HETATM   26  C   UNK N   1      29.054  15.157   2.517  0.00  0.00     0.005 A 
HETATM   27  C   UNK N   1      29.464  14.500   2.233  0.00  0.00    -0.003 A 
HETATM   28  C   UNK N   1      30.062  14.160   2.688  0.00  0.00    -0.019 A 
HETATM   29  C   UNK N   1      30.838  14.218   3.980  0.00  0.00     0.045 A 
HETATM   30  C   UNK N   1      30.022  15.317   4.251  0.00  0.00     0.159 A 
HETATM   31  O   UNK N   1      30.552  14.722   4.243  0.00  0.00    -0.372 OA
HETATM   32  C   UNK N   1      31.678  13.554   4.357  0.00  0.00     0.271 A 
HETATM   33  C   UNK N   1      32.334  12.857   4.401  0.00  0.00     0.241 A 
HETATM   34  O   UNK N   1      32.031  12.735   3.756  0.00  0.00    -0.271 OA
HETATM   35  N   UNK N   1      32.994  12.286   4.628  0.00  0.00    -0.358 N 
HETATM   36  C   UNK N   1      33.718  11.787   5.055  0.00  0.00     0.142 A 
HETATM   37  C   UNK N   1      33.960  11.714   5.330  0.00  0.00     0.135 A 
HETATM   38  N   UNK N   1      34.192  10.846   4.470  0.00  0.00    -0.419 N 
HETATM   39  C   UNK N   1      35.402  10.210   5.464  0.00  0.00     0.142 C 
HETATM   40  C   UNK N   1      34.513   9.978   3.750  0.00  0.00     0.142 C 
HETATM   41  C   UNK N   1      30.839  14.174   3.919  0.00  0.00     0.048 A 
HETATM   42  C   UNK N   1      31.544  14.372   5.298  0.00  0.00    -0.046 A 
HETATM   43  C   UNK N   1      31.367  14.507   5.212  0.00  0.00     0.006 A 
HETATM   44  C   UNK N   1      30.833  15.510   5.790  0.00  0.00     0.001 A 
HETATM   45  C   UNK N   1      31.510  14.872   5.949  0.00  0.00     0.006 A 
HETATM   46  C   UNK N   1      31.869  14.921   6.578  0.00  0.00    -0.043 A 
HETATM   47  C   UNK N   1      32.403  13.918   6.000  0.00  0.00     0.180 A 
HETATM   48  O   UNK N   1      33.018  13.697   6.648  0.00  0.00    -0.368 OA
HETATM   49  C   UNK N   1      33.571  13.588   7.358  0.00  0.00     0.271 A 
HETATM   50  C   UNK N   1      33.508  14.209   8.135  0.00  0.00     0.241 A 
HETATM   51  O   UNK N   1      32.913  14.695   7.889  0.00  0.00    -0.271 OA
HETATM   52  N   UNK N   1      34.245  13.520   8.315  0.00  0.00    -0.358 N 
HETATM   53  C   UNK N   1      32.108  15.062   7.149  0.00  0.00     0.078 A 
HETATM   54  H   UNK N   1      31.623  13.559   4.279  0.00  0.00     0.155 HD
HETATM   55  H   UNK N   1      32.957  11.744   3.806  0.00  0.00     0.162 HD
HETATM   56  H   UNK N   1      34.626  12.752   7.830  0.00  0.00     0.162 HD
ENDROOT
BRANCH   1  57
HETATM   57  N   UNK N   1      27.990  19.281   6.659  0.00  0.00    -0.358 N 
HETATM   58  C   UNK N   1      27.383  20.047   6.812  0.00  0.00     0.142 A 
HETATM   59  C   UNK N   1      27.364  20.376   7.286  0.00  0.00     0.135 A 
HETATM   60  N   UNK N   1      26.712  20.698   6.683  0.00  0.00    -0.419 N 
HETATM   61  C   UNK N   1      25.938  22.026   7.420  0.00  0.00     0.142 C 
HETATM   62  C   UNK N   1      25.938  20.937   5.746  0.00  0.00     0.142 C 
HETATM   63  H   UNK N   1      27.698  19.015   5.757  0.00  0.00     0.162 HD
ENDBRANCH   1  57
BRANCH  23  64
HETATM   64  C   UNK N   1      31.040  12.793   2.290  0.00  0.00     0.146 A 
HETATM   65  C   UNK N   1      30.966  12.185   1.617  0.00  0.00     0.290 A 
HETATM   66  N   UNK N   1      30.726  12.053   1.992  0.00  0.00     0.081 N 
HETATM   67  C   UNK N   1      30.422  10.774   0.924  0.00  0.00     0.309 A 
HETATM   68  C   UNK N   1      29.900  11.035   2.500  0.00  0.00     0.309 C 
ENDBRANCH  23  64
BRANCH  52  69
HETATM   69  C   UNK N   1      34.485  14.164   9.596  0.00  0.00     0.152 A 
HETATM   70  C   UNK N   1      34.597  14.641  10.315  0.00  0.00     0.290 A 
HETATM   71  N   UNK N   1      34.982  13.669  10.995  0.00  0.00     0.081 N 
HETATM   72  C   UNK N   1      34.889  15.145  11.683  0.00  0.00     0.309 A 
HETATM   73  C   UNK N   1      35.312  13.371  11.946  0.00  0.00     0.309 C 
ENDBRANCH  52  69
TORSDOF 5
ENDMDL
MODEL 9
REMARK VINA RESULT:     -12.9      5.021      9.455
REMARK  5 active torsions:
REMARK  status: ('A' for Active; 'I' for Inactive)
REMARK    1  A    between atoms: N_6  and  C_7 
REMARK    2  A    between atoms: N_29  and  C_30 
REMARK    3  A    between atoms: C_36  and  C_41 
REMARK    4  A    between atoms: C_53  and  C_58 
REMARK    5  A    between atoms: N_63  and  C_64 
ROOT
HETATM    1  C   UNK N   1      33.695  14.218   7.357  0.00  0.00     0.241 A 
HETATM    2  O   UNK N   1      33.460  13.380   7.038  0.00  0.00    -0.271 OA
HETATM    3  C   UNK N   1      33.946  13.825   8.202  0.00  0.00     0.278 A 
HETATM    4  O   UNK N   1      34.324  12.907   9.602  0.00  0.00    -0.345 OA
HETATM    5  C   UNK N   1      34.017  12.031   9.099  0.00  0.00     0.061 A 
HETATM    6  C   UNK N   1      33.939  11.217   9.203  0.00  0.00    -0.024 A 
HETATM    7  C   UNK N   1      33.728  10.301   8.982  0.00  0.00     0.010 A 
HETATM    8  C   UNK N   1      33.438  11.094   7.871  0.00  0.00    -0.003 A 
HETATM    9  C   UNK N   1      33.516  11.908   7.767  0.00  0.00    -0.015 A 
HETATM   10  C   UNK N   1      33.884  11.930   8.773  0.00  0.00     0.070 A 
HETATM   11  C   UNK N   1      33.902  13.195   8.327  0.00  0.00     0.056 A 
HETATM   12  C   UNK N   1      34.449  14.009   9.513  0.00  0.00    -0.023 A 
HETATM   13  C   UNK N   1      34.293  15.127   8.646  0.00  0.00     0.010 A 
HETATM   14  C   UNK N   1      34.505  15.867   8.940  0.00  0.00     0.001 A 
HETATM   15  C   UNK N   1      34.794  15.938   9.709  0.00  0.00     0.010 A 
HETATM   16  C   UNK N   1      34.872  15.268  10.185  0.00  0.00    -0.020 A 
HETATM   17  C   UNK N   1      34.738  14.080  10.282  0.00  0.00     0.081 A 
HETATM   18  O   UNK N   1      34.776  13.475  10.623  0.00  0.00    -0.346 OA
HETATM   19  C   UNK N   1      35.019  14.046  11.068  0.00  0.00     0.229 A 
HETATM   20  C   UNK N   1      35.515  14.155  12.392  0.00  0.00     0.237 A 
HETATM   21  O   UNK N   1      35.025  12.829  11.564  0.00  0.00    -0.375 OA
ATOM     22  HO  UNK N   1      35.358  12.901  12.450  1.00  0.00     0.212 HD
HETATM   23  N   UNK N   1      35.665  12.794  13.338  0.00  0.00    -0.394 N 
HETATM   24  C   UNK N   1      35.155  15.285  10.959  0.00  0.00     0.078 A 
HETATM   25  C   UNK N   1      35.398  14.835  11.804  0.00  0.00    -0.046 A 
HETATM   26  C   UNK N   1      35.688  15.303  12.419  0.00  0.00     0.005 A 
HETATM   27  C   UNK N   1      35.899  14.957  13.137  0.00  0.00    -0.003 A 
HETATM   28  C   UNK N   1      35.821  14.143  13.241  0.00  0.00    -0.019 A 
HETATM   29  C   UNK N   1      35.407  12.836  12.613  0.00  0.00     0.045 A 
HETATM   30  C   UNK N   1      35.117  13.628  11.502  0.00  0.00     0.159 A 
HETATM   31  O   UNK N   1      35.231  13.053  12.042  0.00  0.00    -0.372 OA
HETATM   32  C   UNK N   1      35.414  11.785  13.043  0.00  0.00     0.271 A 
HETATM   33  C   UNK N   1      35.531  11.054  13.652  0.00  0.00     0.241 A 
HETATM   34  O   UNK N   1      35.755  11.615  14.049  0.00  0.00    -0.271 OA
HETATM   35  N   UNK N   1      35.568  10.253  14.066  0.00  0.00    -0.358 N 
HETATM   36  C   UNK N   1      35.528   9.312  14.325  0.00  0.00     0.142 A 
HETATM   37  C   UNK N   1      35.456   8.950  14.268  0.00  0.00     0.135 A 
HETATM   38  N   UNK N   1      35.887   9.005  15.434  0.00  0.00    -0.419 N 
HETATM   39  C   UNK N   1      35.696   7.331  15.564  0.00  0.00     0.142 C 
HETATM   40  C   UNK N   1      36.274   8.912  16.537  0.00  0.00     0.142 C 
HETATM   41  C   UNK N   1      35.435  12.857  12.681  0.00  0.00     0.048 A 
HETATM   42  C   UNK N   1      34.967  11.595  11.887  0.00  0.00    -0.046 A 
HETATM   43  C   UNK N   1      34.969  11.818  11.804  0.00  0.00     0.006 A 
HETATM   44  C   UNK N   1      34.601  12.194  10.643  0.00  0.00     0.001 A 
HETATM   45  C   UNK N   1      34.671  11.399  11.147  0.00  0.00     0.006 A 
HETATM   46  C   UNK N   1      34.465  10.783  10.823  0.00  0.00    -0.043 A 
HETATM   47  C   UNK N   1      34.834  10.407  11.984  0.00  0.00     0.180 A 
HETATM   48  O   UNK N   1      34.673   9.506  11.895  0.00  0.00    -0.368 OA
HETATM   49  C   UNK N   1      34.472   8.649  11.676  0.00  0.00     0.271 A 
HETATM   50  C   UNK N   1      34.113   8.440  10.771  0.00  0.00     0.241 A 
HETATM   51  O   UNK N   1      34.099   9.176  10.443  0.00  0.00    -0.271 OA
HETATM   52  N   UNK N   1      34.186   7.572  11.311  0.00  0.00    -0.358 N 
HETATM   53  C   UNK N   1      34.261  10.319  10.442  0.00  0.00     0.078 A 
HETATM   54  H   UNK N   1      35.438  11.873  13.074  0.00  0.00     0.155 HD
HETATM   55  H   UNK N   1      35.925  10.588  14.920  0.00  0.00     0.162 HD
HETATM   56  H   UNK N   1      34.481   7.331  12.219  0.00  0.00     0.162 HD
ENDROOT
BRANCH   1  57
HETATM   57  N   UNK N   1      33.623  14.982   6.858  0.00  0.00    -0.358 N 
HETATM   58  C   UNK N   1      33.475  15.578   6.082  0.00  0.00     0.142 A 
HETATM   59  C   UNK N   1      33.340  15.412   5.546  0.00  0.00     0.135 A 
HETATM   60  N   UNK N   1      33.396  16.355   5.552  0.00  0.00    -0.419 N 
HETATM   61  C   UNK N   1      33.058  16.903   3.973  0.00  0.00     0.142 C 
HETATM   62  C   UNK N   1      33.525  17.562   5.799  0.00  0.00     0.142 C 
HETATM   63  H   UNK N   1      33.824  15.653   7.549  0.00  0.00     0.162 HD
ENDBRANCH   1  57
BRANCH  23  64
HETATM   64  C   UNK N   1      36.202  13.220  14.650  0.00  0.00     0.146 A 
HETATM   65  C   UNK N   1      36.411  13.472  15.500  0.00  0.00     0.290 A 
HETATM   66  N   UNK N   1      35.957  13.385  15.455  0.00  0.00     0.081 N 
HETATM   67  C   UNK N   1      36.063  13.822  17.088  0.00  0.00     0.309 A 
HETATM   68  C   UNK N   1      34.740  13.364  16.159  0.00  0.00     0.309 C 
ENDBRANCH  23  64
BRANCH  52  69
HETATM   69  C   UNK N   1      33.666   6.853  10.161  0.00  0.00     0.152 A 
HETATM   70  C   UNK N   1      33.409   6.492   9.411  0.00  0.00     0.290 A 
HETATM   71  N   UNK N   1      32.727   5.614   9.975  0.00  0.00     0.081 N 
HETATM   72  C   UNK N   1      32.797   5.655   8.347  0.00  0.00     0.309 A 
HETATM   73  C   UNK N   1      32.101   4.787   9.816  0.00  0.00     0.309 C 
ENDBRANCH  52  69
TORSDOF 5
ENDMDL
