MODEL 1
REMARK VINA RESULT:      -4.8      0.000      0.000
REMARK  0 active torsions:
REMARK  status: ('A' for Active; 'I' for Inactive)
ROOT
HETATM    1  C   UNK N   1      32.669  16.693   7.725  0.00  0.00     0.056 A 
HETATM    2  C   UNK N   1      33.450  18.006   7.350  0.00  0.00     0.107 A 
HETATM    3  C   UNK N   1      34.497  18.113   8.427  0.00  0.00     0.222 A 
HETATM    4  O   UNK N   1      35.326  19.005   8.508  0.00  0.00    -0.273 OA
HETATM    5  N   UNK N   1      34.421  17.116   9.293  0.00  0.00    -0.322 N 
HETATM    6  C   UNK N   1      33.396  16.235   8.982  0.00  0.00     0.190 A 
HETATM    7  N   UNK N   1      33.404  15.211   9.970  0.00  0.00    -0.338 N 
HETATM    8  C   UNK N   1      34.410  15.500  10.826  0.00  0.00     0.237 A 
HETATM    9  O   UNK N   1      34.673  14.800  11.790  0.00  0.00    -0.272 OA
HETATM   10  C   UNK N   1      35.167  16.763  10.472  0.00  0.00     0.230 A 
HETATM   11  H   UNK N   1      32.794  14.440  10.020  0.00  0.00     0.164 HD
ENDROOT
TORSDOF 0
ENDMDL
MODEL 2
REMARK VINA RESULT:      -4.7     11.619     12.625
REMARK  0 active torsions:
REMARK  status: ('A' for Active; 'I' for Inactive)
ROOT
HETATM    1  C   UNK N   1      23.274  11.724  11.618  0.00  0.00     0.056 A 
HETATM    2  C   UNK N   1      24.602  12.079  10.854  0.00  0.00     0.107 A 
HETATM    3  C   UNK N   1      24.148  13.033   9.782  0.00  0.00     0.222 A 
HETATM    4  O   UNK N   1      24.881  13.555   8.956  0.00  0.00    -0.273 OA
HETATM    5  N   UNK N   1      22.844  13.250   9.830  0.00  0.00    -0.322 N 
HETATM    6  C   UNK N   1      22.238  12.541  10.857  0.00  0.00     0.190 A 
HETATM    7  N   UNK N   1      20.849  12.845  10.819  0.00  0.00    -0.338 N 
HETATM    8  C   UNK N   1      20.664  13.708   9.794  0.00  0.00     0.237 A 
HETATM    9  O   UNK N   1      19.568  14.157   9.504  0.00  0.00    -0.272 OA
HETATM   10  C   UNK N   1      21.939  14.055   9.053  0.00  0.00     0.230 A 
HETATM   11  H   UNK N   1      20.155  12.494  11.422  0.00  0.00     0.164 HD
ENDROOT
TORSDOF 0
ENDMDL
MODEL 3
REMARK VINA RESULT:      -4.6     14.533     15.606
REMARK  0 active torsions:
REMARK  status: ('A' for Active; 'I' for Inactive)
ROOT
HETATM    1  C   UNK N   1      20.051  17.033   2.799  0.00  0.00     0.056 A 
HETATM    2  C   UNK N   1      20.372  17.376   4.300  0.00  0.00     0.107 A 
HETATM    3  C   UNK N   1      20.844  18.804   4.242  0.00  0.00     0.222 A 
HETATM    4  O   UNK N   1      21.198  19.462   5.207  0.00  0.00    -0.273 OA
HETATM    5  N   UNK N   1      20.835  19.280   3.007  0.00  0.00    -0.322 N 
HETATM    6  C   UNK N   1      20.392  18.337   2.091  0.00  0.00     0.190 A 
HETATM    7  N   UNK N   1      20.422  18.949   0.807  0.00  0.00    -0.338 N 
HETATM    8  C   UNK N   1      20.871  20.212   0.984  0.00  0.00     0.237 A 
HETATM    9  O   UNK N   1      21.008  20.995   0.059  0.00  0.00    -0.272 OA
HETATM   10  C   UNK N   1      21.183  20.550   2.428  0.00  0.00     0.230 A 
HETATM   11  H   UNK N   1      20.165  18.532  -0.047  0.00  0.00     0.164 HD
ENDROOT
TORSDOF 0
ENDMDL
MODEL 4
REMARK VINA RESULT:      -4.6     10.876     11.851
REMARK  0 active torsions:
REMARK  status: ('A' for Active; 'I' for Inactive)
ROOT
HETATM    1  C   UNK N   1      24.675  13.044   8.484  0.00  0.00     0.056 A 
HETATM    2  C   UNK N   1      23.302  13.034   7.716  0.00  0.00     0.107 A 
HETATM    3  C   UNK N   1      22.304  12.667   8.782  0.00  0.00     0.222 A 
HETATM    4  O   UNK N   1      21.103  12.549   8.602  0.00  0.00    -0.273 OA
HETATM    5  N   UNK N   1      22.881  12.482   9.958  0.00  0.00    -0.322 N 
HETATM    6  C   UNK N   1      24.253  12.675   9.900  0.00  0.00     0.190 A 
HETATM    7  N   UNK N   1      24.767  12.453  11.208  0.00  0.00    -0.338 N 
HETATM    8  C   UNK N   1      23.714  12.140  11.996  0.00  0.00     0.237 A 
HETATM    9  O   UNK N   1      23.834  11.892  13.184  0.00  0.00    -0.272 OA
HETATM   10  C   UNK N   1      22.388  12.128  11.263  0.00  0.00     0.230 A 
HETATM   11  H   UNK N   1      25.710  12.515  11.485  0.00  0.00     0.164 HD
ENDROOT
TORSDOF 0
ENDMDL
MODEL 5
REMARK VINA RESULT:      -4.5     11.583     12.786
REMARK  0 active torsions:
REMARK  status: ('A' for Active; 'I' for Inactive)
ROOT
HETATM    1  C   UNK N   1      24.601  12.849   9.504  0.00  0.00     0.056 A 
HETATM    2  C   UNK N   1      24.692  12.146  10.908  0.00  0.00     0.107 A 
HETATM    3  C   UNK N   1      23.275  12.188  11.416  0.00  0.00     0.222 A 
HETATM    4  O   UNK N   1      22.905  11.740  12.489  0.00  0.00    -0.273 OA
HETATM    5  N   UNK N   1      22.458  12.775  10.557  0.00  0.00    -0.322 N 
HETATM    6  C   UNK N   1      23.121  13.197   9.414  0.00  0.00     0.190 A 
HETATM    7  N   UNK N   1      22.157  13.809   8.566  0.00  0.00    -0.338 N 
HETATM    8  C   UNK N   1      20.968  13.739   9.209  0.00  0.00     0.237 A 
HETATM    9  O   UNK N   1      19.938  14.183   8.732  0.00  0.00    -0.272 OA
HETATM   10  C   UNK N   1      21.048  13.062  10.562  0.00  0.00     0.230 A 
HETATM   11  H   UNK N   1      22.322  14.207   7.681  0.00  0.00     0.164 HD
ENDROOT
TORSDOF 0
ENDMDL
MODEL 6
REMARK VINA RESULT:      -4.5     10.567     11.890
REMARK  0 active torsions:
REMARK  status: ('A' for Active; 'I' for Inactive)
ROOT
HETATM    1  C   UNK N   1      40.361  21.965   1.340  0.00  0.00     0.056 A 
HETATM    2  C   UNK N   1      40.213  20.473   1.817  0.00  0.00     0.107 A 
HETATM    3  C   UNK N   1      41.351  20.298   2.786  0.00  0.00     0.222 A 
HETATM    4  O   UNK N   1      41.599  19.267   3.392  0.00  0.00    -0.273 OA
HETATM    5  N   UNK N   1      42.069  21.402   2.913  0.00  0.00    -0.322 N 
HETATM    6  C   UNK N   1      41.583  22.430   2.120  0.00  0.00     0.190 A 
HETATM    7  N   UNK N   1      42.422  23.560   2.332  0.00  0.00    -0.338 N 
HETATM    8  C   UNK N   1      43.365  23.186   3.226  0.00  0.00     0.237 A 
HETATM    9  O   UNK N   1      44.239  23.944   3.614  0.00  0.00    -0.272 OA
HETATM   10  C   UNK N   1      43.229  21.751   3.690  0.00  0.00     0.230 A 
HETATM   11  H   UNK N   1      42.332  24.444   1.909  0.00  0.00     0.164 HD
ENDROOT
TORSDOF 0
ENDMDL
MODEL 7
REMARK VINA RESULT:      -4.4      6.563      7.070
REMARK  0 active torsions:
REMARK  status: ('A' for Active; 'I' for Inactive)
ROOT
HETATM    1  C   UNK N   1      27.555  20.646   6.276  0.00  0.00     0.056 A 
HETATM    2  C   UNK N   1      27.986  20.041   4.889  0.00  0.00     0.107 A 
HETATM    3  C   UNK N   1      28.349  18.618   5.223  0.00  0.00     0.222 A 
HETATM    4  O   UNK N   1      28.742  17.791   4.416  0.00  0.00    -0.273 OA
HETATM    5  N   UNK N   1      28.194  18.356   6.510  0.00  0.00    -0.322 N 
HETATM    6  C   UNK N   1      27.737  19.460   7.214  0.00  0.00     0.190 A 
HETATM    7  N   UNK N   1      27.606  19.070   8.576  0.00  0.00    -0.338 N 
HETATM    8  C   UNK N   1      27.979  17.772   8.649  0.00  0.00     0.237 A 
HETATM    9  O   UNK N   1      27.975  17.147   9.697  0.00  0.00    -0.272 OA
HETATM   10  C   UNK N   1      28.397  17.182   7.318  0.00  0.00     0.230 A 
HETATM   11  H   UNK N   1      27.302  19.636   9.321  0.00  0.00     0.164 HD
ENDROOT
TORSDOF 0
ENDMDL
MODEL 8
REMARK VINA RESULT:      -4.3      1.948      2.225
REMARK  0 active torsions:
REMARK  status: ('A' for Active; 'I' for Inactive)
ROOT
HETATM    1  C   UNK N   1      33.964  18.266   8.071  0.00  0.00     0.056 A 
HETATM    2  C   UNK N   1      33.951  17.378   6.773  0.00  0.00     0.107 A 
HETATM    3  C   UNK N   1      34.567  16.082   7.227  0.00  0.00     0.222 A 
HETATM    4  O   UNK N   1      34.745  15.107   6.515  0.00  0.00    -0.273 OA
HETATM    5  N   UNK N   1      34.902  16.113   8.507  0.00  0.00    -0.322 N 
HETATM    6  C   UNK N   1      34.596  17.332   9.094  0.00  0.00     0.190 A 
HETATM    7  N   UNK N   1      34.994  17.256  10.458  0.00  0.00    -0.338 N 
HETATM    8  C   UNK N   1      35.515  16.022  10.647  0.00  0.00     0.237 A 
HETATM    9  O   UNK N   1      35.948  15.651  11.725  0.00  0.00    -0.272 OA
HETATM   10  C   UNK N   1      35.506  15.161   9.401  0.00  0.00     0.230 A 
HETATM   11  H   UNK N   1      34.907  17.966  11.134  0.00  0.00     0.164 HD
ENDROOT
TORSDOF 0
ENDMDL
MODEL 9
REMARK VINA RESULT:      -4.3     14.103     15.603
REMARK  0 active torsions:
REMARK  status: ('A' for Active; 'I' for Inactive)
ROOT
HETATM    1  C   UNK N   1      29.031  25.727  -4.657  0.00  0.00     0.056 A 
HETATM    2  C   UNK N   1      27.490  25.551  -4.393  0.00  0.00     0.107 A 
HETATM    3  C   UNK N   1      27.428  24.401  -3.424  0.00  0.00     0.222 A 
HETATM    4  O   UNK N   1      26.400  23.937  -2.957  0.00  0.00    -0.273 OA
HETATM    5  N   UNK N   1      28.631  23.937  -3.127  0.00  0.00    -0.322 N 
HETATM    6  C   UNK N   1      29.633  24.633  -3.786  0.00  0.00     0.190 A 
HETATM    7  N   UNK N   1      30.875  24.057  -3.397  0.00  0.00    -0.338 N 
HETATM    8  C   UNK N   1      30.589  23.054  -2.535  0.00  0.00     0.237 A 
HETATM    9  O   UNK N   1      31.454  22.364  -2.023  0.00  0.00    -0.272 OA
HETATM   10  C   UNK N   1      29.107  22.879  -2.276  0.00  0.00     0.230 A 
HETATM   11  H   UNK N   1      31.769  24.335  -3.698  0.00  0.00     0.164 HD
ENDROOT
TORSDOF 0
ENDMDL
