REMARK  3 active torsions:
REMARK  status: ('A' for Active; 'I' for Inactive)
REMARK    1  A    between atoms: C_12  and  C_7 
REMARK    2  A    between atoms: C_15  and  C_7 
REMARK    3  A    between atoms: N_21  and  C_15 
ROOT
HETATM    1  C   UNK N   1       7.530   1.049  -0.211  0.00  0.00     0.001 A 
HETATM    2  C   UNK N   1      -0.379   0.647  -0.043  0.00  0.00     0.001 A 
HETATM    3  C   UNK N   1       7.416  -0.334  -0.279  0.00  0.00     0.001 A 
HETATM    4  C   UNK N   1      -0.139  -0.649   0.395  0.00  0.00     0.001 A 
HETATM    5  C   UNK N   1       6.398   1.822   0.026  0.00  0.00     0.008 A 
HETATM    6  C   UNK N   1       0.690   1.469  -0.386  0.00  0.00     0.008 A 
HETATM    7  C   UNK N   1       6.171  -0.939  -0.107  0.00  0.00     0.013 A 
HETATM    8  C   UNK N   1       1.169  -1.116   0.499  0.00  0.00     0.013 A 
HETATM    9  C   UNK N   1       3.663  -2.244   0.672  0.00  0.00    -0.011 C 
HETATM   10  C   UNK N   1       4.007   2.130   0.447  0.00  0.00     0.044 C 
HETATM   11  C   UNK N   1       3.064   1.960  -0.700  0.00  0.00     0.044 C 
HETATM   12  C   UNK N   1       5.143   1.225   0.191  0.00  0.00    -0.047 A 
HETATM   13  C   UNK N   1       2.010   1.012  -0.291  0.00  0.00    -0.047 A 
HETATM   14  C   UNK N   1       5.000  -0.190   0.127  0.00  0.00    -0.019 A 
HETATM   15  C   UNK N   1       2.284  -0.307   0.172  0.00  0.00    -0.019 A 
HETATM   16  C   UNK N   1       3.671  -0.928   0.320  0.00  0.00    -0.018 C 
ENDROOT
BRANCH   9  17
HETATM   17  C   UNK N   1       4.823  -3.155   0.916  0.00  0.00     0.064 C 
BRANCH  17  18
HETATM   18  C   UNK N   1       4.589  -4.443   0.121  0.00  0.00     0.314 C 
BRANCH  18  19
HETATM   19  N   UNK N   1       5.798  -5.130  -0.297  0.00  0.00     0.005 N 
HETATM   20  C   UNK N   1       6.565  -5.478   0.872  0.00  0.00     0.355 C 
HETATM   21  C   UNK N   1       6.592  -4.225  -1.088  0.00  0.00     0.355 C 
HETATM   22  O   UNK N   1       5.524  -6.107  -0.925  0.00  0.00    -0.065 OA
ENDBRANCH  18  19
ENDBRANCH  17  18
ENDBRANCH   9  17
TORSDOF 3
