MODEL 1
REMARK VINA RESULT:      -3.3      0.000      0.000
REMARK  1 active torsions:
REMARK  status: ('A' for Active; 'I' for Inactive)
REMARK    1  A    between atoms: C_2  and  C_1 
ROOT
HETATM    1  C   UNK N   1      23.107  11.907  12.117  0.00  0.00     0.412 C 
HETATM    2  F   UNK N   1      23.266  11.798  13.486  0.00  0.00    -0.168 F 
HETATM    3  F   UNK N   1      21.759  11.925  12.414  0.00  0.00    -0.168 F 
HETATM    4  F   UNK N   1      24.482  11.878  11.939  0.00  0.00    -0.168 F 
ENDROOT
BRANCH   1   5
HETATM    5  C   UNK N   1      22.686  12.031  10.643  0.00  0.00     0.339 C 
HETATM    6  F   UNK N   1      22.975  10.939   9.837  0.00  0.00    -0.246 F 
ENDBRANCH   1   5
TORSDOF 1
ENDMDL
MODEL 2
REMARK VINA RESULT:      -3.3      1.175      1.981
REMARK  1 active torsions:
REMARK  status: ('A' for Active; 'I' for Inactive)
REMARK    1  A    between atoms: C_2  and  C_1 
ROOT
HETATM    1  C   UNK N   1      22.875  11.976  12.088  0.00  0.00     0.412 C 
HETATM    2  F   UNK N   1      23.038  11.598  13.408  0.00  0.00    -0.168 F 
HETATM    3  F   UNK N   1      24.255  11.966  12.058  0.00  0.00    -0.168 F 
HETATM    4  F   UNK N   1      21.497  11.954  12.235  0.00  0.00    -0.168 F 
ENDROOT
BRANCH   1   5
HETATM    5  C   UNK N   1      22.942  12.397  10.611  0.00  0.00     0.339 C 
HETATM    6  F   UNK N   1      22.386  13.632  10.306  0.00  0.00    -0.246 F 
ENDBRANCH   1   5
TORSDOF 1
ENDMDL
MODEL 3
REMARK VINA RESULT:      -3.1      1.004      1.847
REMARK  1 active torsions:
REMARK  status: ('A' for Active; 'I' for Inactive)
REMARK    1  A    between atoms: C_2  and  C_1 
ROOT
HETATM    1  C   UNK N   1      23.024  12.000  11.475  0.00  0.00     0.412 C 
HETATM    2  F   UNK N   1      24.249  11.795  12.082  0.00  0.00    -0.168 F 
HETATM    3  F   UNK N   1      22.527  11.915  12.759  0.00  0.00    -0.168 F 
HETATM    4  F   UNK N   1      23.634  12.068  10.231  0.00  0.00    -0.168 F 
ENDROOT
BRANCH   1   5
HETATM    5  C   UNK N   1      21.568  12.213  11.028  0.00  0.00     0.339 C 
HETATM    6  F   UNK N   1      20.597  11.951  11.984  0.00  0.00    -0.246 F 
ENDBRANCH   1   5
TORSDOF 1
ENDMDL
MODEL 4
REMARK VINA RESULT:      -3.1      1.348      2.960
REMARK  1 active torsions:
REMARK  status: ('A' for Active; 'I' for Inactive)
REMARK    1  A    between atoms: C_2  and  C_1 
ROOT
HETATM    1  C   UNK N   1      22.021  12.351  11.147  0.00  0.00     0.412 C 
HETATM    2  F   UNK N   1      21.088  12.807  10.235  0.00  0.00    -0.168 F 
HETATM    3  F   UNK N   1      22.939  12.712  10.181  0.00  0.00    -0.168 F 
HETATM    4  F   UNK N   1      21.013  12.026  12.041  0.00  0.00    -0.168 F 
ENDROOT
BRANCH   1   5
HETATM    5  C   UNK N   1      23.228  11.907  11.990  0.00  0.00     0.339 C 
HETATM    6  F   UNK N   1      22.973  11.664  13.332  0.00  0.00    -0.246 F 
ENDBRANCH   1   5
TORSDOF 1
ENDMDL
MODEL 5
REMARK VINA RESULT:      -2.9     21.768     22.682
REMARK  1 active torsions:
REMARK  status: ('A' for Active; 'I' for Inactive)
REMARK    1  A    between atoms: C_2  and  C_1 
ROOT
HETATM    1  C   UNK N   1      25.067  26.966  -5.112  0.00  0.00     0.412 C 
HETATM    2  F   UNK N   1      24.035  27.475  -5.878  0.00  0.00    -0.168 F 
HETATM    3  F   UNK N   1      25.046  28.205  -4.505  0.00  0.00    -0.168 F 
HETATM    4  F   UNK N   1      24.997  25.759  -5.792  0.00  0.00    -0.168 F 
ENDROOT
BRANCH   1   5
HETATM    5  C   UNK N   1      26.214  26.620  -4.148  0.00  0.00     0.339 C 
HETATM    6  F   UNK N   1      25.994  26.921  -2.811  0.00  0.00    -0.246 F 
ENDBRANCH   1   5
TORSDOF 1
ENDMDL
MODEL 6
REMARK VINA RESULT:      -2.9     21.754     22.526
REMARK  1 active torsions:
REMARK  status: ('A' for Active; 'I' for Inactive)
REMARK    1  A    between atoms: C_2  and  C_1 
ROOT
HETATM    1  C   UNK N   1      25.673  27.327  -4.021  0.00  0.00     0.412 C 
HETATM    2  F   UNK N   1      26.108  27.354  -2.709  0.00  0.00    -0.168 F 
HETATM    3  F   UNK N   1      25.940  25.975  -3.938  0.00  0.00    -0.168 F 
HETATM    4  F   UNK N   1      25.441  28.694  -3.989  0.00  0.00    -0.168 F 
ENDROOT
BRANCH   1   5
HETATM    5  C   UNK N   1      25.236  27.054  -5.470  0.00  0.00     0.339 C 
HETATM    6  F   UNK N   1      23.928  27.396  -5.783  0.00  0.00    -0.246 F 
ENDBRANCH   1   5
TORSDOF 1
ENDMDL
MODEL 7
REMARK VINA RESULT:      -2.9     12.835     13.863
REMARK  1 active torsions:
REMARK  status: ('A' for Active; 'I' for Inactive)
REMARK    1  A    between atoms: C_2  and  C_1 
ROOT
HETATM    1  C   UNK N   1      35.607  14.203  17.688  0.00  0.00     0.412 C 
HETATM    2  F   UNK N   1      36.277  15.353  18.061  0.00  0.00    -0.168 F 
HETATM    3  F   UNK N   1      36.339  14.318  16.524  0.00  0.00    -0.168 F 
HETATM    4  F   UNK N   1      34.926  14.188  18.897  0.00  0.00    -0.168 F 
ENDROOT
BRANCH   1   5
HETATM    5  C   UNK N   1      34.991  12.941  17.062  0.00  0.00     0.339 C 
HETATM    6  F   UNK N   1      34.035  13.156  16.079  0.00  0.00    -0.246 F 
ENDBRANCH   1   5
TORSDOF 1
ENDMDL
MODEL 8
REMARK VINA RESULT:      -2.8      1.654      2.675
REMARK  1 active torsions:
REMARK  status: ('A' for Active; 'I' for Inactive)
REMARK    1  A    between atoms: C_2  and  C_1 
ROOT
HETATM    1  C   UNK N   1      23.826  12.555  10.777  0.00  0.00     0.412 C 
HETATM    2  F   UNK N   1      24.330  13.274   9.709  0.00  0.00    -0.168 F 
HETATM    3  F   UNK N   1      22.686  13.305  10.566  0.00  0.00    -0.168 F 
HETATM    4  F   UNK N   1      25.022  11.862  10.895  0.00  0.00    -0.168 F 
ENDROOT
BRANCH   1   5
HETATM    5  C   UNK N   1      23.059  11.889  11.930  0.00  0.00     0.339 C 
HETATM    6  F   UNK N   1      23.499  12.197  13.210  0.00  0.00    -0.246 F 
ENDBRANCH   1   5
TORSDOF 1
ENDMDL
MODEL 9
REMARK VINA RESULT:      -2.8     22.890     23.699
REMARK  1 active torsions:
REMARK  status: ('A' for Active; 'I' for Inactive)
REMARK    1  A    between atoms: C_2  and  C_1 
ROOT
HETATM    1  C   UNK N   1      25.444  27.379  -5.769  0.00  0.00     0.412 C 
HETATM    2  F   UNK N   1      25.257  26.849  -7.032  0.00  0.00    -0.168 F 
HETATM    3  F   UNK N   1      24.281  26.702  -5.461  0.00  0.00    -0.168 F 
HETATM    4  F   UNK N   1      26.602  28.016  -6.190  0.00  0.00    -0.168 F 
ENDROOT
BRANCH   1   5
HETATM    5  C   UNK N   1      25.444  27.849  -4.304  0.00  0.00     0.339 C 
HETATM    6  F   UNK N   1      25.772  29.181  -4.095  0.00  0.00    -0.246 F 
ENDBRANCH   1   5
TORSDOF 1
ENDMDL
