MODEL 1
REMARK VINA RESULT:      -8.5      0.000      0.000
REMARK  7 active torsions:
REMARK  status: ('A' for Active; 'I' for Inactive)
REMARK    1  A    between atoms: N_15  and  C_16 
REMARK    2  A    between atoms: C_25  and  O_38 
REMARK    3  A    between atoms: C_28  and  C_29 
REMARK    4  A    between atoms: C_28  and  O_36 
REMARK    5  A    between atoms: C_29  and  C_31 
REMARK    6  A    between atoms: C_31  and  O_32 
REMARK    7  A    between atoms: O_32  and  C_33 
ROOT
HETATM    1  C   UNK N   1      34.654  17.100   9.553  0.00  0.00     0.013 C 
HETATM    2  C   UNK N   1      33.559  16.684   8.585  0.00  0.00     0.025 C 
HETATM    3  C   UNK N   1      32.368  17.635   8.619  0.00  0.00     0.014 C 
HETATM    4  C   UNK N   1      31.745  17.556   7.216  0.00  0.00     0.006 C 
HETATM    5  C   UNK N   1      30.267  17.155   7.370  0.00  0.00     0.021 C 
HETATM    6  C   UNK N   1      29.399  18.365   7.652  0.00  0.00    -0.014 C 
HETATM    7  C   UNK N   1      28.334  18.687   6.900  0.00  0.00    -0.058 C 
HETATM    8  C   UNK N   1      27.978  17.844   5.728  0.00  0.00    -0.041 A 
HETATM    9  C   UNK N   1      26.690  17.768   5.359  0.00  0.00     0.040 A 
HETATM   10  C   UNK N   1      26.281  16.789   4.358  0.00  0.00     0.065 A 
HETATM   11  C   UNK N   1      27.157  15.974   3.733  0.00  0.00    -0.011 A 
HETATM   12  C   UNK N   1      26.405  15.124   2.947  0.00  0.00     0.117 A 
HETATM   13  N   UNK N   1      25.101  15.441   3.134  0.00  0.00    -0.304 N 
ATOM     14  HN  UNK N   1      24.306  14.979   2.694  1.00  0.00     0.186 HD
HETATM   15  N   UNK N   1      25.034  16.456   3.990  0.00  0.00    -0.257 N 
HETATM   16  C   UNK N   1      28.619  16.014   3.953  0.00  0.00     0.057 A 
HETATM   17  C   UNK N   1      29.078  16.983   5.081  0.00  0.00    -0.006 A 
HETATM   18  C   UNK N   1      29.722  16.216   6.261  0.00  0.00     0.035 C 
HETATM   19  C   UNK N   1      30.646  14.982   6.039  0.00  0.00     0.124 C 
HETATM   20  C   UNK N   1      32.057  15.129   6.604  0.00  0.00     0.045 C 
HETATM   21  C   UNK N   1      32.621  16.552   6.430  0.00  0.00     0.001 C 
HETATM   22  C   UNK N   1      33.984  16.685   7.119  0.00  0.00     0.131 C 
HETATM   23  C   UNK N   1      32.723  16.892   4.947  0.00  0.00     0.019 C 
HETATM   24  C   UNK N   1      30.062  17.938   4.424  0.00  0.00     0.021 C 
HETATM   25  C   UNK N   1      27.441  19.797   7.357  0.00  0.00     0.048 C 
ENDROOT
BRANCH  22  26
HETATM   26  C   UNK N   1      34.957  15.591   6.729  0.00  0.00     0.186 C 
HETATM   27  O   UNK N   1      35.608  15.680   5.699  0.00  0.00    -0.292 OA
BRANCH  26  28
HETATM   28  C   UNK N   1      35.084  14.369   7.599  0.00  0.00     0.260 C 
BRANCH  28  29
HETATM   29  O   UNK N   1      36.372  14.194   8.061  0.00  0.00    -0.314 OA
BRANCH  29  30
HETATM   30  C   UNK N   1      36.675  14.161   9.383  0.00  0.00     0.255 C 
HETATM   31  O   UNK N   1      37.563  14.877   9.813  0.00  0.00    -0.266 OA
HETATM   32  C   UNK N   1      35.944  13.258  10.332  0.00  0.00     0.126 C 
ENDBRANCH  29  30
ENDBRANCH  28  29
ENDBRANCH  26  28
ENDBRANCH  22  26
BRANCH  22  33
HETATM   33  O   UNK N   1      34.561  17.929   6.818  0.00  0.00    -0.381 OA
HETATM   34  H   UNK N   1      35.099  18.427   6.183  0.00  0.00     0.211 HD
ENDBRANCH  22  33
BRANCH  19  35
HETATM   35  O   UNK N   1      30.692  14.521   4.724  0.00  0.00    -0.395 OA
HETATM   36  H   UNK N   1      30.906  13.634   4.398  0.00  0.00     0.210 HD
ENDBRANCH  19  35
BRANCH  15  37
HETATM   37  C   UNK N   1      23.804  17.031   4.460  0.00  0.00     0.057 A 
HETATM   38  C   UNK N   1      23.239  18.140   3.813  0.00  0.00     0.031 A 
HETATM   39  C   UNK N   1      22.049  18.702   4.277  0.00  0.00     0.002 A 
HETATM   40  C   UNK N   1      21.424  18.171   5.406  0.00  0.00     0.000 A 
HETATM   41  C   UNK N   1      21.983  17.071   6.062  0.00  0.00     0.002 A 
HETATM   42  C   UNK N   1      23.164  16.495   5.585  0.00  0.00     0.031 A 
ENDBRANCH  15  37
TORSDOF 7
ENDMDL
MODEL 2
REMARK VINA RESULT:      -8.4      8.266     14.535
REMARK  7 active torsions:
REMARK  status: ('A' for Active; 'I' for Inactive)
REMARK    1  A    between atoms: N_15  and  C_16 
REMARK    2  A    between atoms: C_25  and  O_38 
REMARK    3  A    between atoms: C_28  and  C_29 
REMARK    4  A    between atoms: C_28  and  O_36 
REMARK    5  A    between atoms: C_29  and  C_31 
REMARK    6  A    between atoms: C_31  and  O_32 
REMARK    7  A    between atoms: O_32  and  C_33 
ROOT
HETATM    1  C   UNK N   1      36.067  15.873  10.943  0.00  0.00     0.013 C 
HETATM    2  C   UNK N   1      36.286  14.604  11.749  0.00  0.00     0.025 C 
HETATM    3  C   UNK N   1      35.909  14.780  13.215  0.00  0.00     0.014 C 
HETATM    4  C   UNK N   1      35.491  13.382  13.698  0.00  0.00     0.006 C 
HETATM    5  C   UNK N   1      36.363  13.013  14.911  0.00  0.00     0.021 C 
HETATM    6  C   UNK N   1      35.792  13.590  16.191  0.00  0.00    -0.014 C 
HETATM    7  C   UNK N   1      35.505  12.836  17.265  0.00  0.00    -0.058 C 
HETATM    8  C   UNK N   1      35.736  11.368  17.216  0.00  0.00    -0.041 A 
HETATM    9  C   UNK N   1      36.030  10.725  18.357  0.00  0.00     0.040 A 
HETATM   10  C   UNK N   1      36.471   9.337  18.312  0.00  0.00     0.065 A 
HETATM   11  C   UNK N   1      36.553   8.633  17.163  0.00  0.00    -0.011 A 
HETATM   12  C   UNK N   1      37.103   7.410  17.493  0.00  0.00     0.117 A 
HETATM   13  N   UNK N   1      37.351   7.420  18.825  0.00  0.00    -0.304 N 
ATOM     14  HN  UNK N   1      37.768   6.659  19.359  1.00  0.00     0.186 HD
HETATM   15  N   UNK N   1      36.962   8.592  19.316  0.00  0.00    -0.257 N 
HETATM   16  C   UNK N   1      36.160   9.168  15.841  0.00  0.00     0.057 A 
HETATM   17  C   UNK N   1      35.772  10.675  15.842  0.00  0.00    -0.006 A 
HETATM   18  C   UNK N   1      36.764  11.517  15.003  0.00  0.00     0.035 C 
HETATM   19  C   UNK N   1      37.366  10.994  13.665  0.00  0.00     0.124 C 
HETATM   20  C   UNK N   1      37.070  11.865  12.446  0.00  0.00     0.045 C 
HETATM   21  C   UNK N   1      35.647  12.456  12.470  0.00  0.00     0.001 C 
HETATM   22  C   UNK N   1      35.438  13.419  11.295  0.00  0.00     0.131 C 
HETATM   23  C   UNK N   1      34.618  11.330  12.443  0.00  0.00     0.019 C 
HETATM   24  C   UNK N   1      34.362  10.734  15.276  0.00  0.00     0.021 C 
HETATM   25  C   UNK N   1      35.108  13.516  18.536  0.00  0.00     0.048 C 
ENDROOT
BRANCH  22  26
HETATM   26  C   UNK N   1      35.829  12.821   9.959  0.00  0.00     0.186 C 
HETATM   27  O   UNK N   1      37.005  12.755   9.630  0.00  0.00    -0.292 OA
BRANCH  26  28
HETATM   28  C   UNK N   1      34.755  12.345   9.018  0.00  0.00     0.260 C 
BRANCH  28  29
HETATM   29  O   UNK N   1      34.374  13.326   8.128  0.00  0.00    -0.314 OA
BRANCH  29  30
HETATM   30  C   UNK N   1      33.077  13.680   7.941  0.00  0.00     0.255 C 
HETATM   31  O   UNK N   1      32.272  13.499   8.839  0.00  0.00    -0.266 OA
HETATM   32  C   UNK N   1      32.608  14.287   6.653  0.00  0.00     0.126 C 
ENDBRANCH  29  30
ENDBRANCH  28  29
ENDBRANCH  26  28
ENDBRANCH  22  26
BRANCH  22  33
HETATM   33  O   UNK N   1      34.095  13.823  11.231  0.00  0.00    -0.381 OA
HETATM   34  H   UNK N   1      33.476  14.483  10.883  0.00  0.00     0.211 HD
ENDBRANCH  22  33
BRANCH  19  35
HETATM   35  O   UNK N   1      37.088   9.656  13.388  0.00  0.00    -0.395 OA
HETATM   36  H   UNK N   1      37.255   8.874  13.936  0.00  0.00     0.210 HD
ENDBRANCH  19  35
BRANCH  15  37
HETATM   37  C   UNK N   1      37.114   8.978  20.691  0.00  0.00     0.057 A 
HETATM   38  C   UNK N   1      36.141   8.636  21.643  0.00  0.00     0.031 A 
HETATM   39  C   UNK N   1      36.288   9.019  22.977  0.00  0.00     0.002 A 
HETATM   40  C   UNK N   1      37.400   9.767  23.367  0.00  0.00     0.000 A 
HETATM   41  C   UNK N   1      38.370  10.120  22.426  0.00  0.00     0.002 A 
HETATM   42  C   UNK N   1      38.234   9.718  21.093  0.00  0.00     0.031 A 
ENDBRANCH  15  37
TORSDOF 7
ENDMDL
MODEL 3
REMARK VINA RESULT:      -8.2      4.502     10.358
REMARK  7 active torsions:
REMARK  status: ('A' for Active; 'I' for Inactive)
REMARK    1  A    between atoms: N_15  and  C_16 
REMARK    2  A    between atoms: C_25  and  O_38 
REMARK    3  A    between atoms: C_28  and  C_29 
REMARK    4  A    between atoms: C_28  and  O_36 
REMARK    5  A    between atoms: C_29  and  C_31 
REMARK    6  A    between atoms: C_31  and  O_32 
REMARK    7  A    between atoms: O_32  and  C_33 
ROOT
HETATM    1  C   UNK N   1      24.447  12.065   1.037  0.00  0.00     0.013 C 
HETATM    2  C   UNK N   1      24.917  12.883   2.228  0.00  0.00     0.025 C 
HETATM    3  C   UNK N   1      26.407  13.195   2.161  0.00  0.00     0.014 C 
HETATM    4  C   UNK N   1      26.580  14.518   2.924  0.00  0.00     0.006 C 
HETATM    5  C   UNK N   1      27.607  14.292   4.048  0.00  0.00     0.021 C 
HETATM    6  C   UNK N   1      29.024  14.443   3.532  0.00  0.00    -0.014 C 
HETATM    7  C   UNK N   1      29.910  15.292   4.077  0.00  0.00    -0.058 C 
HETATM    8  C   UNK N   1      29.504  16.142   5.227  0.00  0.00    -0.041 A 
HETATM    9  C   UNK N   1      30.439  16.509   6.116  0.00  0.00     0.040 A 
HETATM   10  C   UNK N   1      30.040  17.155   7.361  0.00  0.00     0.065 A 
HETATM   11  C   UNK N   1      28.756  17.456   7.649  0.00  0.00    -0.011 A 
HETATM   12  C   UNK N   1      28.751  17.951   8.938  0.00  0.00     0.117 A 
HETATM   13  N   UNK N   1      30.027  17.919   9.392  0.00  0.00    -0.304 N 
ATOM     14  HN  UNK N   1      30.337  18.213  10.318  1.00  0.00     0.186 HD
HETATM   15  N   UNK N   1      30.804  17.437   8.428  0.00  0.00    -0.257 N 
HETATM   16  C   UNK N   1      27.627  17.212   6.724  0.00  0.00     0.057 A 
HETATM   17  C   UNK N   1      28.007  16.442   5.427  0.00  0.00    -0.006 A 
HETATM   18  C   UNK N   1      27.318  15.057   5.367  0.00  0.00     0.035 C 
HETATM   19  C   UNK N   1      25.855  14.840   5.855  0.00  0.00     0.124 C 
HETATM   20  C   UNK N   1      24.897  14.307   4.791  0.00  0.00     0.045 C 
HETATM   21  C   UNK N   1      25.161  14.910   3.398  0.00  0.00     0.001 C 
HETATM   22  C   UNK N   1      24.262  14.257   2.343  0.00  0.00     0.131 C 
HETATM   23  C   UNK N   1      24.948  16.421   3.439  0.00  0.00     0.019 C 
HETATM   24  C   UNK N   1      27.575  17.338   4.277  0.00  0.00     0.021 C 
HETATM   25  C   UNK N   1      31.331  15.246   3.610  0.00  0.00     0.048 C 
ENDROOT
BRANCH  22  26
HETATM   26  C   UNK N   1      22.798  14.243   2.735  0.00  0.00     0.186 C 
HETATM   27  O   UNK N   1      22.341  13.316   3.387  0.00  0.00    -0.292 OA
BRANCH  26  28
HETATM   28  C   UNK N   1      21.899  15.361   2.279  0.00  0.00     0.260 C 
BRANCH  28  29
HETATM   29  O   UNK N   1      21.459  15.177   0.985  0.00  0.00    -0.314 OA
BRANCH  29  30
HETATM   30  C   UNK N   1      20.291  15.695   0.531  0.00  0.00     0.255 C 
HETATM   31  O   UNK N   1      20.259  16.850   0.141  0.00  0.00    -0.266 OA
HETATM   32  C   UNK N   1      19.032  14.881   0.499  0.00  0.00     0.126 C 
ENDBRANCH  29  30
ENDBRANCH  28  29
ENDBRANCH  26  28
ENDBRANCH  22  26
BRANCH  22  33
HETATM   33  O   UNK N   1      24.392  14.923   1.114  0.00  0.00    -0.381 OA
HETATM   34  H   UNK N   1      24.965  15.079   0.348  0.00  0.00     0.211 HD
ENDBRANCH  22  33
BRANCH  19  35
HETATM   35  O   UNK N   1      25.294  15.935   6.511  0.00  0.00    -0.395 OA
HETATM   36  H   UNK N   1      25.331  16.874   6.269  0.00  0.00     0.210 HD
ENDBRANCH  19  35
BRANCH  15  37
HETATM   37  C   UNK N   1      32.217  17.217   8.569  0.00  0.00     0.057 A 
HETATM   38  C   UNK N   1      33.137  18.212   8.203  0.00  0.00     0.031 A 
HETATM   39  C   UNK N   1      34.509  17.992   8.333  0.00  0.00     0.002 A 
HETATM   40  C   UNK N   1      34.974  16.767   8.813  0.00  0.00     0.000 A 
HETATM   41  C   UNK N   1      34.067  15.767   9.173  0.00  0.00     0.002 A 
HETATM   42  C   UNK N   1      32.691  15.995   9.062  0.00  0.00     0.031 A 
ENDBRANCH  15  37
TORSDOF 7
ENDMDL
MODEL 4
REMARK VINA RESULT:      -8.1      2.258      3.994
REMARK  7 active torsions:
REMARK  status: ('A' for Active; 'I' for Inactive)
REMARK    1  A    between atoms: N_15  and  C_16 
REMARK    2  A    between atoms: C_25  and  O_38 
REMARK    3  A    between atoms: C_28  and  C_29 
REMARK    4  A    between atoms: C_28  and  O_36 
REMARK    5  A    between atoms: C_29  and  C_31 
REMARK    6  A    between atoms: C_31  and  O_32 
REMARK    7  A    between atoms: O_32  and  C_33 
ROOT
HETATM    1  C   UNK N   1      33.215  13.043   4.585  0.00  0.00     0.013 C 
HETATM    2  C   UNK N   1      32.070  14.036   4.471  0.00  0.00     0.025 C 
HETATM    3  C   UNK N   1      30.733  13.420   4.862  0.00  0.00     0.014 C 
HETATM    4  C   UNK N   1      29.884  14.589   5.386  0.00  0.00     0.006 C 
HETATM    5  C   UNK N   1      28.584  14.646   4.564  0.00  0.00     0.021 C 
HETATM    6  C   UNK N   1      27.547  13.688   5.117  0.00  0.00    -0.014 C 
HETATM    7  C   UNK N   1      26.313  14.080   5.476  0.00  0.00    -0.058 C 
HETATM    8  C   UNK N   1      25.929  15.511   5.348  0.00  0.00    -0.041 A 
HETATM    9  C   UNK N   1      24.641  15.812   5.121  0.00  0.00     0.040 A 
HETATM   10  C   UNK N   1      24.269  17.180   4.778  0.00  0.00     0.065 A 
HETATM   11  C   UNK N   1      25.163  18.190   4.726  0.00  0.00    -0.011 A 
HETATM   12  C   UNK N   1      24.475  19.296   4.269  0.00  0.00     0.117 A 
HETATM   13  N   UNK N   1      23.194  18.916   4.045  0.00  0.00    -0.304 N 
ATOM     14  HN  UNK N   1      22.448  19.515   3.693  1.00  0.00     0.186 HD
HETATM   15  N   UNK N   1      23.075  17.631   4.359  0.00  0.00    -0.257 N 
HETATM   16  C   UNK N   1      26.597  18.036   5.055  0.00  0.00     0.057 A 
HETATM   17  C   UNK N   1      27.044  16.573   5.337  0.00  0.00    -0.006 A 
HETATM   18  C   UNK N   1      28.051  16.073   4.272  0.00  0.00     0.035 C 
HETATM   19  C   UNK N   1      29.159  16.997   3.684  0.00  0.00     0.124 C 
HETATM   20  C   UNK N   1      30.587  16.499   3.896  0.00  0.00     0.045 C 
HETATM   21  C   UNK N   1      30.788  15.839   5.273  0.00  0.00     0.001 C 
HETATM   22  C   UNK N   1      32.197  15.247   5.392  0.00  0.00     0.131 C 
HETATM   23  C   UNK N   1      30.529  16.858   6.379  0.00  0.00     0.019 C 
HETATM   24  C   UNK N   1      27.656  16.592   6.728  0.00  0.00     0.021 C 
HETATM   25  C   UNK N   1      25.307  13.037   5.847  0.00  0.00     0.048 C 
ENDROOT
BRANCH  22  26
HETATM   26  C   UNK N   1      33.288  16.229   5.020  0.00  0.00     0.186 C 
HETATM   27  O   UNK N   1      33.339  16.702   3.894  0.00  0.00    -0.292 OA
BRANCH  26  28
HETATM   28  C   UNK N   1      34.340  16.587   6.036  0.00  0.00     0.260 C 
BRANCH  28  29
HETATM   29  O   UNK N   1      34.199  17.881   6.493  0.00  0.00    -0.314 OA
BRANCH  29  30
HETATM   30  C   UNK N   1      34.194  18.192   7.814  0.00  0.00     0.255 C 
HETATM   31  O   UNK N   1      34.965  19.038   8.233  0.00  0.00    -0.266 OA
HETATM   32  C   UNK N   1      33.263  17.515   8.775  0.00  0.00     0.126 C 
ENDBRANCH  29  30
ENDBRANCH  28  29
ENDBRANCH  26  28
ENDBRANCH  22  26
BRANCH  22  33
HETATM   33  O   UNK N   1      32.425  14.795   6.702  0.00  0.00    -0.381 OA
HETATM   34  H   UNK N   1      32.269  14.080   7.338  0.00  0.00     0.211 HD
ENDBRANCH  22  33
BRANCH  19  35
HETATM   35  O   UNK N   1      29.050  18.338   4.050  0.00  0.00    -0.395 OA
HETATM   36  H   UNK N   1      28.395  18.994   3.767  0.00  0.00     0.210 HD
ENDBRANCH  19  35
BRANCH  15  37
HETATM   37  C   UNK N   1      21.864  16.874   4.206  0.00  0.00     0.057 A 
HETATM   38  C   UNK N   1      20.967  16.732   5.276  0.00  0.00     0.031 A 
HETATM   39  C   UNK N   1      19.796  15.989   5.126  0.00  0.00     0.002 A 
HETATM   40  C   UNK N   1      19.520  15.364   3.909  0.00  0.00     0.000 A 
HETATM   41  C   UNK N   1      20.410  15.492   2.839  0.00  0.00     0.002 A 
HETATM   42  C   UNK N   1      21.574  16.254   2.983  0.00  0.00     0.031 A 
ENDBRANCH  15  37
TORSDOF 7
ENDMDL
MODEL 5
REMARK VINA RESULT:      -8.1      2.051      2.793
REMARK  7 active torsions:
REMARK  status: ('A' for Active; 'I' for Inactive)
REMARK    1  A    between atoms: N_15  and  C_16 
REMARK    2  A    between atoms: C_25  and  O_38 
REMARK    3  A    between atoms: C_28  and  C_29 
REMARK    4  A    between atoms: C_28  and  O_36 
REMARK    5  A    between atoms: C_29  and  C_31 
REMARK    6  A    between atoms: C_31  and  O_32 
REMARK    7  A    between atoms: O_32  and  C_33 
ROOT
HETATM    1  C   UNK N   1      33.440  18.025   8.510  0.00  0.00     0.013 C 
HETATM    2  C   UNK N   1      32.677  17.083   7.593  0.00  0.00     0.025 C 
HETATM    3  C   UNK N   1      31.422  17.730   7.019  0.00  0.00     0.014 C 
HETATM    4  C   UNK N   1      31.187  17.034   5.669  0.00  0.00     0.006 C 
HETATM    5  C   UNK N   1      29.771  16.432   5.679  0.00  0.00     0.021 C 
HETATM    6  C   UNK N   1      28.735  17.467   5.288  0.00  0.00    -0.014 C 
HETATM    7  C   UNK N   1      27.867  17.283   4.280  0.00  0.00    -0.058 C 
HETATM    8  C   UNK N   1      27.912  16.025   3.490  0.00  0.00    -0.041 A 
HETATM    9  C   UNK N   1      26.776  15.570   2.939  0.00  0.00     0.040 A 
HETATM   10  C   UNK N   1      26.743  14.239   2.346  0.00  0.00     0.065 A 
HETATM   11  C   UNK N   1      27.831  13.443   2.274  0.00  0.00    -0.011 A 
HETATM   12  C   UNK N   1      27.399  12.238   1.756  0.00  0.00     0.117 A 
HETATM   13  N   UNK N   1      26.064  12.338   1.548  0.00  0.00    -0.304 N 
ATOM     14  HN  UNK N   1      25.461  11.603   1.181  1.00  0.00     0.186 HD
HETATM   15  N   UNK N   1      25.673  13.557   1.905  0.00  0.00    -0.257 N 
HETATM   16  C   UNK N   1      29.176  13.845   2.738  0.00  0.00     0.057 A 
HETATM   17  C   UNK N   1      29.227  15.224   3.459  0.00  0.00    -0.006 A 
HETATM   18  C   UNK N   1      29.629  15.071   4.947  0.00  0.00     0.035 C 
HETATM   19  C   UNK N   1      30.706  14.047   5.411  0.00  0.00     0.124 C 
HETATM   20  C   UNK N   1      31.904  14.660   6.133  0.00  0.00     0.045 C 
HETATM   21  C   UNK N   1      32.337  16.009   5.526  0.00  0.00     0.001 C 
HETATM   22  C   UNK N   1      33.458  16.644   6.357  0.00  0.00     0.131 C 
HETATM   23  C   UNK N   1      32.775  15.809   4.079  0.00  0.00     0.019 C 
HETATM   24  C   UNK N   1      30.237  16.054   2.684  0.00  0.00     0.021 C 
HETATM   25  C   UNK N   1      26.773  18.284   4.081  0.00  0.00     0.048 C 
ENDROOT
BRANCH  22  26
HETATM   26  C   UNK N   1      34.610  15.697   6.624  0.00  0.00     0.186 C 
HETATM   27  O   UNK N   1      35.586  15.686   5.890  0.00  0.00    -0.292 OA
BRANCH  26  28
HETATM   28  C   UNK N   1      34.524  14.735   7.780  0.00  0.00     0.260 C 
BRANCH  28  29
HETATM   29  O   UNK N   1      35.560  14.906   8.674  0.00  0.00    -0.314 OA
BRANCH  29  30
HETATM   30  C   UNK N   1      35.376  15.426   9.914  0.00  0.00     0.255 C 
HETATM   31  O   UNK N   1      36.147  16.275  10.328  0.00  0.00    -0.266 OA
HETATM   32  C   UNK N   1      34.245  14.978  10.791  0.00  0.00     0.126 C 
ENDBRANCH  29  30
ENDBRANCH  28  29
ENDBRANCH  26  28
ENDBRANCH  22  26
BRANCH  22  33
HETATM   33  O   UNK N   1      33.956  17.786   5.708  0.00  0.00    -0.381 OA
HETATM   34  H   UNK N   1      34.448  18.614   5.815  0.00  0.00     0.211 HD
ENDBRANCH  22  33
BRANCH  19  35
HETATM   35  O   UNK N   1      31.134  13.166   4.419  0.00  0.00    -0.395 OA
HETATM   36  H   UNK N   1      32.029  13.027   4.074  0.00  0.00     0.210 HD
ENDBRANCH  19  35
BRANCH  15  37
HETATM   37  C   UNK N   1      24.310  14.008   1.864  0.00  0.00     0.057 A 
HETATM   38  C   UNK N   1      23.746  14.687   2.956  0.00  0.00     0.031 A 
HETATM   39  C   UNK N   1      22.420  15.117   2.916  0.00  0.00     0.002 A 
HETATM   40  C   UNK N   1      21.638  14.854   1.790  0.00  0.00     0.000 A 
HETATM   41  C   UNK N   1      22.186  14.172   0.701  0.00  0.00     0.002 A 
HETATM   42  C   UNK N   1      23.522  13.760   0.732  0.00  0.00     0.031 A 
ENDBRANCH  15  37
TORSDOF 7
ENDMDL
MODEL 6
REMARK VINA RESULT:      -7.9      3.856     10.300
REMARK  7 active torsions:
REMARK  status: ('A' for Active; 'I' for Inactive)
REMARK    1  A    between atoms: N_15  and  C_16 
REMARK    2  A    between atoms: C_25  and  O_38 
REMARK    3  A    between atoms: C_28  and  C_29 
REMARK    4  A    between atoms: C_28  and  O_36 
REMARK    5  A    between atoms: C_29  and  C_31 
REMARK    6  A    between atoms: C_31  and  O_32 
REMARK    7  A    between atoms: O_32  and  C_33 
ROOT
HETATM    1  C   UNK N   1      26.874  15.279   3.535  0.00  0.00     0.013 C 
HETATM    2  C   UNK N   1      27.952  15.624   4.548  0.00  0.00     0.025 C 
HETATM    3  C   UNK N   1      29.156  14.696   4.447  0.00  0.00     0.014 C 
HETATM    4  C   UNK N   1      30.353  15.528   4.935  0.00  0.00     0.006 C 
HETATM    5  C   UNK N   1      31.019  14.774   6.100  0.00  0.00     0.021 C 
HETATM    6  C   UNK N   1      31.994  13.732   5.590  0.00  0.00    -0.014 C 
HETATM    7  C   UNK N   1      33.281  13.692   5.971  0.00  0.00    -0.058 C 
HETATM    8  C   UNK N   1      33.800  14.711   6.921  0.00  0.00    -0.041 A 
HETATM    9  C   UNK N   1      34.810  14.373   7.737  0.00  0.00     0.040 A 
HETATM   10  C   UNK N   1      35.195  15.269   8.821  0.00  0.00     0.065 A 
HETATM   11  C   UNK N   1      34.610  16.469   9.020  0.00  0.00    -0.011 A 
HETATM   12  C   UNK N   1      35.150  16.978  10.184  0.00  0.00     0.117 A 
HETATM   13  N   UNK N   1      36.030  16.065  10.659  0.00  0.00    -0.304 N 
ATOM     14  HN  UNK N   1      36.580  16.154  11.513  1.00  0.00     0.186 HD
HETATM   15  N   UNK N   1      36.055  15.031   9.824  0.00  0.00    -0.257 N 
HETATM   16  C   UNK N   1      33.558  17.027   8.142  0.00  0.00     0.057 A 
HETATM   17  C   UNK N   1      33.061  16.058   7.030  0.00  0.00    -0.006 A 
HETATM   18  C   UNK N   1      31.575  15.675   7.235  0.00  0.00     0.035 C 
HETATM   19  C   UNK N   1      30.517  16.705   7.729  0.00  0.00     0.124 C 
HETATM   20  C   UNK N   1      29.344  16.928   6.776  0.00  0.00     0.045 C 
HETATM   21  C   UNK N   1      29.773  16.916   5.296  0.00  0.00     0.001 C 
HETATM   22  C   UNK N   1      28.551  17.018   4.375  0.00  0.00     0.131 C 
HETATM   23  C   UNK N   1      30.753  18.054   5.031  0.00  0.00     0.019 C 
HETATM   24  C   UNK N   1      33.279  16.793   5.718  0.00  0.00     0.021 C 
HETATM   25  C   UNK N   1      34.120  12.528   5.549  0.00  0.00     0.048 C 
ENDROOT
BRANCH  22  26
HETATM   26  C   UNK N   1      27.629  18.165   4.736  0.00  0.00     0.186 C 
HETATM   27  O   UNK N   1      26.812  18.044   5.637  0.00  0.00    -0.292 OA
BRANCH  26  28
HETATM   28  C   UNK N   1      27.696  19.445   3.947  0.00  0.00     0.260 C 
BRANCH  28  29
HETATM   29  O   UNK N   1      26.592  20.243   4.158  0.00  0.00    -0.314 OA
BRANCH  29  30
HETATM   30  C   UNK N   1      25.539  20.275   3.302  0.00  0.00     0.255 C 
HETATM   31  O   UNK N   1      25.629  20.912   2.267  0.00  0.00    -0.266 OA
HETATM   32  C   UNK N   1      24.264  19.546   3.602  0.00  0.00     0.126 C 
ENDBRANCH  29  30
ENDBRANCH  28  29
ENDBRANCH  26  28
ENDBRANCH  22  26
BRANCH  22  33
HETATM   33  O   UNK N   1      28.960  17.171   3.041  0.00  0.00    -0.381 OA
HETATM   34  H   UNK N   1      28.718  17.036   2.112  0.00  0.00     0.211 HD
ENDBRANCH  22  33
BRANCH  19  35
HETATM   35  O   UNK N   1      31.046  17.926   8.144  0.00  0.00    -0.395 OA
HETATM   36  H   UNK N   1      30.607  18.788   8.212  0.00  0.00     0.210 HD
ENDBRANCH  19  35
BRANCH  15  37
HETATM   37  C   UNK N   1      36.844  13.848  10.032  0.00  0.00     0.057 A 
HETATM   38  C   UNK N   1      36.322  12.754  10.739  0.00  0.00     0.031 A 
HETATM   39  C   UNK N   1      37.094  11.610  10.946  0.00  0.00     0.002 A 
HETATM   40  C   UNK N   1      38.403  11.559  10.466  0.00  0.00     0.000 A 
HETATM   41  C   UNK N   1      38.935  12.645   9.767  0.00  0.00     0.002 A 
HETATM   42  C   UNK N   1      38.155  13.784   9.541  0.00  0.00     0.031 A 
ENDBRANCH  15  37
TORSDOF 7
ENDMDL
MODEL 7
REMARK VINA RESULT:      -7.8     10.052     14.652
REMARK  7 active torsions:
REMARK  status: ('A' for Active; 'I' for Inactive)
REMARK    1  A    between atoms: N_15  and  C_16 
REMARK    2  A    between atoms: C_25  and  O_38 
REMARK    3  A    between atoms: C_28  and  C_29 
REMARK    4  A    between atoms: C_28  and  O_36 
REMARK    5  A    between atoms: C_29  and  C_31 
REMARK    6  A    between atoms: C_31  and  O_32 
REMARK    7  A    between atoms: O_32  and  C_33 
ROOT
HETATM    1  C   UNK N   1      36.078  15.702  10.922  0.00  0.00     0.013 C 
HETATM    2  C   UNK N   1      36.344  14.460  11.757  0.00  0.00     0.025 C 
HETATM    3  C   UNK N   1      35.918  14.640  13.209  0.00  0.00     0.014 C 
HETATM    4  C   UNK N   1      35.564  13.229  13.706  0.00  0.00     0.006 C 
HETATM    5  C   UNK N   1      36.422  12.929  14.948  0.00  0.00     0.021 C 
HETATM    6  C   UNK N   1      35.785  13.495  16.202  0.00  0.00    -0.014 C 
HETATM    7  C   UNK N   1      35.511  12.744  17.281  0.00  0.00    -0.058 C 
HETATM    8  C   UNK N   1      35.823  11.290  17.265  0.00  0.00    -0.041 A 
HETATM    9  C   UNK N   1      36.120  10.684  18.425  0.00  0.00     0.040 A 
HETATM   10  C   UNK N   1      36.638   9.322  18.417  0.00  0.00     0.065 A 
HETATM   11  C   UNK N   1      36.789   8.604  17.283  0.00  0.00    -0.011 A 
HETATM   12  C   UNK N   1      37.397   7.419  17.650  0.00  0.00     0.117 A 
HETATM   13  N   UNK N   1      37.608   7.466  18.987  0.00  0.00    -0.304 N 
ATOM     14  HN  UNK N   1      38.050   6.737  19.546  1.00  0.00     0.186 HD
HETATM   15  N   UNK N   1      37.142   8.622  19.447  0.00  0.00    -0.257 N 
HETATM   16  C   UNK N   1      36.405   9.094  15.942  0.00  0.00     0.057 A 
HETATM   17  C   UNK N   1      35.934  10.577  15.905  0.00  0.00    -0.006 A 
HETATM   18  C   UNK N   1      36.901  11.459  15.078  0.00  0.00     0.035 C 
HETATM   19  C   UNK N   1      37.567  10.948  13.766  0.00  0.00     0.124 C 
HETATM   20  C   UNK N   1      37.257  11.781  12.523  0.00  0.00     0.045 C 
HETATM   21  C   UNK N   1      35.804  12.292  12.499  0.00  0.00     0.001 C 
HETATM   22  C   UNK N   1      35.575  13.222  11.302  0.00  0.00     0.131 C 
HETATM   23  C   UNK N   1      34.839  11.111  12.466  0.00  0.00     0.019 C 
HETATM   24  C   UNK N   1      34.539  10.549  15.301  0.00  0.00     0.021 C 
HETATM   25  C   UNK N   1      35.042  13.422  18.529  0.00  0.00     0.048 C 
ENDROOT
BRANCH  22  26
HETATM   26  C   UNK N   1      36.035  12.625   9.988  0.00  0.00     0.186 C 
HETATM   27  O   UNK N   1      35.341  11.805   9.404  0.00  0.00    -0.292 OA
BRANCH  26  28
HETATM   28  C   UNK N   1      37.375  13.016   9.425  0.00  0.00     0.260 C 
BRANCH  28  29
HETATM   29  O   UNK N   1      37.931  12.010   8.663  0.00  0.00    -0.314 OA
BRANCH  29  30
HETATM   30  C   UNK N   1      38.977  11.260   9.093  0.00  0.00     0.255 C 
HETATM   31  O   UNK N   1      38.766  10.275   9.779  0.00  0.00    -0.266 OA
HETATM   32  C   UNK N   1      40.392  11.618   8.747  0.00  0.00     0.126 C 
ENDBRANCH  29  30
ENDBRANCH  28  29
ENDBRANCH  26  28
ENDBRANCH  22  26
BRANCH  22  33
HETATM   33  O   UNK N   1      34.214  13.551  11.196  0.00  0.00    -0.381 OA
HETATM   34  H   UNK N   1      33.548  14.040  10.688  0.00  0.00     0.211 HD
ENDBRANCH  22  33
BRANCH  19  35
HETATM   35  O   UNK N   1      37.371   9.592  13.505  0.00  0.00    -0.395 OA
HETATM   36  H   UNK N   1      37.942   8.841  13.729  0.00  0.00     0.210 HD
ENDBRANCH  19  35
BRANCH  15  37
HETATM   37  C   UNK N   1      37.235   9.039  20.818  0.00  0.00     0.057 A 
HETATM   38  C   UNK N   1      36.243   8.681  21.745  0.00  0.00     0.031 A 
HETATM   39  C   UNK N   1      36.332   9.094  23.074  0.00  0.00     0.002 A 
HETATM   40  C   UNK N   1      37.404   9.887  23.485  0.00  0.00     0.000 A 
HETATM   41  C   UNK N   1      38.393  10.255  22.570  0.00  0.00     0.002 A 
HETATM   42  C   UNK N   1      38.315   9.824  21.242  0.00  0.00     0.031 A 
ENDBRANCH  15  37
TORSDOF 7
ENDMDL
MODEL 8
REMARK VINA RESULT:      -7.8      2.931      5.435
REMARK  7 active torsions:
REMARK  status: ('A' for Active; 'I' for Inactive)
REMARK    1  A    between atoms: N_15  and  C_16 
REMARK    2  A    between atoms: C_25  and  O_38 
REMARK    3  A    between atoms: C_28  and  C_29 
REMARK    4  A    between atoms: C_28  and  O_36 
REMARK    5  A    between atoms: C_29  and  C_31 
REMARK    6  A    between atoms: C_31  and  O_32 
REMARK    7  A    between atoms: O_32  and  C_33 
ROOT
HETATM    1  C   UNK N   1      32.229  14.635   3.133  0.00  0.00     0.013 C 
HETATM    2  C   UNK N   1      30.866  15.284   3.307  0.00  0.00     0.025 C 
HETATM    3  C   UNK N   1      29.733  14.377   2.843  0.00  0.00     0.014 C 
HETATM    4  C   UNK N   1      28.514  14.787   3.686  0.00  0.00     0.006 C 
HETATM    5  C   UNK N   1      27.375  15.175   2.726  0.00  0.00     0.021 C 
HETATM    6  C   UNK N   1      26.606  13.952   2.267  0.00  0.00    -0.014 C 
HETATM    7  C   UNK N   1      25.276  13.833   2.410  0.00  0.00    -0.058 C 
HETATM    8  C   UNK N   1      24.504  14.928   3.056  0.00  0.00    -0.041 A 
HETATM    9  C   UNK N   1      23.227  15.114   2.692  0.00  0.00     0.040 A 
HETATM   10  C   UNK N   1      22.513  16.304   3.141  0.00  0.00     0.065 A 
HETATM   11  C   UNK N   1      23.065  17.220   3.964  0.00  0.00    -0.011 A 
HETATM   12  C   UNK N   1      22.145  18.243   4.082  0.00  0.00     0.117 A 
HETATM   13  N   UNK N   1      21.076  17.921   3.315  0.00  0.00    -0.304 N 
ATOM     14  HN  UNK N   1      20.238  18.488   3.192  1.00  0.00     0.186 HD
HETATM   15  N   UNK N   1      21.305  16.740   2.750  0.00  0.00    -0.257 N 
HETATM   16  C   UNK N   1      24.424  17.099   4.536  0.00  0.00     0.057 A 
HETATM   17  C   UNK N   1      25.245  15.888   4.005  0.00  0.00    -0.006 A 
HETATM   18  C   UNK N   1      26.485  16.353   3.203  0.00  0.00     0.035 C 
HETATM   19  C   UNK N   1      27.335  17.584   3.636  0.00  0.00     0.124 C 
HETATM   20  C   UNK N   1      28.806  17.282   3.913  0.00  0.00     0.045 C 
HETATM   21  C   UNK N   1      29.012  15.923   4.609  0.00  0.00     0.001 C 
HETATM   22  C   UNK N   1      30.505  15.607   4.755  0.00  0.00     0.131 C 
HETATM   23  C   UNK N   1      28.319  15.927   5.968  0.00  0.00     0.019 C 
HETATM   24  C   UNK N   1      25.636  15.087   5.235  0.00  0.00     0.021 C 
HETATM   25  C   UNK N   1      24.586  12.669   1.774  0.00  0.00     0.048 C 
ENDROOT
BRANCH  22  26
HETATM   26  C   UNK N   1      31.295  16.739   5.379  0.00  0.00     0.186 C 
HETATM   27  O   UNK N   1      31.595  17.723   4.719  0.00  0.00    -0.292 OA
BRANCH  26  28
HETATM   28  C   UNK N   1      31.745  16.626   6.811  0.00  0.00     0.260 C 
BRANCH  28  29
HETATM   29  O   UNK N   1      32.408  17.758   7.237  0.00  0.00    -0.314 OA
BRANCH  29  30
HETATM   30  C   UNK N   1      33.659  17.718   7.761  0.00  0.00     0.255 C 
HETATM   31  O   UNK N   1      34.563  18.312   7.198  0.00  0.00    -0.266 OA
HETATM   32  C   UNK N   1      33.958  16.958   9.018  0.00  0.00     0.126 C 
ENDBRANCH  29  30
ENDBRANCH  28  29
ENDBRANCH  26  28
ENDBRANCH  22  26
BRANCH  22  33
HETATM   33  O   UNK N   1      30.684  14.451   5.532  0.00  0.00    -0.381 OA
HETATM   34  H   UNK N   1      30.726  14.094   6.432  0.00  0.00     0.211 HD
ENDBRANCH  22  33
BRANCH  19  35
HETATM   35  O   UNK N   1      26.786  18.331   4.677  0.00  0.00    -0.395 OA
HETATM   36  H   UNK N   1      26.586  18.053   5.585  0.00  0.00     0.210 HD
ENDBRANCH  19  35
BRANCH  15  37
HETATM   37  C   UNK N   1      20.404  16.101   1.831  0.00  0.00     0.057 A 
HETATM   38  C   UNK N   1      19.950  16.775   0.687  0.00  0.00     0.031 A 
HETATM   39  C   UNK N   1      19.069  16.154  -0.199  0.00  0.00     0.002 A 
HETATM   40  C   UNK N   1      18.618  14.859   0.062  0.00  0.00     0.000 A 
HETATM   41  C   UNK N   1      19.057  14.182   1.202  0.00  0.00     0.002 A 
HETATM   42  C   UNK N   1      19.957  14.796   2.080  0.00  0.00     0.031 A 
ENDBRANCH  15  37
TORSDOF 7
ENDMDL
MODEL 9
REMARK VINA RESULT:      -7.6      5.323     11.350
REMARK  7 active torsions:
REMARK  status: ('A' for Active; 'I' for Inactive)
REMARK    1  A    between atoms: N_15  and  C_16 
REMARK    2  A    between atoms: C_25  and  O_38 
REMARK    3  A    between atoms: C_28  and  C_29 
REMARK    4  A    between atoms: C_28  and  O_36 
REMARK    5  A    between atoms: C_29  and  C_31 
REMARK    6  A    between atoms: C_31  and  O_32 
REMARK    7  A    between atoms: O_32  and  C_33 
ROOT
HETATM    1  C   UNK N   1      31.401  13.595   4.497  0.00  0.00     0.013 C 
HETATM    2  C   UNK N   1      32.021  13.871   5.857  0.00  0.00     0.025 C 
HETATM    3  C   UNK N   1      32.953  12.750   6.302  0.00  0.00     0.014 C 
HETATM    4  C   UNK N   1      33.988  13.422   7.219  0.00  0.00     0.006 C 
HETATM    5  C   UNK N   1      33.960  12.706   8.581  0.00  0.00     0.021 C 
HETATM    6  C   UNK N   1      34.830  11.465   8.563  0.00  0.00    -0.014 C 
HETATM    7  C   UNK N   1      35.816  11.256   9.451  0.00  0.00    -0.058 C 
HETATM    8  C   UNK N   1      36.095  12.276  10.496  0.00  0.00    -0.041 A 
HETATM    9  C   UNK N   1      36.599  11.871  11.671  0.00  0.00     0.040 A 
HETATM   10  C   UNK N   1      36.681  12.808  12.785  0.00  0.00     0.065 A 
HETATM   11  C   UNK N   1      36.316  14.103  12.678  0.00  0.00    -0.011 A 
HETATM   12  C   UNK N   1      36.427  14.645  13.944  0.00  0.00     0.117 A 
HETATM   13  N   UNK N   1      36.839  13.658  14.775  0.00  0.00    -0.304 N 
ATOM     14  HN  UNK N   1      37.000  13.753  15.777  1.00  0.00     0.186 HD
HETATM   15  N   UNK N   1      36.994  12.546  14.065  0.00  0.00    -0.257 N 
HETATM   16  C   UNK N   1      35.844  14.724  11.421  0.00  0.00     0.057 A 
HETATM   17  C   UNK N   1      35.659  13.730  10.238  0.00  0.00    -0.006 A 
HETATM   18  C   UNK N   1      34.174  13.625   9.813  0.00  0.00     0.035 C 
HETATM   19  C   UNK N   1      33.234  14.866   9.781  0.00  0.00     0.124 C 
HETATM   20  C   UNK N   1      32.619  15.170   8.417  0.00  0.00     0.045 C 
HETATM   21  C   UNK N   1      33.598  14.919   7.255  0.00  0.00     0.001 C 
HETATM   22  C   UNK N   1      32.902  15.117   5.903  0.00  0.00     0.131 C 
HETATM   23  C   UNK N   1      34.806  15.841   7.387  0.00  0.00     0.019 C 
HETATM   24  C   UNK N   1      36.532  14.265   9.114  0.00  0.00     0.021 C 
HETATM   25  C   UNK N   1      36.505   9.928   9.460  0.00  0.00     0.048 C 
ENDROOT
BRANCH  22  26
HETATM   26  C   UNK N   1      32.160  16.434   5.804  0.00  0.00     0.186 C 
HETATM   27  O   UNK N   1      32.775  17.482   5.668  0.00  0.00    -0.292 OA
BRANCH  26  28
HETATM   28  C   UNK N   1      30.659  16.449   5.916  0.00  0.00     0.260 C 
BRANCH  28  29
HETATM   29  O   UNK N   1      30.195  17.608   6.503  0.00  0.00    -0.314 OA
BRANCH  29  30
HETATM   30  C   UNK N   1      29.837  17.671   7.811  0.00  0.00     0.255 C 
HETATM   31  O   UNK N   1      28.773  17.192   8.164  0.00  0.00    -0.266 OA
HETATM   32  C   UNK N   1      30.720  18.320   8.834  0.00  0.00     0.126 C 
ENDBRANCH  29  30
ENDBRANCH  28  29
ENDBRANCH  26  28
ENDBRANCH  22  26
BRANCH  22  33
HETATM   33  O   UNK N   1      33.838  15.047   4.859  0.00  0.00    -0.381 OA
HETATM   34  H   UNK N   1      34.400  14.461   4.329  0.00  0.00     0.211 HD
ENDBRANCH  22  33
BRANCH  19  35
HETATM   35  O   UNK N   1      33.780  16.022  10.338  0.00  0.00    -0.395 OA
HETATM   36  H   UNK N   1      34.702  16.205  10.576  0.00  0.00     0.210 HD
ENDBRANCH  19  35
BRANCH  15  37
HETATM   37  C   UNK N   1      37.379  11.281  14.625  0.00  0.00     0.057 A 
HETATM   38  C   UNK N   1      38.584  10.667  14.247  0.00  0.00     0.031 A 
HETATM   39  C   UNK N   1      38.951   9.434  14.787  0.00  0.00     0.002 A 
HETATM   40  C   UNK N   1      38.106   8.794  15.695  0.00  0.00     0.000 A 
HETATM   41  C   UNK N   1      36.901   9.392  16.071  0.00  0.00     0.002 A 
HETATM   42  C   UNK N   1      36.543  10.637  15.546  0.00  0.00     0.031 A 
ENDBRANCH  15  37
TORSDOF 7
ENDMDL
