MODEL 1
REMARK VINA RESULT:      -7.5      0.000      0.000
REMARK  6 active torsions:
REMARK  status: ('A' for Active; 'I' for Inactive)
REMARK    1  A    between atoms: C_18  and  C_2 
REMARK    2  A    between atoms: C_22  and  C_15 
REMARK    3  A    between atoms: N_32  and  C_20 
REMARK    4  A    between atoms: C_23  and  C_21 
REMARK    5  A    between atoms: O_33  and  C_23 
REMARK    6  A    between atoms: N_29  and  N_31 
ROOT
HETATM    1  C   UNK N   1      36.834  12.858  11.559  0.00  0.00     0.004 A 
HETATM    2  C   UNK N   1      36.226  14.084  11.673  0.00  0.00     0.109 A 
HETATM    3  C   UNK N   1      36.827  12.310  12.848  0.00  0.00     0.075 A 
HETATM    4  N   UNK N   1      35.843  14.268  12.942  0.00  0.00    -0.288 N 
ATOM      5  HN  UNK N   1      35.355  15.093  13.292  1.00  0.00     0.188 HD
HETATM    6  N   UNK N   1      36.189  13.220  13.679  0.00  0.00    -0.253 N 
ENDROOT
BRANCH   2   7
HETATM    7  C   UNK N   1      36.081  15.114  10.627  0.00  0.00     0.184 C 
HETATM    8  N   UNK N   1      35.143  14.993   9.744  0.00  0.00    -0.280 N 
ATOM      9  HN  UNK N   1      34.596  14.132   9.740  1.00  0.00     0.189 HD
BRANCH   8  10
HETATM   10  N   UNK N   1      34.836  15.960   8.804  0.00  0.00    -0.326 N 
HETATM   11  C   UNK N   1      34.323  17.236   9.238  0.00  0.00     0.142 C 
HETATM   12  C   UNK N   1      33.035  17.530   8.471  0.00  0.00     0.021 C 
HETATM   13  C   UNK N   1      33.285  17.426   6.963  0.00  0.00     0.003 C 
HETATM   14  C   UNK N   1      33.845  16.050   6.598  0.00  0.00     0.021 C 
HETATM   15  C   UNK N   1      35.116  15.786   7.394  0.00  0.00     0.142 C 
ENDBRANCH   8  10
BRANCH   7  16
HETATM   16  O   UNK N   1      36.908  16.179  10.623  0.00  0.00    -0.343 OA
HETATM   17  H   UNK N   1      36.639  16.983  10.222  0.00  0.00     0.219 HD
ENDBRANCH   7  16
ENDBRANCH   2   7
BRANCH   1  18
HETATM   18  C   UNK N   1      37.450  12.311  10.306  0.00  0.00     0.039 C 
HETATM   19  C   UNK N   1      38.874  12.811  10.157  0.00  0.00     0.010 C 
ENDBRANCH   1  18
BRANCH   3  20
HETATM   20  C   UNK N   1      37.491  10.980  13.158  0.00  0.00    -0.007 A 
HETATM   21  C   UNK N   1      37.217   9.800  12.460  0.00  0.00     0.015 A 
HETATM   22  C   UNK N   1      37.812   8.584  12.809  0.00  0.00     0.020 A 
HETATM   23  C   UNK N   1      38.696   8.527  13.885  0.00  0.00     0.011 A 
HETATM   24  C   UNK N   1      38.982   9.683  14.605  0.00  0.00     0.020 A 
HETATM   25 Br   UNK N   1      39.501   6.871  14.375  0.00  0.00    -0.051 Br
HETATM   26  C   UNK N   1      38.382  10.890  14.245  0.00  0.00     0.015 A 
ENDBRANCH   3  20
BRANCH   6  27
HETATM   27  C   UNK N   1      35.885  13.222  15.115  0.00  0.00     0.078 A 
HETATM   28  C   UNK N   1      36.416  14.200  15.963  0.00  0.00     0.035 A 
HETATM   29  C   UNK N   1      36.113  14.254  17.323  0.00  0.00     0.026 A 
HETATM   30  C   UNK N   1      35.263  13.309  17.880  0.00  0.00     0.035 A 
HETATM   31  C   UNK N   1      34.734  12.302  17.082  0.00  0.00     0.050 A 
HETATM   32 Cl   UNK N   1      34.850  13.391  19.579  0.00  0.00    -0.084 Cl
HETATM   33  C   UNK N   1      35.030  12.235  15.716  0.00  0.00     0.064 A 
HETATM   34 Cl   UNK N   1      34.273  10.901  14.848  0.00  0.00    -0.082 Cl
ENDBRANCH   6  27
TORSDOF 6
ENDMDL
MODEL 2
REMARK VINA RESULT:      -7.3     12.842     15.093
REMARK  6 active torsions:
REMARK  status: ('A' for Active; 'I' for Inactive)
REMARK    1  A    between atoms: C_18  and  C_2 
REMARK    2  A    between atoms: C_22  and  C_15 
REMARK    3  A    between atoms: N_32  and  C_20 
REMARK    4  A    between atoms: C_23  and  C_21 
REMARK    5  A    between atoms: O_33  and  C_23 
REMARK    6  A    between atoms: N_29  and  N_31 
ROOT
HETATM    1  C   UNK N   1      22.981  14.672   4.928  0.00  0.00     0.004 A 
HETATM    2  C   UNK N   1      23.813  15.566   5.554  0.00  0.00     0.109 A 
HETATM    3  C   UNK N   1      22.642  13.723   5.901  0.00  0.00     0.075 A 
HETATM    4  N   UNK N   1      23.955  15.210   6.837  0.00  0.00    -0.288 N 
ATOM      5  HN  UNK N   1      24.512  15.715   7.526  1.00  0.00     0.188 HD
HETATM    6  N   UNK N   1      23.265  14.103   7.081  0.00  0.00    -0.253 N 
ENDROOT
BRANCH   2   7
HETATM    7  C   UNK N   1      24.541  16.695   4.944  0.00  0.00     0.184 C 
HETATM    8  N   UNK N   1      24.186  17.906   5.227  0.00  0.00    -0.280 N 
ATOM      9  HN  UNK N   1      23.344  18.040   5.787  1.00  0.00     0.189 HD
BRANCH   8  10
HETATM   10  N   UNK N   1      24.877  19.031   4.816  0.00  0.00    -0.326 N 
HETATM   11  C   UNK N   1      24.312  19.880   3.798  0.00  0.00     0.142 C 
HETATM   12  C   UNK N   1      25.353  20.083   2.699  0.00  0.00     0.021 C 
HETATM   13  C   UNK N   1      26.661  20.603   3.303  0.00  0.00     0.003 C 
HETATM   14  C   UNK N   1      27.177  19.651   4.385  0.00  0.00     0.021 C 
HETATM   15  C   UNK N   1      26.106  19.460   5.452  0.00  0.00     0.142 C 
ENDBRANCH   8  10
BRANCH   7  16
HETATM   16  O   UNK N   1      25.583  16.449   4.123  0.00  0.00    -0.343 OA
HETATM   17  H   UNK N   1      26.427  16.808   4.312  0.00  0.00     0.219 HD
ENDBRANCH   7  16
ENDBRANCH   2   7
BRANCH   1  18
HETATM   18  C   UNK N   1      22.623  14.698   3.472  0.00  0.00     0.039 C 
HETATM   19  C   UNK N   1      21.446  15.625   3.234  0.00  0.00     0.010 C 
ENDBRANCH   1  18
BRANCH   3  20
HETATM   20  C   UNK N   1      21.793  12.508   5.574  0.00  0.00    -0.007 A 
HETATM   21  C   UNK N   1      20.413  12.567   5.357  0.00  0.00     0.015 A 
HETATM   22  C   UNK N   1      19.657  11.417   5.109  0.00  0.00     0.020 A 
HETATM   23  C   UNK N   1      20.278  10.170   5.084  0.00  0.00     0.011 A 
HETATM   24  C   UNK N   1      21.649  10.077   5.304  0.00  0.00     0.020 A 
HETATM   25 Br   UNK N   1      19.254   8.597   4.759  0.00  0.00    -0.051 Br
HETATM   26  C   UNK N   1      22.392  11.233   5.550  0.00  0.00     0.015 A 
ENDBRANCH   3  20
BRANCH   6  27
HETATM   27  C   UNK N   1      23.300  13.519   8.428  0.00  0.00     0.078 A 
HETATM   28  C   UNK N   1      24.470  12.946   8.934  0.00  0.00     0.035 A 
HETATM   29  C   UNK N   1      24.548  12.420  10.223  0.00  0.00     0.026 A 
HETATM   30  C   UNK N   1      23.433  12.449  11.050  0.00  0.00     0.035 A 
HETATM   31  C   UNK N   1      22.240  12.984  10.579  0.00  0.00     0.050 A 
HETATM   32 Cl   UNK N   1      23.532  11.824  12.682  0.00  0.00    -0.084 Cl
HETATM   33  C   UNK N   1      22.148  13.513   9.288  0.00  0.00     0.064 A 
HETATM   34 Cl   UNK N   1      20.567  14.157   8.850  0.00  0.00    -0.082 Cl
ENDBRANCH   6  27
TORSDOF 6
ENDMDL
MODEL 3
REMARK VINA RESULT:      -7.3      7.641     11.309
REMARK  6 active torsions:
REMARK  status: ('A' for Active; 'I' for Inactive)
REMARK    1  A    between atoms: C_18  and  C_2 
REMARK    2  A    between atoms: C_22  and  C_15 
REMARK    3  A    between atoms: N_32  and  C_20 
REMARK    4  A    between atoms: C_23  and  C_21 
REMARK    5  A    between atoms: O_33  and  C_23 
REMARK    6  A    between atoms: N_29  and  N_31 
ROOT
HETATM    1  C   UNK N   1      29.889  17.897   7.203  0.00  0.00     0.004 A 
HETATM    2  C   UNK N   1      29.042  17.927   6.124  0.00  0.00     0.109 A 
HETATM    3  C   UNK N   1      30.993  17.135   6.799  0.00  0.00     0.075 A 
HETATM    4  N   UNK N   1      29.599  17.254   5.110  0.00  0.00    -0.288 N 
ATOM      5  HN  UNK N   1      29.180  17.135   4.187  1.00  0.00     0.188 HD
HETATM    6  N   UNK N   1      30.774  16.761   5.481  0.00  0.00    -0.253 N 
ENDROOT
BRANCH   2   7
HETATM    7  C   UNK N   1      27.686  18.505   6.062  0.00  0.00     0.184 C 
HETATM    8  N   UNK N   1      27.033  18.474   4.946  0.00  0.00    -0.280 N 
ATOM      9  HN  UNK N   1      27.521  18.140   4.115  1.00  0.00     0.189 HD
BRANCH   8  10
HETATM   10  N   UNK N   1      25.714  18.866   4.810  0.00  0.00    -0.326 N 
HETATM   11  C   UNK N   1      24.659  17.928   5.102  0.00  0.00     0.142 C 
HETATM   12  C   UNK N   1      23.706  17.879   3.909  0.00  0.00     0.021 C 
HETATM   13  C   UNK N   1      23.222  19.290   3.564  0.00  0.00     0.003 C 
HETATM   14  C   UNK N   1      24.406  20.220   3.288  0.00  0.00     0.021 C 
HETATM   15  C   UNK N   1      25.341  20.229   4.490  0.00  0.00     0.142 C 
ENDBRANCH   8  10
BRANCH   7  16
HETATM   16  O   UNK N   1      27.136  19.030   7.176  0.00  0.00    -0.343 OA
HETATM   17  H   UNK N   1      26.219  18.930   7.341  0.00  0.00     0.219 HD
ENDBRANCH   7  16
ENDBRANCH   2   7
BRANCH   1  18
HETATM   18  C   UNK N   1      29.597  18.492   8.548  0.00  0.00     0.039 C 
HETATM   19  C   UNK N   1      29.042  17.435   9.484  0.00  0.00     0.010 C 
ENDBRANCH   1  18
BRANCH   3  20
HETATM   20  C   UNK N   1      32.125  16.797   7.751  0.00  0.00    -0.007 A 
HETATM   21  C   UNK N   1      32.166  15.629   8.520  0.00  0.00     0.015 A 
HETATM   22  C   UNK N   1      33.202  15.379   9.423  0.00  0.00     0.020 A 
HETATM   23  C   UNK N   1      34.225  16.311   9.584  0.00  0.00     0.011 A 
HETATM   24  C   UNK N   1      34.209  17.487   8.840  0.00  0.00     0.020 A 
HETATM   25 Br   UNK N   1      35.634  15.983  10.823  0.00  0.00    -0.051 Br
HETATM   26  C   UNK N   1      33.168  17.724   7.940  0.00  0.00     0.015 A 
ENDBRANCH   3  20
BRANCH   6  27
HETATM   27  C   UNK N   1      31.550  15.961   4.525  0.00  0.00     0.078 A 
HETATM   28  C   UNK N   1      32.642  16.510   3.846  0.00  0.00     0.035 A 
HETATM   29  C   UNK N   1      33.424  15.766   2.964  0.00  0.00     0.026 A 
HETATM   30  C   UNK N   1      33.122  14.432   2.728  0.00  0.00     0.035 A 
HETATM   31  C   UNK N   1      32.028  13.852   3.359  0.00  0.00     0.050 A 
HETATM   32 Cl   UNK N   1      34.121  13.481   1.650  0.00  0.00    -0.084 Cl
HETATM   33  C   UNK N   1      31.235  14.587   4.246  0.00  0.00     0.064 A 
HETATM   34 Cl   UNK N   1      29.892  13.700   4.965  0.00  0.00    -0.082 Cl
ENDBRANCH   6  27
TORSDOF 6
ENDMDL
MODEL 4
REMARK VINA RESULT:      -7.3      1.475      1.978
REMARK  6 active torsions:
REMARK  status: ('A' for Active; 'I' for Inactive)
REMARK    1  A    between atoms: C_18  and  C_2 
REMARK    2  A    between atoms: C_22  and  C_15 
REMARK    3  A    between atoms: N_32  and  C_20 
REMARK    4  A    between atoms: C_23  and  C_21 
REMARK    5  A    between atoms: O_33  and  C_23 
REMARK    6  A    between atoms: N_29  and  N_31 
ROOT
HETATM    1  C   UNK N   1      35.516  12.070  10.613  0.00  0.00     0.004 A 
HETATM    2  C   UNK N   1      35.119  13.380  10.704  0.00  0.00     0.109 A 
HETATM    3  C   UNK N   1      35.699  11.635  11.931  0.00  0.00     0.075 A 
HETATM    4  N   UNK N   1      35.033  13.724  11.995  0.00  0.00    -0.288 N 
ATOM      5  HN  UNK N   1      34.746  14.641  12.338  1.00  0.00     0.188 HD
HETATM    6  N   UNK N   1      35.376  12.698  12.763  0.00  0.00    -0.253 N 
ENDROOT
BRANCH   2   7
HETATM    7  C   UNK N   1      34.905  14.333   9.598  0.00  0.00     0.184 C 
HETATM    8  N   UNK N   1      33.697  14.620   9.232  0.00  0.00    -0.280 N 
ATOM      9  HN  UNK N   1      32.932  14.096   9.657  1.00  0.00     0.189 HD
BRANCH   8  10
HETATM   10  N   UNK N   1      33.381  15.591   8.301  0.00  0.00    -0.326 N 
HETATM   11  C   UNK N   1      33.153  15.213   6.929  0.00  0.00     0.142 C 
HETATM   12  C   UNK N   1      34.035  16.080   6.031  0.00  0.00     0.021 C 
HETATM   13  C   UNK N   1      33.792  17.563   6.329  0.00  0.00     0.003 C 
HETATM   14  C   UNK N   1      34.039  17.868   7.808  0.00  0.00     0.021 C 
HETATM   15  C   UNK N   1      33.157  16.974   8.670  0.00  0.00     0.142 C 
ENDBRANCH   8  10
BRANCH   7  16
HETATM   16  O   UNK N   1      35.969  14.912   9.004  0.00  0.00    -0.343 OA
HETATM   17  H   UNK N   1      36.366  15.671   9.385  0.00  0.00     0.219 HD
ENDBRANCH   7  16
ENDBRANCH   2   7
BRANCH   1  18
HETATM   18  C   UNK N   1      35.781  11.334   9.333  0.00  0.00     0.039 C 
HETATM   19  C   UNK N   1      34.541  10.580   8.891  0.00  0.00     0.010 C 
ENDBRANCH   1  18
BRANCH   3  20
HETATM   20  C   UNK N   1      36.223  10.247  12.253  0.00  0.00    -0.007 A 
HETATM   21  C   UNK N   1      35.418   9.104  12.277  0.00  0.00     0.015 A 
HETATM   22  C   UNK N   1      35.928   7.851  12.628  0.00  0.00     0.020 A 
HETATM   23  C   UNK N   1      37.271   7.721  12.977  0.00  0.00     0.011 A 
HETATM   24  C   UNK N   1      38.097   8.842  12.971  0.00  0.00     0.020 A 
HETATM   25 Br   UNK N   1      37.973   6.020  13.469  0.00  0.00    -0.051 Br
HETATM   26  C   UNK N   1      37.574  10.087  12.617  0.00  0.00     0.015 A 
ENDBRANCH   3  20
BRANCH   6  27
HETATM   27  C   UNK N   1      35.376  12.863  14.222  0.00  0.00     0.078 A 
HETATM   28  C   UNK N   1      36.199  13.810  14.840  0.00  0.00     0.035 A 
HETATM   29  C   UNK N   1      36.193  14.020  16.218  0.00  0.00     0.026 A 
HETATM   30  C   UNK N   1      35.353  13.269  17.028  0.00  0.00     0.035 A 
HETATM   31  C   UNK N   1      34.538  12.296  16.461  0.00  0.00     0.050 A 
HETATM   32 Cl   UNK N   1      35.313  13.551  18.755  0.00  0.00    -0.084 Cl
HETATM   33  C   UNK N   1      34.535  12.075  15.080  0.00  0.00     0.064 A 
HETATM   34 Cl   UNK N   1      33.439  10.811  14.524  0.00  0.00    -0.082 Cl
ENDBRANCH   6  27
TORSDOF 6
ENDMDL
MODEL 5
REMARK VINA RESULT:      -7.2      5.829      8.702
REMARK  6 active torsions:
REMARK  status: ('A' for Active; 'I' for Inactive)
REMARK    1  A    between atoms: C_18  and  C_2 
REMARK    2  A    between atoms: C_22  and  C_15 
REMARK    3  A    between atoms: N_32  and  C_20 
REMARK    4  A    between atoms: C_23  and  C_21 
REMARK    5  A    between atoms: O_33  and  C_23 
REMARK    6  A    between atoms: N_29  and  N_31 
ROOT
HETATM    1  C   UNK N   1      31.870  15.920   5.246  0.00  0.00     0.004 A 
HETATM    2  C   UNK N   1      31.119  16.751   6.040  0.00  0.00     0.109 A 
HETATM    3  C   UNK N   1      32.907  15.449   6.062  0.00  0.00     0.075 A 
HETATM    4  N   UNK N   1      31.640  16.768   7.273  0.00  0.00    -0.288 N 
ATOM      5  HN  UNK N   1      31.263  17.297   8.060  1.00  0.00     0.188 HD
HETATM    6  N   UNK N   1      32.719  15.997   7.323  0.00  0.00    -0.253 N 
ENDROOT
BRANCH   2   7
HETATM    7  C   UNK N   1      29.976  17.590   5.633  0.00  0.00     0.184 C 
HETATM    8  N   UNK N   1      28.934  17.656   6.397  0.00  0.00    -0.280 N 
ATOM      9  HN  UNK N   1      28.897  17.042   7.211  1.00  0.00     0.189 HD
BRANCH   8  10
HETATM   10  N   UNK N   1      27.867  18.508   6.179  0.00  0.00    -0.326 N 
HETATM   11  C   UNK N   1      26.802  18.101   5.297  0.00  0.00     0.142 C 
HETATM   12  C   UNK N   1      26.580  19.200   4.259  0.00  0.00     0.021 C 
HETATM   13  C   UNK N   1      26.348  20.544   4.958  0.00  0.00     0.003 C 
HETATM   14  C   UNK N   1      27.516  20.885   5.885  0.00  0.00     0.021 C 
HETATM   15  C   UNK N   1      27.717  19.760   6.892  0.00  0.00     0.142 C 
ENDBRANCH   8  10
BRANCH   7  16
HETATM   16  O   UNK N   1      30.045  18.298   4.487  0.00  0.00    -0.343 OA
HETATM   17  H   UNK N   1      30.647  19.012   4.410  0.00  0.00     0.219 HD
ENDBRANCH   7  16
ENDBRANCH   2   7
BRANCH   1  18
HETATM   18  C   UNK N   1      31.640  15.682   3.783  0.00  0.00     0.039 C 
HETATM   19  C   UNK N   1      32.561  16.556   2.954  0.00  0.00     0.010 C 
ENDBRANCH   1  18
BRANCH   3  20
HETATM   20  C   UNK N   1      34.011  14.559   5.521  0.00  0.00    -0.007 A 
HETATM   21  C   UNK N   1      33.783  13.293   4.973  0.00  0.00     0.015 A 
HETATM   22  C   UNK N   1      34.832  12.482   4.533  0.00  0.00     0.020 A 
HETATM   23  C   UNK N   1      36.148  12.926   4.645  0.00  0.00     0.011 A 
HETATM   24  C   UNK N   1      36.409  14.178   5.195  0.00  0.00     0.020 A 
HETATM   25 Br   UNK N   1      37.586  11.822   4.060  0.00  0.00    -0.051 Br
HETATM   26  C   UNK N   1      35.351  14.978   5.629  0.00  0.00     0.015 A 
ENDBRANCH   3  20
BRANCH   6  27
HETATM   27  C   UNK N   1      33.465  15.889   8.583  0.00  0.00     0.078 A 
HETATM   28  C   UNK N   1      33.336  14.764   9.403  0.00  0.00     0.035 A 
HETATM   29  C   UNK N   1      34.062  14.613  10.583  0.00  0.00     0.026 A 
HETATM   30  C   UNK N   1      34.944  15.606  10.985  0.00  0.00     0.035 A 
HETATM   31  C   UNK N   1      35.084  16.755  10.215  0.00  0.00     0.050 A 
HETATM   32 Cl   UNK N   1      35.886  15.408  12.447  0.00  0.00    -0.084 Cl
HETATM   33  C   UNK N   1      34.362  16.920   9.029  0.00  0.00     0.064 A 
HETATM   34 Cl   UNK N   1      34.661  18.430   8.171  0.00  0.00    -0.082 Cl
ENDBRANCH   6  27
TORSDOF 6
ENDMDL
MODEL 6
REMARK VINA RESULT:      -7.1      8.055     11.709
REMARK  6 active torsions:
REMARK  status: ('A' for Active; 'I' for Inactive)
REMARK    1  A    between atoms: C_18  and  C_2 
REMARK    2  A    between atoms: C_22  and  C_15 
REMARK    3  A    between atoms: N_32  and  C_20 
REMARK    4  A    between atoms: C_23  and  C_21 
REMARK    5  A    between atoms: O_33  and  C_23 
REMARK    6  A    between atoms: N_29  and  N_31 
ROOT
HETATM    1  C   UNK N   1      29.174  16.842   6.797  0.00  0.00     0.004 A 
HETATM    2  C   UNK N   1      28.400  16.546   5.703  0.00  0.00     0.109 A 
HETATM    3  C   UNK N   1      30.468  16.414   6.474  0.00  0.00     0.075 A 
HETATM    4  N   UNK N   1      29.170  16.000   4.754  0.00  0.00    -0.288 N 
ATOM      5  HN  UNK N   1      28.843  15.701   3.835  1.00  0.00     0.188 HD
HETATM    6  N   UNK N   1      30.422  15.903   5.184  0.00  0.00    -0.253 N 
ENDROOT
BRANCH   2   7
HETATM    7  C   UNK N   1      26.938  16.692   5.572  0.00  0.00     0.184 C 
HETATM    8  N   UNK N   1      26.446  17.211   4.494  0.00  0.00    -0.280 N 
ATOM      9  HN  UNK N   1      27.095  17.598   3.810  1.00  0.00     0.189 HD
BRANCH   8  10
HETATM   10  N   UNK N   1      25.093  17.275   4.214  0.00  0.00    -0.326 N 
HETATM   11  C   UNK N   1      24.359  18.476   4.521  0.00  0.00     0.142 C 
HETATM   12  C   UNK N   1      23.134  18.101   5.353  0.00  0.00     0.021 C 
HETATM   13  C   UNK N   1      22.317  17.026   4.629  0.00  0.00     0.003 C 
HETATM   14  C   UNK N   1      23.179  15.798   4.327  0.00  0.00     0.021 C 
HETATM   15  C   UNK N   1      24.397  16.214   3.514  0.00  0.00     0.142 C 
ENDBRANCH   8  10
BRANCH   7  16
HETATM   16  O   UNK N   1      26.135  16.256   6.564  0.00  0.00    -0.343 OA
HETATM   17  H   UNK N   1      26.457  16.204   7.443  0.00  0.00     0.219 HD
ENDBRANCH   7  16
ENDBRANCH   2   7
BRANCH   1  18
HETATM   18  C   UNK N   1      28.666  17.413   8.087  0.00  0.00     0.039 C 
HETATM   19  C   UNK N   1      28.513  18.918   7.974  0.00  0.00     0.010 C 
ENDBRANCH   1  18
BRANCH   3  20
HETATM   20  C   UNK N   1      31.611  16.491   7.470  0.00  0.00    -0.007 A 
HETATM   21  C   UNK N   1      32.354  17.652   7.704  0.00  0.00     0.015 A 
HETATM   22  C   UNK N   1      33.432  17.668   8.593  0.00  0.00     0.020 A 
HETATM   23  C   UNK N   1      33.798  16.503   9.264  0.00  0.00     0.011 A 
HETATM   24  C   UNK N   1      33.083  15.329   9.046  0.00  0.00     0.020 A 
HETATM   25 Br   UNK N   1      35.274  16.514  10.468  0.00  0.00    -0.051 Br
HETATM   26  C   UNK N   1      32.008  15.327   8.156  0.00  0.00     0.015 A 
ENDBRANCH   3  20
BRANCH   6  27
HETATM   27  C   UNK N   1      31.437  15.305   4.307  0.00  0.00     0.078 A 
HETATM   28  C   UNK N   1      31.360  13.962   3.927  0.00  0.00     0.035 A 
HETATM   29  C   UNK N   1      32.283  13.376   3.063  0.00  0.00     0.026 A 
HETATM   30  C   UNK N   1      33.331  14.131   2.555  0.00  0.00     0.035 A 
HETATM   31  C   UNK N   1      33.464  15.463   2.928  0.00  0.00     0.050 A 
HETATM   32 Cl   UNK N   1      34.474  13.412   1.441  0.00  0.00    -0.084 Cl
HETATM   33  C   UNK N   1      32.545  16.064   3.794  0.00  0.00     0.064 A 
HETATM   34 Cl   UNK N   1      32.854  17.760   4.159  0.00  0.00    -0.082 Cl
ENDBRANCH   6  27
TORSDOF 6
ENDMDL
MODEL 7
REMARK VINA RESULT:      -6.9      4.085      8.330
REMARK  6 active torsions:
REMARK  status: ('A' for Active; 'I' for Inactive)
REMARK    1  A    between atoms: C_18  and  C_2 
REMARK    2  A    between atoms: C_22  and  C_15 
REMARK    3  A    between atoms: N_32  and  C_20 
REMARK    4  A    between atoms: C_23  and  C_21 
REMARK    5  A    between atoms: O_33  and  C_23 
REMARK    6  A    between atoms: N_29  and  N_31 
ROOT
HETATM    1  C   UNK N   1      35.806  14.031  10.076  0.00  0.00     0.004 A 
HETATM    2  C   UNK N   1      35.365  14.565  11.261  0.00  0.00     0.109 A 
HETATM    3  C   UNK N   1      34.944  14.528   9.090  0.00  0.00     0.075 A 
HETATM    4  N   UNK N   1      34.318  15.364  11.019  0.00  0.00    -0.288 N 
ATOM      5  HN  UNK N   1      33.811  15.895  11.728  1.00  0.00     0.188 HD
HETATM    6  N   UNK N   1      34.036  15.366   9.722  0.00  0.00    -0.253 N 
ENDROOT
BRANCH   2   7
HETATM    7  C   UNK N   1      35.858  14.268  12.619  0.00  0.00     0.184 C 
HETATM    8  N   UNK N   1      35.410  13.227  13.243  0.00  0.00    -0.280 N 
ATOM      9  HN  UNK N   1      34.650  12.700  12.811  1.00  0.00     0.189 HD
BRANCH   8  10
HETATM   10  N   UNK N   1      35.897  12.785  14.459  0.00  0.00    -0.326 N 
HETATM   11  C   UNK N   1      37.033  11.898  14.490  0.00  0.00     0.142 C 
HETATM   12  C   UNK N   1      36.678  10.679  15.340  0.00  0.00     0.021 C 
HETATM   13  C   UNK N   1      36.185  11.127  16.720  0.00  0.00     0.003 C 
HETATM   14  C   UNK N   1      34.992  12.077  16.590  0.00  0.00     0.021 C 
HETATM   15  C   UNK N   1      35.379  13.268  15.723  0.00  0.00     0.142 C 
ENDBRANCH   8  10
BRANCH   7  16
HETATM   16  O   UNK N   1      36.788  15.068  13.178  0.00  0.00    -0.343 OA
HETATM   17  H   UNK N   1      37.246  15.697  12.655  0.00  0.00     0.219 HD
ENDBRANCH   7  16
ENDBRANCH   2   7
BRANCH   1  18
HETATM   18  C   UNK N   1      36.925  13.042   9.937  0.00  0.00     0.039 C 
HETATM   19  C   UNK N   1      36.399  11.626  10.078  0.00  0.00     0.010 C 
ENDBRANCH   1  18
BRANCH   3  20
HETATM   20  C   UNK N   1      35.053  14.098   7.639  0.00  0.00    -0.007 A 
HETATM   21  C   UNK N   1      34.488  12.921   7.138  0.00  0.00     0.015 A 
HETATM   22  C   UNK N   1      34.654  12.533   5.806  0.00  0.00     0.020 A 
HETATM   23  C   UNK N   1      35.408  13.324   4.941  0.00  0.00     0.011 A 
HETATM   24  C   UNK N   1      35.991  14.498   5.411  0.00  0.00     0.020 A 
HETATM   25 Br   UNK N   1      35.650  12.797   3.126  0.00  0.00    -0.051 Br
HETATM   26  C   UNK N   1      35.816  14.873   6.744  0.00  0.00     0.015 A 
ENDBRANCH   3  20
BRANCH   6  27
HETATM   27  C   UNK N   1      32.901  16.161   9.237  0.00  0.00     0.078 A 
HETATM   28  C   UNK N   1      31.586  15.717   9.404  0.00  0.00     0.035 A 
HETATM   29  C   UNK N   1      30.486  16.467   8.992  0.00  0.00     0.026 A 
HETATM   30  C   UNK N   1      30.678  17.699   8.382  0.00  0.00     0.035 A 
HETATM   31  C   UNK N   1      31.969  18.168   8.169  0.00  0.00     0.050 A 
HETATM   32 Cl   UNK N   1      29.302  18.664   7.894  0.00  0.00    -0.084 Cl
HETATM   33  C   UNK N   1      33.082  17.426   8.578  0.00  0.00     0.064 A 
HETATM   34 Cl   UNK N   1      34.645  18.166   8.239  0.00  0.00    -0.082 Cl
ENDBRANCH   6  27
TORSDOF 6
ENDMDL
MODEL 8
REMARK VINA RESULT:      -6.9      3.538      7.658
REMARK  6 active torsions:
REMARK  status: ('A' for Active; 'I' for Inactive)
REMARK    1  A    between atoms: C_18  and  C_2 
REMARK    2  A    between atoms: C_22  and  C_15 
REMARK    3  A    between atoms: N_32  and  C_20 
REMARK    4  A    between atoms: C_23  and  C_21 
REMARK    5  A    between atoms: O_33  and  C_23 
REMARK    6  A    between atoms: N_29  and  N_31 
ROOT
HETATM    1  C   UNK N   1      36.950  13.116  11.385  0.00  0.00     0.004 A 
HETATM    2  C   UNK N   1      36.038  13.618  12.280  0.00  0.00     0.109 A 
HETATM    3  C   UNK N   1      36.551  13.591  10.129  0.00  0.00     0.075 A 
HETATM    4  N   UNK N   1      35.152  14.378  11.624  0.00  0.00    -0.288 N 
ATOM      5  HN  UNK N   1      34.377  14.879  12.059  1.00  0.00     0.188 HD
HETATM    6  N   UNK N   1      35.429  14.383  10.326  0.00  0.00    -0.253 N 
ENDROOT
BRANCH   2   7
HETATM    7  C   UNK N   1      35.941  13.325  13.722  0.00  0.00     0.184 C 
HETATM    8  N   UNK N   1      34.895  12.712  14.176  0.00  0.00    -0.280 N 
ATOM      9  HN  UNK N   1      34.123  12.543  13.531  1.00  0.00     0.189 HD
BRANCH   8  10
HETATM   10  N   UNK N   1      34.760  12.275  15.480  0.00  0.00    -0.326 N 
HETATM   11  C   UNK N   1      34.272  13.183  16.488  0.00  0.00     0.142 C 
HETATM   12  C   UNK N   1      35.250  13.181  17.661  0.00  0.00     0.021 C 
HETATM   13  C   UNK N   1      35.476  11.749  18.155  0.00  0.00     0.003 C 
HETATM   14  C   UNK N   1      35.975  10.854  17.018  0.00  0.00     0.021 C 
HETATM   15  C   UNK N   1      34.984  10.895  15.861  0.00  0.00     0.142 C 
ENDBRANCH   8  10
BRANCH   7  16
HETATM   16  O   UNK N   1      36.954  13.673  14.542  0.00  0.00    -0.343 OA
HETATM   17  H   UNK N   1      37.391  14.494  14.429  0.00  0.00     0.219 HD
ENDBRANCH   7  16
ENDBRANCH   2   7
BRANCH   1  18
HETATM   18  C   UNK N   1      38.066  12.174  11.725  0.00  0.00     0.039 C 
HETATM   19  C   UNK N   1      37.607  10.736  11.578  0.00  0.00     0.010 C 
ENDBRANCH   1  18
BRANCH   3  20
HETATM   20  C   UNK N   1      37.265  13.182   8.853  0.00  0.00    -0.007 A 
HETATM   21  C   UNK N   1      36.815  12.161   8.010  0.00  0.00     0.015 A 
HETATM   22  C   UNK N   1      37.529  11.780   6.871  0.00  0.00     0.020 A 
HETATM   23  C   UNK N   1      38.728  12.416   6.557  0.00  0.00     0.011 A 
HETATM   24  C   UNK N   1      39.207  13.430   7.381  0.00  0.00     0.020 A 
HETATM   25 Br   UNK N   1      39.714  11.894   5.013  0.00  0.00    -0.051 Br
HETATM   26  C   UNK N   1      38.483  13.802   8.515  0.00  0.00     0.015 A 
ENDBRANCH   3  20
BRANCH   6  27
HETATM   27  C   UNK N   1      34.563  15.138   9.412  0.00  0.00     0.078 A 
HETATM   28  C   UNK N   1      34.666  16.529   9.306  0.00  0.00     0.035 A 
HETATM   29  C   UNK N   1      33.888  17.270   8.418  0.00  0.00     0.026 A 
HETATM   30  C   UNK N   1      32.965  16.628   7.605  0.00  0.00     0.035 A 
HETATM   31  C   UNK N   1      32.808  15.250   7.696  0.00  0.00     0.050 A 
HETATM   32 Cl   UNK N   1      32.009  17.547   6.462  0.00  0.00    -0.084 Cl
HETATM   33  C   UNK N   1      33.581  14.494   8.583  0.00  0.00     0.064 A 
HETATM   34 Cl   UNK N   1      33.262  12.761   8.569  0.00  0.00    -0.082 Cl
ENDBRANCH   6  27
TORSDOF 6
ENDMDL
MODEL 9
REMARK VINA RESULT:      -6.8     19.666     24.280
REMARK  6 active torsions:
REMARK  status: ('A' for Active; 'I' for Inactive)
REMARK    1  A    between atoms: C_18  and  C_2 
REMARK    2  A    between atoms: C_22  and  C_15 
REMARK    3  A    between atoms: N_32  and  C_20 
REMARK    4  A    between atoms: C_23  and  C_21 
REMARK    5  A    between atoms: O_33  and  C_23 
REMARK    6  A    between atoms: N_29  and  N_31 
ROOT
HETATM    1  C   UNK N   1      29.233  24.600  -4.588  0.00  0.00     0.004 A 
HETATM    2  C   UNK N   1      29.478  23.471  -5.330  0.00  0.00     0.109 A 
HETATM    3  C   UNK N   1      28.293  25.339  -5.319  0.00  0.00     0.075 A 
HETATM    4  N   UNK N   1      28.717  23.496  -6.431  0.00  0.00    -0.288 N 
ATOM      5  HN  UNK N   1      28.699  22.768  -7.146  1.00  0.00     0.188 HD
HETATM    6  N   UNK N   1      27.992  24.607  -6.459  0.00  0.00    -0.253 N 
ENDROOT
BRANCH   2   7
HETATM    7  C   UNK N   1      30.475  22.418  -5.060  0.00  0.00     0.184 C 
HETATM    8  N   UNK N   1      31.643  22.494  -5.612  0.00  0.00    -0.280 N 
ATOM      9  HN  UNK N   1      31.801  23.231  -6.299  1.00  0.00     0.189 HD
BRANCH   8  10
HETATM   10  N   UNK N   1      32.690  21.637  -5.327  0.00  0.00    -0.326 N 
HETATM   11  C   UNK N   1      32.809  20.396  -6.050  0.00  0.00     0.142 C 
HETATM   12  C   UNK N   1      32.938  19.255  -5.042  0.00  0.00     0.021 C 
HETATM   13  C   UNK N   1      34.090  19.537  -4.072  0.00  0.00     0.003 C 
HETATM   14  C   UNK N   1      33.890  20.880  -3.366  0.00  0.00     0.021 C 
HETATM   15  C   UNK N   1      33.748  21.988  -4.401  0.00  0.00     0.142 C 
ENDBRANCH   8  10
BRANCH   7  16
HETATM   16  O   UNK N   1      30.166  21.408  -4.221  0.00  0.00    -0.343 OA
HETATM   17  H   UNK N   1      30.815  20.776  -3.986  0.00  0.00     0.219 HD
ENDBRANCH   7  16
ENDBRANCH   2   7
BRANCH   1  18
HETATM   18  C   UNK N   1      29.932  24.964  -3.312  0.00  0.00     0.039 C 
HETATM   19  C   UNK N   1      31.146  25.826  -3.603  0.00  0.00     0.010 C 
ENDBRANCH   1  18
BRANCH   3  20
HETATM   20  C   UNK N   1      27.823  26.709  -4.866  0.00  0.00    -0.007 A 
HETATM   21  C   UNK N   1      26.697  26.912  -4.062  0.00  0.00     0.015 A 
HETATM   22  C   UNK N   1      26.267  28.194  -3.709  0.00  0.00     0.020 A 
HETATM   23  C   UNK N   1      26.960  29.311  -4.169  0.00  0.00     0.011 A 
HETATM   24  C   UNK N   1      28.080  29.143  -4.979  0.00  0.00     0.020 A 
HETATM   25 Br   UNK N   1      26.373  31.062  -3.703  0.00  0.00    -0.051 Br
HETATM   26  C   UNK N   1      28.499  27.857  -5.323  0.00  0.00     0.015 A 
ENDBRANCH   3  20
BRANCH   6  27
HETATM   27  C   UNK N   1      27.099  24.852  -7.599  0.00  0.00     0.078 A 
HETATM   28  C   UNK N   1      27.300  25.944  -8.449  0.00  0.00     0.035 A 
HETATM   29  C   UNK N   1      26.496  26.181  -9.563  0.00  0.00     0.026 A 
HETATM   30  C   UNK N   1      25.447  25.320  -9.854  0.00  0.00     0.035 A 
HETATM   31  C   UNK N   1      25.192  24.238  -9.021  0.00  0.00     0.050 A 
HETATM   32 Cl   UNK N   1      24.455  25.590 -11.271  0.00  0.00    -0.084 Cl
HETATM   33  C   UNK N   1      25.991  23.989  -7.900  0.00  0.00     0.064 A 
HETATM   34 Cl   UNK N   1      25.537  22.572  -6.954  0.00  0.00    -0.082 Cl
ENDBRANCH   6  27
TORSDOF 6
ENDMDL
