MODEL 1
REMARK VINA RESULT:      -4.5      0.000      0.000
REMARK  17 active torsions:
REMARK  status: ('A' for Active; 'I' for Inactive)
REMARK    1  A    between atoms: C_2  and  N_3 
REMARK    2  A    between atoms: N_3  and  C_4 
REMARK    3  A    between atoms: C_4  and  C_5 
REMARK    4  A    between atoms: C_5  and  C_6 
REMARK    5  A    between atoms: C_6  and  C_7 
REMARK    6  A    between atoms: C_7  and  N_8 
REMARK    7  A    between atoms: N_8  and  C_9 
REMARK    8  A    between atoms: C_9  and  C_10 
REMARK    9  A    between atoms: C_10  and  C_11 
REMARK   10  A    between atoms: C_11  and  C_12 
REMARK   11  A    between atoms: C_12  and  N_13 
REMARK   12  A    between atoms: N_13  and  C_14 
REMARK   13  A    between atoms: C_14  and  C_15 
REMARK   14  A    between atoms: C_15  and  C_16 
REMARK   15  A    between atoms: C_16  and  C_17 
REMARK   16  A    between atoms: C_17  and  N_18 
REMARK   17  A    between atoms: N_18  and  C_19 
ROOT
HETATM    1  C   UNK N   1      35.247  14.364  12.123  0.00  0.00     0.021 C 
ENDROOT
BRANCH   1   2
HETATM    2  C   UNK N   1      36.424  13.614  12.728  0.00  0.00     0.113 C 
BRANCH   2   3
HETATM    3  N   UNK N   1      36.825  14.254  13.970  0.00  0.00    -0.421 N 
HETATM    4  H   UNK N   1      37.062  15.239  14.092  0.00  0.00     0.153 HD
BRANCH   3   5
HETATM    5  C   UNK N   1      36.829  13.235  15.012  0.00  0.00     0.113 C 
BRANCH   5   6
HETATM    6  C   UNK N   1      36.088  13.726  16.246  0.00  0.00     0.021 C 
BRANCH   6   7
HETATM    7  C   UNK N   1      34.995  12.746  16.634  0.00  0.00     0.021 C 
BRANCH   7   8
HETATM    8  C   UNK N   1      35.571  11.348  16.781  0.00  0.00     0.113 C 
BRANCH   8   9
HETATM    9  N   UNK N   1      34.611  10.353  16.321  0.00  0.00    -0.421 N 
HETATM   10  H   UNK N   1      33.869   9.930  16.877  0.00  0.00     0.153 HD
BRANCH   9  11
HETATM   11  C   UNK N   1      34.908  10.077  14.926  0.00  0.00     0.109 C 
HETATM   12  C   UNK N   1      33.786  10.610  14.059  0.00  0.00     0.026 C 
ENDBRANCH   9  11
ENDBRANCH   8   9
ENDBRANCH   7   8
ENDBRANCH   6   7
ENDBRANCH   5   6
ENDBRANCH   3   5
ENDBRANCH   2   3
ENDBRANCH   1   2
BRANCH   1  13
HETATM   13  C   UNK N   1      35.600  15.805  11.794  0.00  0.00     0.021 C 
BRANCH  13  14
HETATM   14  C   UNK N   1      35.642  16.052  10.292  0.00  0.00     0.113 C 
BRANCH  14  15
HETATM   15  N   UNK N   1      34.769  17.166   9.945  0.00  0.00    -0.421 N 
HETATM   16  H   UNK N   1      34.355  17.832  10.596  0.00  0.00     0.153 HD
BRANCH  15  17
HETATM   17  C   UNK N   1      34.595  17.156   8.498  0.00  0.00     0.113 C 
BRANCH  17  18
HETATM   18  C   UNK N   1      33.605  18.234   8.087  0.00  0.00     0.021 C 
BRANCH  18  19
HETATM   19  C   UNK N   1      32.328  17.610   7.561  0.00  0.00     0.021 C 
BRANCH  19  20
HETATM   20  C   UNK N   1      31.372  17.351   8.705  0.00  0.00     0.113 C 
BRANCH  20  21
HETATM   21  N   UNK N   1      30.339  18.369   8.711  0.00  0.00    -0.421 N 
HETATM   22  H   UNK N   1      30.283  19.187   8.107  0.00  0.00     0.153 HD
BRANCH  21  23
HETATM   23  C   UNK N   1      29.400  17.989   9.750  0.00  0.00     0.109 C 
HETATM   24  C   UNK N   1      28.010  17.878   9.160  0.00  0.00     0.026 C 
ENDBRANCH  21  23
ENDBRANCH  20  21
ENDBRANCH  19  20
ENDBRANCH  18  19
ENDBRANCH  17  18
ENDBRANCH  15  17
ENDBRANCH  14  15
ENDBRANCH  13  14
ENDBRANCH   1  13
TORSDOF 17
ENDMDL
MODEL 2
REMARK VINA RESULT:      -4.3      2.760     10.258
REMARK  17 active torsions:
REMARK  status: ('A' for Active; 'I' for Inactive)
REMARK    1  A    between atoms: C_2  and  N_3 
REMARK    2  A    between atoms: N_3  and  C_4 
REMARK    3  A    between atoms: C_4  and  C_5 
REMARK    4  A    between atoms: C_5  and  C_6 
REMARK    5  A    between atoms: C_6  and  C_7 
REMARK    6  A    between atoms: C_7  and  N_8 
REMARK    7  A    between atoms: N_8  and  C_9 
REMARK    8  A    between atoms: C_9  and  C_10 
REMARK    9  A    between atoms: C_10  and  C_11 
REMARK   10  A    between atoms: C_11  and  C_12 
REMARK   11  A    between atoms: C_12  and  N_13 
REMARK   12  A    between atoms: N_13  and  C_14 
REMARK   13  A    between atoms: C_14  and  C_15 
REMARK   14  A    between atoms: C_15  and  C_16 
REMARK   15  A    between atoms: C_16  and  C_17 
REMARK   16  A    between atoms: C_17  and  N_18 
REMARK   17  A    between atoms: N_18  and  C_19 
ROOT
HETATM    1  C   UNK N   1      33.035  17.994   7.835  0.00  0.00     0.021 C 
ENDROOT
BRANCH   1   2
HETATM    2  C   UNK N   1      33.361  17.526   6.424  0.00  0.00     0.113 C 
BRANCH   2   3
HETATM    3  N   UNK N   1      32.127  17.243   5.707  0.00  0.00    -0.421 N 
HETATM    4  H   UNK N   1      31.913  17.513   4.746  0.00  0.00     0.153 HD
BRANCH   3   5
HETATM    5  C   UNK N   1      31.252  16.503   6.607  0.00  0.00     0.113 C 
BRANCH   5   6
HETATM    6  C   UNK N   1      29.795  16.857   6.351  0.00  0.00     0.021 C 
BRANCH   6   7
HETATM    7  C   UNK N   1      29.662  17.661   5.070  0.00  0.00     0.021 C 
BRANCH   7   8
HETATM    8  C   UNK N   1      28.435  18.555   5.137  0.00  0.00     0.113 C 
BRANCH   8   9
HETATM    9  N   UNK N   1      28.004  18.926   3.796  0.00  0.00    -0.421 N 
HETATM   10  H   UNK N   1      28.294  18.482   2.925  0.00  0.00     0.153 HD
BRANCH   9  11
HETATM   11  C   UNK N   1      27.086  20.043   3.930  0.00  0.00     0.109 C 
HETATM   12  C   UNK N   1      27.326  20.735   5.255  0.00  0.00     0.026 C 
ENDBRANCH   9  11
ENDBRANCH   8   9
ENDBRANCH   7   8
ENDBRANCH   6   7
ENDBRANCH   5   6
ENDBRANCH   3   5
ENDBRANCH   2   3
ENDBRANCH   1   2
BRANCH   1  13
HETATM   13  C   UNK N   1      34.023  17.453   8.855  0.00  0.00     0.021 C 
BRANCH  13  14
HETATM   14  C   UNK N   1      34.621  16.121   8.418  0.00  0.00     0.113 C 
BRANCH  14  15
HETATM   15  N   UNK N   1      35.190  15.429   9.566  0.00  0.00    -0.421 N 
HETATM   16  H   UNK N   1      35.314  14.422   9.660  0.00  0.00     0.153 HD
BRANCH  15  17
HETATM   17  C   UNK N   1      35.551  16.437  10.555  0.00  0.00     0.113 C 
BRANCH  17  18
HETATM   18  C   UNK N   1      35.728  15.786  11.918  0.00  0.00     0.021 C 
BRANCH  18  19
HETATM   19  C   UNK N   1      35.106  14.404  11.930  0.00  0.00     0.021 C 
BRANCH  19  20
HETATM   20  C   UNK N   1      35.594  13.629  13.135  0.00  0.00     0.113 C 
BRANCH  20  21
HETATM   21  N   UNK N   1      36.689  14.347  13.760  0.00  0.00    -0.421 N 
HETATM   22  H   UNK N   1      37.255  15.084  13.342  0.00  0.00     0.153 HD
BRANCH  21  23
HETATM   23  C   UNK N   1      36.817  13.806  15.100  0.00  0.00     0.109 C 
HETATM   24  C   UNK N   1      35.501  13.193  15.526  0.00  0.00     0.026 C 
ENDBRANCH  21  23
ENDBRANCH  20  21
ENDBRANCH  19  20
ENDBRANCH  18  19
ENDBRANCH  17  18
ENDBRANCH  15  17
ENDBRANCH  14  15
ENDBRANCH  13  14
ENDBRANCH   1  13
TORSDOF 17
ENDMDL
MODEL 3
REMARK VINA RESULT:      -4.3      1.530      2.271
REMARK  17 active torsions:
REMARK  status: ('A' for Active; 'I' for Inactive)
REMARK    1  A    between atoms: C_2  and  N_3 
REMARK    2  A    between atoms: N_3  and  C_4 
REMARK    3  A    between atoms: C_4  and  C_5 
REMARK    4  A    between atoms: C_5  and  C_6 
REMARK    5  A    between atoms: C_6  and  C_7 
REMARK    6  A    between atoms: C_7  and  N_8 
REMARK    7  A    between atoms: N_8  and  C_9 
REMARK    8  A    between atoms: C_9  and  C_10 
REMARK    9  A    between atoms: C_10  and  C_11 
REMARK   10  A    between atoms: C_11  and  C_12 
REMARK   11  A    between atoms: C_12  and  N_13 
REMARK   12  A    between atoms: N_13  and  C_14 
REMARK   13  A    between atoms: C_14  and  C_15 
REMARK   14  A    between atoms: C_15  and  C_16 
REMARK   15  A    between atoms: C_16  and  C_17 
REMARK   16  A    between atoms: C_17  and  N_18 
REMARK   17  A    between atoms: N_18  and  C_19 
ROOT
HETATM    1  C   UNK N   1      36.268  14.230  11.160  0.00  0.00     0.021 C 
ENDROOT
BRANCH   1   2
HETATM    2  C   UNK N   1      35.526  14.288  12.487  0.00  0.00     0.113 C 
BRANCH   2   3
HETATM    3  N   UNK N   1      34.694  13.104  12.633  0.00  0.00    -0.421 N 
HETATM    4  H   UNK N   1      33.696  13.039  12.429  0.00  0.00     0.153 HD
BRANCH   3   5
HETATM    5  C   UNK N   1      35.543  12.025  13.122  0.00  0.00     0.113 C 
BRANCH   5   6
HETATM    6  C   UNK N   1      35.069  11.545  14.485  0.00  0.00     0.021 C 
BRANCH   6   7
HETATM    7  C   UNK N   1      35.711  12.365  15.590  0.00  0.00     0.021 C 
BRANCH   7   8
HETATM    8  C   UNK N   1      34.653  13.168  16.329  0.00  0.00     0.113 C 
BRANCH   8   9
HETATM    9  N   UNK N   1      34.993  13.273  17.741  0.00  0.00    -0.421 N 
HETATM   10  H   UNK N   1      35.072  14.136  18.280  0.00  0.00     0.153 HD
BRANCH   9  11
HETATM   11  C   UNK N   1      35.200  11.925  18.239  0.00  0.00     0.109 C 
HETATM   12  C   UNK N   1      35.549  11.980  19.712  0.00  0.00     0.026 C 
ENDBRANCH   9  11
ENDBRANCH   8   9
ENDBRANCH   7   8
ENDBRANCH   6   7
ENDBRANCH   5   6
ENDBRANCH   3   5
ENDBRANCH   2   3
ENDBRANCH   1   2
BRANCH   1  13
HETATM   13  C   UNK N   1      36.260  15.571  10.445  0.00  0.00     0.021 C 
BRANCH  13  14
HETATM   14  C   UNK N   1      35.090  16.443  10.884  0.00  0.00     0.113 C 
BRANCH  14  15
HETATM   15  N   UNK N   1      34.094  16.513   9.824  0.00  0.00    -0.421 N 
HETATM   16  H   UNK N   1      33.251  15.944   9.752  0.00  0.00     0.153 HD
BRANCH  15  17
HETATM   17  C   UNK N   1      34.519  17.543   8.886  0.00  0.00     0.113 C 
BRANCH  17  18
HETATM   18  C   UNK N   1      33.337  17.998   8.044  0.00  0.00     0.021 C 
BRANCH  18  19
HETATM   19  C   UNK N   1      32.271  16.922   8.002  0.00  0.00     0.021 C 
BRANCH  19  20
HETATM   20  C   UNK N   1      30.901  17.546   8.154  0.00  0.00     0.113 C 
BRANCH  20  21
HETATM   21  N   UNK N   1      30.792  18.160   9.463  0.00  0.00    -0.421 N 
HETATM   22  H   UNK N   1      31.553  18.354  10.113  0.00  0.00     0.153 HD
BRANCH  21  23
HETATM   23  C   UNK N   1      29.384  18.442   9.664  0.00  0.00     0.109 C 
HETATM   24  C   UNK N   1      28.696  18.563   8.322  0.00  0.00     0.026 C 
ENDBRANCH  21  23
ENDBRANCH  20  21
ENDBRANCH  19  20
ENDBRANCH  18  19
ENDBRANCH  17  18
ENDBRANCH  15  17
ENDBRANCH  14  15
ENDBRANCH  13  14
ENDBRANCH   1  13
TORSDOF 17
ENDMDL
MODEL 4
REMARK VINA RESULT:      -4.3     17.899     21.658
REMARK  17 active torsions:
REMARK  status: ('A' for Active; 'I' for Inactive)
REMARK    1  A    between atoms: C_2  and  N_3 
REMARK    2  A    between atoms: N_3  and  C_4 
REMARK    3  A    between atoms: C_4  and  C_5 
REMARK    4  A    between atoms: C_5  and  C_6 
REMARK    5  A    between atoms: C_6  and  C_7 
REMARK    6  A    between atoms: C_7  and  N_8 
REMARK    7  A    between atoms: N_8  and  C_9 
REMARK    8  A    between atoms: C_9  and  C_10 
REMARK    9  A    between atoms: C_10  and  C_11 
REMARK   10  A    between atoms: C_11  and  C_12 
REMARK   11  A    between atoms: C_12  and  N_13 
REMARK   12  A    between atoms: N_13  and  C_14 
REMARK   13  A    between atoms: C_14  and  C_15 
REMARK   14  A    between atoms: C_15  and  C_16 
REMARK   15  A    between atoms: C_16  and  C_17 
REMARK   16  A    between atoms: C_17  and  N_18 
REMARK   17  A    between atoms: N_18  and  C_19 
ROOT
HETATM    1  C   UNK N   1      27.244  23.605  -5.602  0.00  0.00     0.021 C 
ENDROOT
BRANCH   1   2
HETATM    2  C   UNK N   1      26.528  23.996  -6.886  0.00  0.00     0.113 C 
BRANCH   2   3
HETATM    3  N   UNK N   1      25.376  24.825  -6.569  0.00  0.00    -0.421 N 
HETATM    4  H   UNK N   1      24.493  24.504  -6.170  0.00  0.00     0.153 HD
BRANCH   3   5
HETATM    5  C   UNK N   1      25.708  26.199  -6.925  0.00  0.00     0.113 C 
BRANCH   5   6
HETATM    6  C   UNK N   1      25.022  27.178  -5.987  0.00  0.00     0.021 C 
BRANCH   6   7
HETATM    7  C   UNK N   1      26.039  27.842  -5.075  0.00  0.00     0.021 C 
BRANCH   7   8
HETATM    8  C   UNK N   1      25.557  27.804  -3.635  0.00  0.00     0.113 C 
BRANCH   8   9
HETATM    9  N   UNK N   1      26.682  27.945  -2.720  0.00  0.00    -0.421 N 
HETATM   10  H   UNK N   1      26.981  27.264  -2.022  0.00  0.00     0.153 HD
BRANCH   9  11
HETATM   11  C   UNK N   1      27.298  29.232  -2.988  0.00  0.00     0.109 C 
HETATM   12  C   UNK N   1      28.049  29.696  -1.757  0.00  0.00     0.026 C 
ENDBRANCH   9  11
ENDBRANCH   8   9
ENDBRANCH   7   8
ENDBRANCH   6   7
ENDBRANCH   5   6
ENDBRANCH   3   5
ENDBRANCH   2   3
ENDBRANCH   1   2
BRANCH   1  13
HETATM   13  C   UNK N   1      26.497  24.080  -4.367  0.00  0.00     0.021 C 
BRANCH  13  14
HETATM   14  C   UNK N   1      27.397  24.126  -3.139  0.00  0.00     0.113 C 
BRANCH  14  15
HETATM   15  N   UNK N   1      28.746  23.707  -3.493  0.00  0.00    -0.421 N 
HETATM   16  H   UNK N   1      29.202  23.843  -4.394  0.00  0.00     0.153 HD
BRANCH  15  17
HETATM   17  C   UNK N   1      29.328  23.058  -2.325  0.00  0.00     0.113 C 
BRANCH  17  18
HETATM   18  C   UNK N   1      30.696  22.492  -2.672  0.00  0.00     0.021 C 
BRANCH  18  19
HETATM   19  C   UNK N   1      30.552  21.200  -3.451  0.00  0.00     0.021 C 
BRANCH  19  20
HETATM   20  C   UNK N   1      31.556  21.165  -4.583  0.00  0.00     0.113 C 
BRANCH  20  21
HETATM   21  N   UNK N   1      31.056  20.315  -5.646  0.00  0.00    -0.421 N 
HETATM   22  H   UNK N   1      31.441  19.420  -5.946  0.00  0.00     0.153 HD
BRANCH  21  23
HETATM   23  C   UNK N   1      29.897  20.991  -6.197  0.00  0.00     0.109 C 
HETATM   24  C   UNK N   1      30.349  22.149  -7.060  0.00  0.00     0.026 C 
ENDBRANCH  21  23
ENDBRANCH  20  21
ENDBRANCH  19  20
ENDBRANCH  18  19
ENDBRANCH  17  18
ENDBRANCH  15  17
ENDBRANCH  14  15
ENDBRANCH  13  14
ENDBRANCH   1  13
TORSDOF 17
ENDMDL
MODEL 5
REMARK VINA RESULT:      -4.3      4.249      8.254
REMARK  17 active torsions:
REMARK  status: ('A' for Active; 'I' for Inactive)
REMARK    1  A    between atoms: C_2  and  N_3 
REMARK    2  A    between atoms: N_3  and  C_4 
REMARK    3  A    between atoms: C_4  and  C_5 
REMARK    4  A    between atoms: C_5  and  C_6 
REMARK    5  A    between atoms: C_6  and  C_7 
REMARK    6  A    between atoms: C_7  and  N_8 
REMARK    7  A    between atoms: N_8  and  C_9 
REMARK    8  A    between atoms: C_9  and  C_10 
REMARK    9  A    between atoms: C_10  and  C_11 
REMARK   10  A    between atoms: C_11  and  C_12 
REMARK   11  A    between atoms: C_12  and  N_13 
REMARK   12  A    between atoms: N_13  and  C_14 
REMARK   13  A    between atoms: C_14  and  C_15 
REMARK   14  A    between atoms: C_15  and  C_16 
REMARK   15  A    between atoms: C_16  and  C_17 
REMARK   16  A    between atoms: C_17  and  N_18 
REMARK   17  A    between atoms: N_18  and  C_19 
ROOT
HETATM    1  C   UNK N   1      29.874  17.046   7.368  0.00  0.00     0.021 C 
ENDROOT
BRANCH   1   2
HETATM    2  C   UNK N   1      30.108  18.129   8.411  0.00  0.00     0.113 C 
BRANCH   2   3
HETATM    3  N   UNK N   1      31.387  17.905   9.069  0.00  0.00    -0.421 N 
HETATM    4  H   UNK N   1      31.661  18.251   9.988  0.00  0.00     0.153 HD
BRANCH   3   5
HETATM    5  C   UNK N   1      32.206  17.094   8.176  0.00  0.00     0.113 C 
BRANCH   5   6
HETATM    6  C   UNK N   1      33.273  17.946   7.505  0.00  0.00     0.021 C 
BRANCH   6   7
HETATM    7  C   UNK N   1      34.517  18.019   8.373  0.00  0.00     0.021 C 
BRANCH   7   8
HETATM    8  C   UNK N   1      34.635  16.768   9.227  0.00  0.00     0.113 C 
BRANCH   8   9
HETATM    9  N   UNK N   1      34.940  17.123  10.607  0.00  0.00    -0.421 N 
HETATM   10  H   UNK N   1      34.761  18.023  11.051  0.00  0.00     0.153 HD
BRANCH   9  11
HETATM   11  C   UNK N   1      35.544  15.959  11.230  0.00  0.00     0.109 C 
HETATM   12  C   UNK N   1      36.341  15.191  10.196  0.00  0.00     0.026 C 
ENDBRANCH   9  11
ENDBRANCH   8   9
ENDBRANCH   7   8
ENDBRANCH   6   7
ENDBRANCH   5   6
ENDBRANCH   3   5
ENDBRANCH   2   3
ENDBRANCH   1   2
BRANCH   1  13
HETATM   13  C   UNK N   1      28.558  17.241   6.634  0.00  0.00     0.021 C 
BRANCH  13  14
HETATM   14  C   UNK N   1      28.770  17.695   5.196  0.00  0.00     0.113 C 
BRANCH  14  15
HETATM   15  N   UNK N   1      27.705  17.178   4.347  0.00  0.00    -0.421 N 
HETATM   16  H   UNK N   1      27.776  16.971   3.351  0.00  0.00     0.153 HD
BRANCH  15  17
HETATM   17  C   UNK N   1      26.520  17.010   5.178  0.00  0.00     0.113 C 
BRANCH  17  18
HETATM   18  C   UNK N   1      25.273  17.361   4.381  0.00  0.00     0.021 C 
BRANCH  18  19
HETATM   19  C   UNK N   1      25.578  18.451   3.373  0.00  0.00     0.021 C 
BRANCH  19  20
HETATM   20  C   UNK N   1      25.152  19.795   3.922  0.00  0.00     0.113 C 
BRANCH  20  21
HETATM   21  N   UNK N   1      26.328  20.562   4.288  0.00  0.00    -0.421 N 
HETATM   22  H   UNK N   1      27.064  20.889   3.663  0.00  0.00     0.153 HD
BRANCH  21  23
HETATM   23  C   UNK N   1      26.247  20.771   5.721  0.00  0.00     0.109 C 
HETATM   24  C   UNK N   1      27.631  21.046   6.271  0.00  0.00     0.026 C 
ENDBRANCH  21  23
ENDBRANCH  20  21
ENDBRANCH  19  20
ENDBRANCH  18  19
ENDBRANCH  17  18
ENDBRANCH  15  17
ENDBRANCH  14  15
ENDBRANCH  13  14
ENDBRANCH   1  13
TORSDOF 17
ENDMDL
MODEL 6
REMARK VINA RESULT:      -4.2      1.734      2.517
REMARK  17 active torsions:
REMARK  status: ('A' for Active; 'I' for Inactive)
REMARK    1  A    between atoms: C_2  and  N_3 
REMARK    2  A    between atoms: N_3  and  C_4 
REMARK    3  A    between atoms: C_4  and  C_5 
REMARK    4  A    between atoms: C_5  and  C_6 
REMARK    5  A    between atoms: C_6  and  C_7 
REMARK    6  A    between atoms: C_7  and  N_8 
REMARK    7  A    between atoms: N_8  and  C_9 
REMARK    8  A    between atoms: C_9  and  C_10 
REMARK    9  A    between atoms: C_10  and  C_11 
REMARK   10  A    between atoms: C_11  and  C_12 
REMARK   11  A    between atoms: C_12  and  N_13 
REMARK   12  A    between atoms: N_13  and  C_14 
REMARK   13  A    between atoms: C_14  and  C_15 
REMARK   14  A    between atoms: C_15  and  C_16 
REMARK   15  A    between atoms: C_16  and  C_17 
REMARK   16  A    between atoms: C_17  and  N_18 
REMARK   17  A    between atoms: N_18  and  C_19 
ROOT
HETATM    1  C   UNK N   1      36.159  14.102  11.352  0.00  0.00     0.021 C 
ENDROOT
BRANCH   1   2
HETATM    2  C   UNK N   1      36.066  14.754  12.723  0.00  0.00     0.113 C 
BRANCH   2   3
HETATM    3  N   UNK N   1      35.882  13.730  13.740  0.00  0.00    -0.421 N 
HETATM    4  H   UNK N   1      35.362  12.859  13.630  0.00  0.00     0.153 HD
BRANCH   3   5
HETATM    5  C   UNK N   1      36.573  14.173  14.944  0.00  0.00     0.113 C 
BRANCH   5   6
HETATM    6  C   UNK N   1      36.012  13.475  16.173  0.00  0.00     0.021 C 
BRANCH   6   7
HETATM    7  C   UNK N   1      34.840  12.589  15.791  0.00  0.00     0.021 C 
BRANCH   7   8
HETATM    8  C   UNK N   1      35.077  11.168  16.274  0.00  0.00     0.113 C 
BRANCH   8   9
HETATM    9  N   UNK N   1      36.503  10.874  16.304  0.00  0.00    -0.421 N 
HETATM   10  H   UNK N   1      37.160  11.146  17.035  0.00  0.00     0.153 HD
BRANCH   9  11
HETATM   11  C   UNK N   1      36.815  10.124  15.100  0.00  0.00     0.109 C 
HETATM   12  C   UNK N   1      38.030  10.732  14.430  0.00  0.00     0.026 C 
ENDBRANCH   9  11
ENDBRANCH   8   9
ENDBRANCH   7   8
ENDBRANCH   6   7
ENDBRANCH   5   6
ENDBRANCH   3   5
ENDBRANCH   2   3
ENDBRANCH   1   2
BRANCH   1  13
HETATM   13  C   UNK N   1      35.926  15.101  10.231  0.00  0.00     0.021 C 
BRANCH  13  14
HETATM   14  C   UNK N   1      35.647  16.501  10.764  0.00  0.00     0.113 C 
BRANCH  14  15
HETATM   15  N   UNK N   1      34.389  16.999  10.225  0.00  0.00    -0.421 N 
HETATM   16  H   UNK N   1      33.545  17.204  10.758  0.00  0.00     0.153 HD
BRANCH  15  17
HETATM   17  C   UNK N   1      34.555  17.151   8.785  0.00  0.00     0.113 C 
BRANCH  17  18
HETATM   18  C   UNK N   1      33.366  17.897   8.201  0.00  0.00     0.021 C 
BRANCH  18  19
HETATM   19  C   UNK N   1      32.087  17.115   8.427  0.00  0.00     0.021 C 
BRANCH  19  20
HETATM   20  C   UNK N   1      31.178  17.255   7.225  0.00  0.00     0.113 C 
BRANCH  20  21
HETATM   21  N   UNK N   1      31.700  16.464   6.128  0.00  0.00    -0.421 N 
HETATM   22  H   UNK N   1      32.126  15.540   6.189  0.00  0.00     0.153 HD
BRANCH  21  23
HETATM   23  C   UNK N   1      31.494  17.248   4.926  0.00  0.00     0.109 C 
HETATM   24  C   UNK N   1      32.833  17.575   4.300  0.00  0.00     0.026 C 
ENDBRANCH  21  23
ENDBRANCH  20  21
ENDBRANCH  19  20
ENDBRANCH  18  19
ENDBRANCH  17  18
ENDBRANCH  15  17
ENDBRANCH  14  15
ENDBRANCH  13  14
ENDBRANCH   1  13
TORSDOF 17
ENDMDL
MODEL 7
REMARK VINA RESULT:      -4.2     17.328     20.410
REMARK  17 active torsions:
REMARK  status: ('A' for Active; 'I' for Inactive)
REMARK    1  A    between atoms: C_2  and  N_3 
REMARK    2  A    between atoms: N_3  and  C_4 
REMARK    3  A    between atoms: C_4  and  C_5 
REMARK    4  A    between atoms: C_5  and  C_6 
REMARK    5  A    between atoms: C_6  and  C_7 
REMARK    6  A    between atoms: C_7  and  N_8 
REMARK    7  A    between atoms: N_8  and  C_9 
REMARK    8  A    between atoms: C_9  and  C_10 
REMARK    9  A    between atoms: C_10  and  C_11 
REMARK   10  A    between atoms: C_11  and  C_12 
REMARK   11  A    between atoms: C_12  and  N_13 
REMARK   12  A    between atoms: N_13  and  C_14 
REMARK   13  A    between atoms: C_14  and  C_15 
REMARK   14  A    between atoms: C_15  and  C_16 
REMARK   15  A    between atoms: C_16  and  C_17 
REMARK   16  A    between atoms: C_17  and  N_18 
REMARK   17  A    between atoms: N_18  and  C_19 
ROOT
HETATM    1  C   UNK N   1      28.471  23.360  -5.462  0.00  0.00     0.021 C 
ENDROOT
BRANCH   1   2
HETATM    2  C   UNK N   1      28.666  24.155  -4.180  0.00  0.00     0.113 C 
BRANCH   2   3
HETATM    3  N   UNK N   1      29.133  23.271  -3.124  0.00  0.00    -0.421 N 
HETATM    4  H   UNK N   1      28.583  22.932  -2.335  0.00  0.00     0.153 HD
BRANCH   3   5
HETATM    5  C   UNK N   1      30.530  22.958  -3.395  0.00  0.00     0.113 C 
BRANCH   5   6
HETATM    6  C   UNK N   1      30.763  21.456  -3.349  0.00  0.00     0.021 C 
BRANCH   6   7
HETATM    7  C   UNK N   1      30.927  20.901  -4.753  0.00  0.00     0.021 C 
BRANCH   7   8
HETATM    8  C   UNK N   1      32.385  20.562  -5.015  0.00  0.00     0.113 C 
BRANCH   8   9
HETATM    9  N   UNK N   1      32.762  19.354  -4.295  0.00  0.00    -0.421 N 
HETATM   10  H   UNK N   1      32.139  18.591  -4.029  0.00  0.00     0.153 HD
BRANCH   9  11
HETATM   11  C   UNK N   1      34.187  19.437  -4.025  0.00  0.00     0.109 C 
HETATM   12  C   UNK N   1      34.589  20.890  -3.889  0.00  0.00     0.026 C 
ENDBRANCH   9  11
ENDBRANCH   8   9
ENDBRANCH   7   8
ENDBRANCH   6   7
ENDBRANCH   5   6
ENDBRANCH   3   5
ENDBRANCH   2   3
ENDBRANCH   1   2
BRANCH   1  13
HETATM   13  C   UNK N   1      27.079  23.548  -6.042  0.00  0.00     0.021 C 
BRANCH  13  14
HETATM   14  C   UNK N   1      26.065  23.934  -4.972  0.00  0.00     0.113 C 
BRANCH  14  15
HETATM   15  N   UNK N   1      25.198  24.995  -5.466  0.00  0.00    -0.421 N 
HETATM   16  H   UNK N   1      24.361  25.351  -5.006  0.00  0.00     0.153 HD
BRANCH  15  17
HETATM   17  C   UNK N   1      25.744  25.457  -6.736  0.00  0.00     0.113 C 
BRANCH  17  18
HETATM   18  C   UNK N   1      25.899  26.969  -6.715  0.00  0.00     0.021 C 
BRANCH  18  19
HETATM   19  C   UNK N   1      25.350  27.540  -5.424  0.00  0.00     0.021 C 
BRANCH  19  20
HETATM   20  C   UNK N   1      26.331  28.534  -4.841  0.00  0.00     0.113 C 
BRANCH  20  21
HETATM   21  N   UNK N   1      25.896  28.921  -3.512  0.00  0.00    -0.421 N 
HETATM   22  H   UNK N   1      25.189  28.460  -2.942  0.00  0.00     0.153 HD
BRANCH  21  23
HETATM   23  C   UNK N   1      26.668  30.096  -3.157  0.00  0.00     0.109 C 
HETATM   24  C   UNK N   1      27.164  30.776  -4.416  0.00  0.00     0.026 C 
ENDBRANCH  21  23
ENDBRANCH  20  21
ENDBRANCH  19  20
ENDBRANCH  18  19
ENDBRANCH  17  18
ENDBRANCH  15  17
ENDBRANCH  14  15
ENDBRANCH  13  14
ENDBRANCH   1  13
TORSDOF 17
ENDMDL
MODEL 8
REMARK VINA RESULT:      -4.2      2.145      9.178
REMARK  17 active torsions:
REMARK  status: ('A' for Active; 'I' for Inactive)
REMARK    1  A    between atoms: C_2  and  N_3 
REMARK    2  A    between atoms: N_3  and  C_4 
REMARK    3  A    between atoms: C_4  and  C_5 
REMARK    4  A    between atoms: C_5  and  C_6 
REMARK    5  A    between atoms: C_6  and  C_7 
REMARK    6  A    between atoms: C_7  and  N_8 
REMARK    7  A    between atoms: N_8  and  C_9 
REMARK    8  A    between atoms: C_9  and  C_10 
REMARK    9  A    between atoms: C_10  and  C_11 
REMARK   10  A    between atoms: C_11  and  C_12 
REMARK   11  A    between atoms: C_12  and  N_13 
REMARK   12  A    between atoms: N_13  and  C_14 
REMARK   13  A    between atoms: C_14  and  C_15 
REMARK   14  A    between atoms: C_15  and  C_16 
REMARK   15  A    between atoms: C_16  and  C_17 
REMARK   16  A    between atoms: C_17  and  N_18 
REMARK   17  A    between atoms: N_18  and  C_19 
ROOT
HETATM    1  C   UNK N   1      32.572  16.369   8.370  0.00  0.00     0.021 C 
ENDROOT
BRANCH   1   2
HETATM    2  C   UNK N   1      32.136  16.406   6.913  0.00  0.00     0.113 C 
BRANCH   2   3
HETATM    3  N   UNK N   1      31.325  15.235   6.616  0.00  0.00    -0.421 N 
HETATM    4  H   UNK N   1      31.498  14.284   6.942  0.00  0.00     0.153 HD
BRANCH   3   5
HETATM    5  C   UNK N   1      30.220  15.666   5.769  0.00  0.00     0.113 C 
BRANCH   5   6
HETATM    6  C   UNK N   1      30.260  17.172   5.559  0.00  0.00     0.021 C 
BRANCH   6   7
HETATM    7  C   UNK N   1      28.912  17.790   5.887  0.00  0.00     0.021 C 
BRANCH   7   8
HETATM    8  C   UNK N   1      28.362  17.196   7.174  0.00  0.00     0.113 C 
BRANCH   8   9
HETATM    9  N   UNK N   1      27.772  18.240   8.001  0.00  0.00    -0.421 N 
HETATM   10  H   UNK N   1      27.133  18.969   7.687  0.00  0.00     0.153 HD
BRANCH   9  11
HETATM   11  C   UNK N   1      28.263  18.049   9.354  0.00  0.00     0.109 C 
HETATM   12  C   UNK N   1      29.693  18.540   9.445  0.00  0.00     0.026 C 
ENDBRANCH   9  11
ENDBRANCH   8   9
ENDBRANCH   7   8
ENDBRANCH   6   7
ENDBRANCH   5   6
ENDBRANCH   3   5
ENDBRANCH   2   3
ENDBRANCH   1   2
BRANCH   1  13
HETATM   13  C   UNK N   1      32.849  14.952   8.844  0.00  0.00     0.021 C 
BRANCH  13  14
HETATM   14  C   UNK N   1      33.666  14.931  10.129  0.00  0.00     0.113 C 
BRANCH  14  15
HETATM   15  N   UNK N   1      34.341  16.209  10.313  0.00  0.00    -0.421 N 
HETATM   16  H   UNK N   1      34.155  17.068   9.796  0.00  0.00     0.153 HD
BRANCH  15  17
HETATM   17  C   UNK N   1      35.330  16.039  11.370  0.00  0.00     0.113 C 
BRANCH  17  18
HETATM   18  C   UNK N   1      35.521  14.560  11.668  0.00  0.00     0.021 C 
BRANCH  18  19
HETATM   19  C   UNK N   1      36.162  14.372  13.028  0.00  0.00     0.021 C 
BRANCH  19  20
HETATM   20  C   UNK N   1      35.457  13.265  13.782  0.00  0.00     0.113 C 
BRANCH  20  21
HETATM   21  N   UNK N   1      34.622  12.512  12.866  0.00  0.00    -0.421 N 
HETATM   22  H   UNK N   1      34.049  12.887  12.112  0.00  0.00     0.153 HD
BRANCH  21  23
HETATM   23  C   UNK N   1      34.766  11.117  13.238  0.00  0.00     0.109 C 
HETATM   24  C   UNK N   1      33.701  10.750  14.247  0.00  0.00     0.026 C 
ENDBRANCH  21  23
ENDBRANCH  20  21
ENDBRANCH  19  20
ENDBRANCH  18  19
ENDBRANCH  17  18
ENDBRANCH  15  17
ENDBRANCH  14  15
ENDBRANCH  13  14
ENDBRANCH   1  13
TORSDOF 17
ENDMDL
MODEL 9
REMARK VINA RESULT:      -4.2      1.816      9.715
REMARK  17 active torsions:
REMARK  status: ('A' for Active; 'I' for Inactive)
REMARK    1  A    between atoms: C_2  and  N_3 
REMARK    2  A    between atoms: N_3  and  C_4 
REMARK    3  A    between atoms: C_4  and  C_5 
REMARK    4  A    between atoms: C_5  and  C_6 
REMARK    5  A    between atoms: C_6  and  C_7 
REMARK    6  A    between atoms: C_7  and  N_8 
REMARK    7  A    between atoms: N_8  and  C_9 
REMARK    8  A    between atoms: C_9  and  C_10 
REMARK    9  A    between atoms: C_10  and  C_11 
REMARK   10  A    between atoms: C_11  and  C_12 
REMARK   11  A    between atoms: C_12  and  N_13 
REMARK   12  A    between atoms: N_13  and  C_14 
REMARK   13  A    between atoms: C_14  and  C_15 
REMARK   14  A    between atoms: C_15  and  C_16 
REMARK   15  A    between atoms: C_16  and  C_17 
REMARK   16  A    between atoms: C_17  and  N_18 
REMARK   17  A    between atoms: N_18  and  C_19 
ROOT
HETATM    1  C   UNK N   1      33.632  14.626   9.374  0.00  0.00     0.021 C 
ENDROOT
BRANCH   1   2
HETATM    2  C   UNK N   1      32.499  15.592   9.061  0.00  0.00     0.113 C 
BRANCH   2   3
HETATM    3  N   UNK N   1      32.971  16.961   9.200  0.00  0.00    -0.421 N 
HETATM    4  H   UNK N   1      33.767  17.270   9.758  0.00  0.00     0.153 HD
BRANCH   3   5
HETATM    5  C   UNK N   1      32.102  17.811   8.396  0.00  0.00     0.113 C 
BRANCH   5   6
HETATM    6  C   UNK N   1      30.651  17.377   8.532  0.00  0.00     0.021 C 
BRANCH   6   7
HETATM    7  C   UNK N   1      29.823  18.482   9.165  0.00  0.00     0.021 C 
BRANCH   7   8
HETATM    8  C   UNK N   1      28.346  18.135   9.098  0.00  0.00     0.113 C 
BRANCH   8   9
HETATM    9  N   UNK N   1      27.614  19.168   8.378  0.00  0.00    -0.421 N 
HETATM   10  H   UNK N   1      27.012  19.880   8.790  0.00  0.00     0.153 HD
BRANCH   9  11
HETATM   11  C   UNK N   1      27.901  18.995   6.964  0.00  0.00     0.109 C 
HETATM   12  C   UNK N   1      27.530  20.260   6.218  0.00  0.00     0.026 C 
ENDBRANCH   9  11
ENDBRANCH   8   9
ENDBRANCH   7   8
ENDBRANCH   6   7
ENDBRANCH   5   6
ENDBRANCH   3   5
ENDBRANCH   2   3
ENDBRANCH   1   2
BRANCH   1  13
HETATM   13  C   UNK N   1      34.730  15.284  10.192  0.00  0.00     0.021 C 
BRANCH  13  14
HETATM   14  C   UNK N   1      34.940  14.586  11.530  0.00  0.00     0.113 C 
BRANCH  14  15
HETATM   15  N   UNK N   1      36.292  14.050  11.606  0.00  0.00    -0.421 N 
HETATM   16  H   UNK N   1      36.995  14.081  10.868  0.00  0.00     0.153 HD
BRANCH  15  17
HETATM   17  C   UNK N   1      36.460  13.462  12.929  0.00  0.00     0.113 C 
BRANCH  17  18
HETATM   18  C   UNK N   1      36.473  14.556  13.985  0.00  0.00     0.021 C 
BRANCH  18  19
HETATM   19  C   UNK N   1      36.773  13.971  15.351  0.00  0.00     0.021 C 
BRANCH  19  20
HETATM   20  C   UNK N   1      36.711  12.460  15.290  0.00  0.00     0.113 C 
BRANCH  20  21
HETATM   21  N   UNK N   1      35.871  11.967  16.365  0.00  0.00    -0.421 N 
HETATM   22  H   UNK N   1      35.265  12.520  16.970  0.00  0.00     0.153 HD
BRANCH  21  23
HETATM   23  C   UNK N   1      36.064  10.530  16.406  0.00  0.00     0.109 C 
HETATM   24  C   UNK N   1      35.128   9.924  17.429  0.00  0.00     0.026 C 
ENDBRANCH  21  23
ENDBRANCH  20  21
ENDBRANCH  19  20
ENDBRANCH  18  19
ENDBRANCH  17  18
ENDBRANCH  15  17
ENDBRANCH  14  15
ENDBRANCH  13  14
ENDBRANCH   1  13
TORSDOF 17
ENDMDL
