REMARK  0 active torsions:
REMARK  status: ('A' for Active; 'I' for Inactive)
ROOT
HETATM    1  C   UNK N   1       4.571  -2.553   0.330  0.00  0.00     0.010 C 
HETATM    2  C   UNK N   1      -0.453   0.194  -0.794  0.00  0.00     0.021 C 
HETATM    3  C   UNK N   1       6.140   3.946   0.545  0.00  0.00     0.082 C 
HETATM    4  C   UNK N   1       2.742  -1.807  -1.161  0.00  0.00     0.005 C 
HETATM    5  C   UNK N   1       2.246  -0.627  -2.044  0.00  0.00     0.009 C 
HETATM    6  C   UNK N   1       5.444   0.250   0.754  0.00  0.00     0.014 C 
HETATM    7  C   UNK N   1       6.229   1.498   0.339  0.00  0.00     0.071 C 
HETATM    8  C   UNK N   1       3.605  -1.405   0.067  0.00  0.00    -0.011 C 
HETATM    9  C   UNK N   1       0.921   0.352  -0.151  0.00  0.00     0.089 C 
HETATM   10  C   UNK N   1       4.349  -0.107  -0.253  0.00  0.00     0.033 C 
HETATM   11  C   UNK N   1       2.034   0.646  -1.217  0.00  0.00     0.042 C 
HETATM   12  C   UNK N   1       0.941   1.380   0.937  0.00  0.00     0.265 C 
HETATM   13  C   UNK N   1       3.089   2.173   0.514  0.00  0.00     0.311 C 
HETATM   14  C   UNK N   1       5.313   2.722   0.212  0.00  0.00     0.196 C 
HETATM   15  C   UNK N   1       3.413   1.118  -0.610  0.00  0.00     0.154 C 
HETATM   16  O   UNK N   1      -0.087   1.892   1.357  0.00  0.00    -0.265 OA
HETATM   17  O   UNK N   1       2.138   1.767   1.423  0.00  0.00    -0.286 OA
HETATM   18  O   UNK N   1       4.256   2.633   1.160  0.00  0.00    -0.319 OA
HETATM   19  O   UNK N   1       4.813   2.898  -1.121  0.00  0.00    -0.200 OA
HETATM   20  O   UNK N   1       4.184   1.804  -1.598  0.00  0.00    -0.221 OA
ENDROOT
TORSDOF 0
