MODEL 1
REMARK VINA RESULT:      -8.1      0.000      0.000
REMARK  4 active torsions:
REMARK  status: ('A' for Active; 'I' for Inactive)
REMARK    1  A    between atoms: C_8  and  C_10 
REMARK       I    between atoms: C_10  and  N_12 
REMARK    2  A    between atoms: N_15  and  C_18 
REMARK    3  A    between atoms: C_18  and  C_19 
REMARK    4  A    between atoms: C_19  and  C_20 
ROOT
HETATM    1  C   UNK N   1      33.849  10.805  14.487  0.00  0.00     0.002 A 
HETATM    2  C   UNK N   1      34.193  11.619  15.569  0.00  0.00     0.015 A 
HETATM    3  C   UNK N   1      35.278  12.486  15.395  0.00  0.00     0.014 A 
HETATM    4  C   UNK N   1      35.841  13.409  16.206  0.00  0.00     0.072 A 
HETATM    5  C   UNK N   1      36.903  13.983  15.537  0.00  0.00     0.112 A 
HETATM    6  N   UNK N   1      36.995  13.435  14.322  0.00  0.00    -0.363 N 
HETATM    7  C   UNK N   1      35.991  12.551  14.252  0.00  0.00     0.059 A 
HETATM    8  C   UNK N   1      35.718  11.795  13.186  0.00  0.00     0.059 A 
HETATM    9  C   UNK N   1      34.605  10.903  13.308  0.00  0.00     0.019 A 
HETATM   10  C   UNK N   1      35.418  13.782  17.488  0.00  0.00     0.102 C 
HETATM   11  N   UNK N   1      35.097  14.111  18.542  0.00  0.00    -0.191 NA
HETATM   12  H   UNK N   1      37.660  13.638  13.626  0.00  0.00     0.165 HD
ENDROOT
BRANCH   8  13
HETATM   13  C   UNK N   1      36.639  11.971  12.020  0.00  0.00     0.256 C 
HETATM   14  O   UNK N   1      37.833  11.734  12.157  0.00  0.00    -0.267 OA
HETATM   15  N   UNK N   1      36.176  12.349  10.812  0.00  0.00    -0.345 N 
HETATM   16  C   UNK N   1      37.070  12.959   9.882  0.00  0.00     0.156 C 
HETATM   17  C   UNK N   1      34.799  12.642  10.655  0.00  0.00     0.156 C 
HETATM   18  C   UNK N   1      36.733  14.453   9.922  0.00  0.00     0.292 C 
HETATM   19  N   UNK N   1      35.870  14.826  11.088  0.00  0.00     0.091 N 
HETATM   20  C   UNK N   1      34.713  13.943  11.378  0.00  0.00     0.292 C 
BRANCH  19  21
HETATM   21  C   UNK N   1      35.206  16.021  10.694  0.00  0.00     0.277 C 
BRANCH  21  22
HETATM   22  C   UNK N   1      35.221  16.064   9.173  0.00  0.00     0.068 C 
BRANCH  22  23
HETATM   23  C   UNK N   1      34.017  16.595   8.854  0.00  0.00    -0.056 A 
HETATM   24  C   UNK N   1      32.961  15.744   9.026  0.00  0.00     0.010 A 
HETATM   25  C   UNK N   1      31.712  16.195   8.738  0.00  0.00     0.043 A 
HETATM   26  C   UNK N   1      31.548  17.495   8.271  0.00  0.00     0.116 A 
HETATM   27  C   UNK N   1      32.644  18.342   8.046  0.00  0.00     0.043 A 
HETATM   28  F   UNK N   1      30.305  17.947   8.091  0.00  0.00    -0.206 F 
HETATM   29  C   UNK N   1      33.912  17.880   8.335  0.00  0.00     0.010 A 
ENDBRANCH  22  23
ENDBRANCH  21  22
ENDBRANCH  19  21
ENDBRANCH   8  13
TORSDOF 4
ENDMDL
MODEL 2
REMARK VINA RESULT:      -8.0     12.687     16.830
REMARK  4 active torsions:
REMARK  status: ('A' for Active; 'I' for Inactive)
REMARK    1  A    between atoms: C_8  and  C_10 
REMARK       I    between atoms: C_10  and  N_12 
REMARK    2  A    between atoms: N_15  and  C_18 
REMARK    3  A    between atoms: C_18  and  C_19 
REMARK    4  A    between atoms: C_19  and  C_20 
ROOT
HETATM    1  C   UNK N   1      21.355  18.058   6.090  0.00  0.00     0.002 A 
HETATM    2  C   UNK N   1      21.362  18.767   4.887  0.00  0.00     0.015 A 
HETATM    3  C   UNK N   1      20.738  18.165   3.788  0.00  0.00     0.014 A 
HETATM    4  C   UNK N   1      20.541  18.581   2.517  0.00  0.00     0.072 A 
HETATM    5  C   UNK N   1      19.872  17.585   1.835  0.00  0.00     0.112 A 
HETATM    6  N   UNK N   1      19.645  16.568   2.670  0.00  0.00    -0.363 N 
HETATM    7  C   UNK N   1      20.157  16.949   3.847  0.00  0.00     0.059 A 
HETATM    8  C   UNK N   1      20.123  16.219   4.964  0.00  0.00     0.059 A 
HETATM    9  C   UNK N   1      20.733  16.799   6.122  0.00  0.00     0.019 A 
HETATM   10  C   UNK N   1      20.894  19.819   1.966  0.00  0.00     0.102 C 
HETATM   11  N   UNK N   1      21.170  20.825   1.482  0.00  0.00    -0.191 NA
HETATM   12  H   UNK N   1      19.195  15.716   2.464  0.00  0.00     0.165 HD
ENDROOT
BRANCH   8  13
HETATM   13  C   UNK N   1      19.472  14.878   4.835  0.00  0.00     0.256 C 
HETATM   14  O   UNK N   1      18.265  14.777   5.014  0.00  0.00    -0.267 OA
HETATM   15  N   UNK N   1      20.182  13.786   4.488  0.00  0.00    -0.345 N 
HETATM   16  C   UNK N   1      19.682  12.492   4.828  0.00  0.00     0.156 C 
HETATM   17  C   UNK N   1      21.581  13.895   4.299  0.00  0.00     0.156 C 
HETATM   18  C   UNK N   1      20.520  12.041   6.028  0.00  0.00     0.292 C 
HETATM   19  N   UNK N   1      21.311  13.155   6.641  0.00  0.00     0.091 N 
HETATM   20  C   UNK N   1      22.036  14.056   5.710  0.00  0.00     0.292 C 
BRANCH  19  21
HETATM   21  C   UNK N   1      22.399  12.521   7.303  0.00  0.00     0.277 C 
BRANCH  21  22
HETATM   22  C   UNK N   1      23.095  13.583   8.143  0.00  0.00     0.068 C 
BRANCH  22  23
HETATM   23  C   UNK N   1      23.135  13.038   9.383  0.00  0.00    -0.056 A 
HETATM   24  C   UNK N   1      21.920  12.953  10.002  0.00  0.00     0.010 A 
HETATM   25  C   UNK N   1      21.864  12.410  11.247  0.00  0.00     0.043 A 
HETATM   26  C   UNK N   1      23.037  11.972  11.853  0.00  0.00     0.116 A 
HETATM   27  C   UNK N   1      24.286  12.115  11.229  0.00  0.00     0.043 A 
HETATM   28  F   UNK N   1      22.945  11.353  13.031  0.00  0.00    -0.206 F 
HETATM   29  C   UNK N   1      24.341  12.669   9.967  0.00  0.00     0.010 A 
ENDBRANCH  22  23
ENDBRANCH  21  22
ENDBRANCH  19  21
ENDBRANCH   8  13
TORSDOF 4
ENDMDL
MODEL 3
REMARK VINA RESULT:      -8.0     11.436     13.440
REMARK  4 active torsions:
REMARK  status: ('A' for Active; 'I' for Inactive)
REMARK    1  A    between atoms: C_8  and  C_10 
REMARK       I    between atoms: C_10  and  N_12 
REMARK    2  A    between atoms: N_15  and  C_18 
REMARK    3  A    between atoms: C_18  and  C_19 
REMARK    4  A    between atoms: C_19  and  C_20 
ROOT
HETATM    1  C   UNK N   1      24.867  13.185   8.554  0.00  0.00     0.002 A 
HETATM    2  C   UNK N   1      24.553  12.876   9.879  0.00  0.00     0.015 A 
HETATM    3  C   UNK N   1      23.198  12.712  10.192  0.00  0.00     0.014 A 
HETATM    4  C   UNK N   1      22.565  12.386  11.341  0.00  0.00     0.072 A 
HETATM    5  C   UNK N   1      21.207  12.371  11.098  0.00  0.00     0.112 A 
HETATM    6  N   UNK N   1      20.995  12.672   9.814  0.00  0.00    -0.363 N 
HETATM    7  C   UNK N   1      22.211  12.853   9.283  0.00  0.00     0.059 A 
HETATM    8  C   UNK N   1      22.446  13.155   8.005  0.00  0.00     0.059 A 
HETATM    9  C   UNK N   1      23.817  13.315   7.630  0.00  0.00     0.019 A 
HETATM   10  C   UNK N   1      23.154  12.063  12.570  0.00  0.00     0.102 C 
HETATM   11  N   UNK N   1      23.605  11.792  13.593  0.00  0.00    -0.191 NA
HETATM   12  H   UNK N   1      20.128  12.746   9.355  0.00  0.00     0.165 HD
ENDROOT
BRANCH   8  13
HETATM   13  C   UNK N   1      21.228  13.311   7.148  0.00  0.00     0.256 C 
HETATM   14  O   UNK N   1      20.706  12.316   6.660  0.00  0.00    -0.267 OA
HETATM   15  N   UNK N   1      20.673  14.520   6.934  0.00  0.00    -0.345 N 
HETATM   16  C   UNK N   1      19.851  14.716   5.783  0.00  0.00     0.156 C 
HETATM   17  C   UNK N   1      21.285  15.674   7.481  0.00  0.00     0.156 C 
HETATM   18  C   UNK N   1      20.724  15.498   4.796  0.00  0.00     0.292 C 
HETATM   19  N   UNK N   1      22.171  15.513   5.180  0.00  0.00     0.091 N 
HETATM   20  C   UNK N   1      22.486  15.788   6.604  0.00  0.00     0.292 C 
BRANCH  19  21
HETATM   21  C   UNK N   1      22.712  16.671   4.556  0.00  0.00     0.277 C 
BRANCH  21  22
HETATM   22  C   UNK N   1      24.123  16.856   5.095  0.00  0.00     0.068 C 
BRANCH  22  23
HETATM   23  C   UNK N   1      24.569  17.965   4.458  0.00  0.00    -0.056 A 
HETATM   24  C   UNK N   1      25.930  18.073   4.399  0.00  0.00     0.010 A 
HETATM   25  C   UNK N   1      26.467  19.152   3.770  0.00  0.00     0.043 A 
HETATM   26  C   UNK N   1      25.622  20.110   3.220  0.00  0.00     0.116 A 
HETATM   27  C   UNK N   1      24.227  20.016   3.335  0.00  0.00     0.043 A 
HETATM   28  F   UNK N   1      26.170  21.107   2.522  0.00  0.00    -0.206 F 
HETATM   29  C   UNK N   1      23.684  18.922   3.977  0.00  0.00     0.010 A 
ENDBRANCH  22  23
ENDBRANCH  21  22
ENDBRANCH  19  21
ENDBRANCH   8  13
TORSDOF 4
ENDMDL
MODEL 4
REMARK VINA RESULT:      -7.7     12.359     16.418
REMARK  4 active torsions:
REMARK  status: ('A' for Active; 'I' for Inactive)
REMARK    1  A    between atoms: C_8  and  C_10 
REMARK       I    between atoms: C_10  and  N_12 
REMARK    2  A    between atoms: N_15  and  C_18 
REMARK    3  A    between atoms: C_18  and  C_19 
REMARK    4  A    between atoms: C_19  and  C_20 
ROOT
HETATM    1  C   UNK N   1      19.857  15.825   0.820  0.00  0.00     0.002 A 
HETATM    2  C   UNK N   1      20.100  17.188   0.632  0.00  0.00     0.015 A 
HETATM    3  C   UNK N   1      20.388  17.947   1.772  0.00  0.00     0.014 A 
HETATM    4  C   UNK N   1      20.696  19.253   1.938  0.00  0.00     0.072 A 
HETATM    5  C   UNK N   1      20.879  19.486   3.286  0.00  0.00     0.112 A 
HETATM    6  N   UNK N   1      20.699  18.341   3.951  0.00  0.00    -0.363 N 
HETATM    7  C   UNK N   1      20.426  17.423   3.014  0.00  0.00     0.059 A 
HETATM    8  C   UNK N   1      20.196  16.132   3.261  0.00  0.00     0.059 A 
HETATM    9  C   UNK N   1      19.914  15.308   2.125  0.00  0.00     0.019 A 
HETATM   10  C   UNK N   1      20.860  20.219   0.938  0.00  0.00     0.102 C 
HETATM   11  N   UNK N   1      21.002  21.036   0.141  0.00  0.00    -0.191 NA
HETATM   12  H   UNK N   1      20.756  18.202   4.923  0.00  0.00     0.165 HD
ENDROOT
BRANCH   8  13
HETATM   13  C   UNK N   1      20.239  15.735   4.703  0.00  0.00     0.256 C 
HETATM   14  O   UNK N   1      19.411  16.198   5.478  0.00  0.00    -0.267 OA
HETATM   15  N   UNK N   1      21.147  14.849   5.159  0.00  0.00    -0.345 N 
HETATM   16  C   UNK N   1      21.484  14.848   6.546  0.00  0.00     0.156 C 
HETATM   17  C   UNK N   1      22.117  14.326   4.270  0.00  0.00     0.156 C 
HETATM   18  C   UNK N   1      22.852  15.533   6.628  0.00  0.00     0.292 C 
HETATM   19  N   UNK N   1      23.225  16.245   5.365  0.00  0.00     0.091 N 
HETATM   20  C   UNK N   1      22.994  15.519   4.090  0.00  0.00     0.292 C 
BRANCH  19  21
HETATM   21  C   UNK N   1      24.645  16.316   5.381  0.00  0.00     0.277 C 
BRANCH  21  22
HETATM   22  C   UNK N   1      25.078  16.973   4.078  0.00  0.00     0.068 C 
BRANCH  22  23
HETATM   23  C   UNK N   1      25.709  18.102   4.480  0.00  0.00    -0.056 A 
HETATM   24  C   UNK N   1      26.742  17.892   5.350  0.00  0.00     0.010 A 
HETATM   25  C   UNK N   1      27.439  18.968   5.801  0.00  0.00     0.043 A 
HETATM   26  C   UNK N   1      27.075  20.241   5.376  0.00  0.00     0.116 A 
HETATM   27  C   UNK N   1      25.978  20.450   4.526  0.00  0.00     0.043 A 
HETATM   28  F   UNK N   1      27.834  21.272   5.752  0.00  0.00    -0.206 F 
HETATM   29  C   UNK N   1      25.270  19.355   4.072  0.00  0.00     0.010 A 
ENDBRANCH  22  23
ENDBRANCH  21  22
ENDBRANCH  19  21
ENDBRANCH   8  13
TORSDOF 4
ENDMDL
MODEL 5
REMARK VINA RESULT:      -7.6      8.224     12.058
REMARK  4 active torsions:
REMARK  status: ('A' for Active; 'I' for Inactive)
REMARK    1  A    between atoms: C_8  and  C_10 
REMARK       I    between atoms: C_10  and  N_12 
REMARK    2  A    between atoms: N_15  and  C_18 
REMARK    3  A    between atoms: C_18  and  C_19 
REMARK    4  A    between atoms: C_19  and  C_20 
ROOT
HETATM    1  C   UNK N   1      29.646  16.739   3.850  0.00  0.00     0.002 A 
HETATM    2  C   UNK N   1      30.251  17.022   5.077  0.00  0.00     0.015 A 
HETATM    3  C   UNK N   1      29.407  17.348   6.144  0.00  0.00     0.014 A 
HETATM    4  C   UNK N   1      29.654  17.637   7.441  0.00  0.00     0.072 A 
HETATM    5  C   UNK N   1      28.450  17.897   8.064  0.00  0.00     0.112 A 
HETATM    6  N   UNK N   1      27.465  17.762   7.172  0.00  0.00    -0.363 N 
HETATM    7  C   UNK N   1      28.064  17.409   6.027  0.00  0.00     0.059 A 
HETATM    8  C   UNK N   1      27.427  17.157   4.882  0.00  0.00     0.059 A 
HETATM    9  C   UNK N   1      28.246  16.802   3.764  0.00  0.00     0.019 A 
HETATM   10  C   UNK N   1      30.896  17.634   8.088  0.00  0.00     0.102 C 
HETATM   11  N   UNK N   1      31.900  17.640   8.650  0.00  0.00    -0.191 NA
HETATM   12  H   UNK N   1      26.501  17.893   7.324  0.00  0.00     0.165 HD
ENDROOT
BRANCH   8  13
HETATM   13  C   UNK N   1      25.939  17.312   4.927  0.00  0.00     0.256 C 
HETATM   14  O   UNK N   1      25.457  18.424   5.107  0.00  0.00    -0.267 OA
HETATM   15  N   UNK N   1      25.119  16.260   4.736  0.00  0.00    -0.345 N 
HETATM   16  C   UNK N   1      23.785  16.315   5.241  0.00  0.00     0.156 C 
HETATM   17  C   UNK N   1      25.673  14.971   4.546  0.00  0.00     0.156 C 
HETATM   18  C   UNK N   1      23.795  15.439   6.498  0.00  0.00     0.292 C 
HETATM   19  N   UNK N   1      25.178  15.102   6.963  0.00  0.00     0.091 N 
HETATM   20  C   UNK N   1      26.150  14.673   5.927  0.00  0.00     0.292 C 
BRANCH  19  21
HETATM   21  C   UNK N   1      25.037  13.902   7.715  0.00  0.00     0.277 C 
BRANCH  21  22
HETATM   22  C   UNK N   1      23.547  13.620   7.838  0.00  0.00     0.068 C 
BRANCH  22  23
HETATM   23  C   UNK N   1      23.420  13.097   9.081  0.00  0.00    -0.056 A 
HETATM   24  C   UNK N   1      24.602  12.741   9.667  0.00  0.00     0.010 A 
HETATM   25  C   UNK N   1      24.572  12.215  10.920  0.00  0.00     0.043 A 
HETATM   26  C   UNK N   1      23.347  12.046  11.558  0.00  0.00     0.116 A 
HETATM   27  C   UNK N   1      22.135  12.364  10.925  0.00  0.00     0.043 A 
HETATM   28  F   UNK N   1      23.349  11.621  12.823  0.00  0.00    -0.206 F 
HETATM   29  C   UNK N   1      22.169  12.895   9.652  0.00  0.00     0.010 A 
ENDBRANCH  22  23
ENDBRANCH  21  22
ENDBRANCH  19  21
ENDBRANCH   8  13
TORSDOF 4
ENDMDL
MODEL 6
REMARK VINA RESULT:      -7.5     18.844     22.673
REMARK  4 active torsions:
REMARK  status: ('A' for Active; 'I' for Inactive)
REMARK    1  A    between atoms: C_8  and  C_10 
REMARK       I    between atoms: C_10  and  N_12 
REMARK    2  A    between atoms: N_15  and  C_18 
REMARK    3  A    between atoms: C_18  and  C_19 
REMARK    4  A    between atoms: C_19  and  C_20 
ROOT
HETATM    1  C   UNK N   1      26.614  27.051  -8.149  0.00  0.00     0.002 A 
HETATM    2  C   UNK N   1      26.499  27.158  -6.761  0.00  0.00     0.015 A 
HETATM    3  C   UNK N   1      26.148  25.999  -6.059  0.00  0.00     0.014 A 
HETATM    4  C   UNK N   1      25.988  25.750  -4.740  0.00  0.00     0.072 A 
HETATM    5  C   UNK N   1      25.625  24.427  -4.591  0.00  0.00     0.112 A 
HETATM    6  N   UNK N   1      25.570  23.855  -5.796  0.00  0.00    -0.363 N 
HETATM    7  C   UNK N   1      25.911  24.817  -6.664  0.00  0.00     0.059 A 
HETATM    8  C   UNK N   1      25.996  24.652  -7.986  0.00  0.00     0.059 A 
HETATM    9  C   UNK N   1      26.369  25.805  -8.747  0.00  0.00     0.019 A 
HETATM   10  C   UNK N   1      26.195  26.640  -3.679  0.00  0.00     0.102 C 
HETATM   11  N   UNK N   1      26.356  27.345  -2.785  0.00  0.00    -0.191 NA
HETATM   12  H   UNK N   1      25.330  22.923  -6.003  0.00  0.00     0.165 HD
ENDROOT
BRANCH   8  13
HETATM   13  C   UNK N   1      25.659  23.282  -8.486  0.00  0.00     0.256 C 
HETATM   14  O   UNK N   1      24.537  22.831  -8.290  0.00  0.00    -0.267 OA
HETATM   15  N   UNK N   1      26.553  22.551  -9.180  0.00  0.00    -0.345 N 
HETATM   16  C   UNK N   1      26.406  21.131  -9.226  0.00  0.00     0.156 C 
HETATM   17  C   UNK N   1      27.856  23.061  -9.392  0.00  0.00     0.156 C 
HETATM   18  C   UNK N   1      27.464  20.587  -8.260  0.00  0.00     0.292 C 
HETATM   19  N   UNK N   1      28.046  21.646  -7.376  0.00  0.00     0.091 N 
HETATM   20  C   UNK N   1      28.428  22.926  -8.022  0.00  0.00     0.292 C 
BRANCH  19  21
HETATM   21  C   UNK N   1      29.322  21.149  -6.988  0.00  0.00     0.277 C 
BRANCH  21  22
HETATM   22  C   UNK N   1      30.177  22.350  -6.609  0.00  0.00     0.068 C 
BRANCH  22  23
HETATM   23  C   UNK N   1      30.055  22.419  -5.261  0.00  0.00    -0.056 A 
HETATM   24  C   UNK N   1      29.536  23.596  -4.801  0.00  0.00     0.010 A 
HETATM   25  C   UNK N   1      29.370  23.752  -3.461  0.00  0.00     0.043 A 
HETATM   26  C   UNK N   1      29.742  22.720  -2.605  0.00  0.00     0.116 A 
HETATM   27  C   UNK N   1      30.326  21.537  -3.085  0.00  0.00     0.043 A 
HETATM   28  F   UNK N   1      29.478  22.855  -1.304  0.00  0.00    -0.206 F 
HETATM   29  C   UNK N   1      30.496  21.384  -4.446  0.00  0.00     0.010 A 
ENDBRANCH  22  23
ENDBRANCH  21  22
ENDBRANCH  19  21
ENDBRANCH   8  13
TORSDOF 4
ENDMDL
MODEL 7
REMARK VINA RESULT:      -7.5     18.584     23.055
REMARK  4 active torsions:
REMARK  status: ('A' for Active; 'I' for Inactive)
REMARK    1  A    between atoms: C_8  and  C_10 
REMARK       I    between atoms: C_10  and  N_12 
REMARK    2  A    between atoms: N_15  and  C_18 
REMARK    3  A    between atoms: C_18  and  C_19 
REMARK    4  A    between atoms: C_19  and  C_20 
ROOT
HETATM    1  C   UNK N   1      28.995  29.470  -7.447  0.00  0.00     0.002 A 
HETATM    2  C   UNK N   1      28.404  29.909  -6.260  0.00  0.00     0.015 A 
HETATM    3  C   UNK N   1      27.407  29.098  -5.707  0.00  0.00     0.014 A 
HETATM    4  C   UNK N   1      26.671  29.207  -4.578  0.00  0.00     0.072 A 
HETATM    5  C   UNK N   1      25.815  28.126  -4.513  0.00  0.00     0.112 A 
HETATM    6  N   UNK N   1      26.021  27.348  -5.579  0.00  0.00    -0.363 N 
HETATM    7  C   UNK N   1      27.000  27.943  -6.273  0.00  0.00     0.059 A 
HETATM    8  C   UNK N   1      27.520  27.473  -7.409  0.00  0.00     0.059 A 
HETATM    9  C   UNK N   1      28.557  28.258  -8.006  0.00  0.00     0.019 A 
HETATM   10  C   UNK N   1      26.768  30.201  -3.597  0.00  0.00     0.102 C 
HETATM   11  N   UNK N   1      26.822  31.002  -2.773  0.00  0.00    -0.191 NA
HETATM   12  H   UNK N   1      25.552  26.513  -5.806  0.00  0.00     0.165 HD
ENDROOT
BRANCH   8  13
HETATM   13  C   UNK N   1      26.919  26.198  -7.911  0.00  0.00     0.256 C 
HETATM   14  O   UNK N   1      25.729  26.169  -8.202  0.00  0.00    -0.267 OA
HETATM   15  N   UNK N   1      27.668  25.092  -8.087  0.00  0.00    -0.345 N 
HETATM   16  C   UNK N   1      27.033  23.813  -8.096  0.00  0.00     0.156 C 
HETATM   17  C   UNK N   1      29.040  25.117  -7.735  0.00  0.00     0.156 C 
HETATM   18  C   UNK N   1      27.346  23.200  -6.727  0.00  0.00     0.292 C 
HETATM   19  N   UNK N   1      27.888  24.198  -5.751  0.00  0.00     0.091 N 
HETATM   20  C   UNK N   1      28.939  25.121  -6.247  0.00  0.00     0.292 C 
BRANCH  19  21
HETATM   21  C   UNK N   1      28.626  23.432  -4.806  0.00  0.00     0.277 C 
BRANCH  21  22
HETATM   22  C   UNK N   1      29.321  22.317  -5.574  0.00  0.00     0.068 C 
BRANCH  22  23
HETATM   23  C   UNK N   1      30.352  21.964  -4.769  0.00  0.00    -0.056 A 
HETATM   24  C   UNK N   1      30.481  22.735  -3.648  0.00  0.00     0.010 A 
HETATM   25  C   UNK N   1      31.484  22.448  -2.777  0.00  0.00     0.043 A 
HETATM   26  C   UNK N   1      32.349  21.395  -3.057  0.00  0.00     0.116 A 
HETATM   27  C   UNK N   1      32.241  20.646  -4.239  0.00  0.00     0.043 A 
HETATM   28  F   UNK N   1      33.262  21.070  -2.140  0.00  0.00    -0.206 F 
HETATM   29  C   UNK N   1      31.223  20.942  -5.123  0.00  0.00     0.010 A 
ENDBRANCH  22  23
ENDBRANCH  21  22
ENDBRANCH  19  21
ENDBRANCH   8  13
TORSDOF 4
ENDMDL
MODEL 8
REMARK VINA RESULT:      -7.4     11.266     14.611
REMARK  4 active torsions:
REMARK  status: ('A' for Active; 'I' for Inactive)
REMARK    1  A    between atoms: C_8  and  C_10 
REMARK       I    between atoms: C_10  and  N_12 
REMARK    2  A    between atoms: N_15  and  C_18 
REMARK    3  A    between atoms: C_18  and  C_19 
REMARK    4  A    between atoms: C_19  and  C_20 
ROOT
HETATM    1  C   UNK N   1      25.717  18.946   4.014  0.00  0.00     0.002 A 
HETATM    2  C   UNK N   1      24.376  19.327   3.938  0.00  0.00     0.015 A 
HETATM    3  C   UNK N   1      23.427  18.304   3.824  0.00  0.00     0.014 A 
HETATM    4  C   UNK N   1      22.077  18.321   3.763  0.00  0.00     0.072 A 
HETATM    5  C   UNK N   1      21.633  17.020   3.644  0.00  0.00     0.112 A 
HETATM    6  N   UNK N   1      22.688  16.202   3.643  0.00  0.00    -0.363 N 
HETATM    7  C   UNK N   1      23.758  16.997   3.774  0.00  0.00     0.059 A 
HETATM    8  C   UNK N   1      25.021  16.569   3.835  0.00  0.00     0.059 A 
HETATM    9  C   UNK N   1      26.028  17.577   3.969  0.00  0.00     0.019 A 
HETATM   10  C   UNK N   1      21.239  19.440   3.852  0.00  0.00     0.102 C 
HETATM   11  N   UNK N   1      20.523  20.337   3.923  0.00  0.00    -0.191 NA
HETATM   12  H   UNK N   1      22.682  15.221   3.562  0.00  0.00     0.165 HD
ENDROOT
BRANCH   8  13
HETATM   13  C   UNK N   1      25.203  15.088   3.724  0.00  0.00     0.256 C 
HETATM   14  O   UNK N   1      24.893  14.522   2.683  0.00  0.00    -0.267 OA
HETATM   15  N   UNK N   1      25.736  14.370   4.733  0.00  0.00    -0.345 N 
HETATM   16  C   UNK N   1      25.467  12.970   4.810  0.00  0.00     0.156 C 
HETATM   17  C   UNK N   1      26.077  15.019   5.944  0.00  0.00     0.156 C 
HETATM   18  C   UNK N   1      24.425  12.823   5.923  0.00  0.00     0.292 C 
HETATM   19  N   UNK N   1      23.804  14.127   6.318  0.00  0.00     0.091 N 
HETATM   20  C   UNK N   1      24.721  15.278   6.506  0.00  0.00     0.292 C 
BRANCH  19  21
HETATM   21  C   UNK N   1      23.339  13.931   7.648  0.00  0.00     0.277 C 
BRANCH  21  22
HETATM   22  C   UNK N   1      24.504  13.377   8.455  0.00  0.00     0.068 C 
BRANCH  22  23
HETATM   23  C   UNK N   1      23.921  12.916   9.588  0.00  0.00    -0.056 A 
HETATM   24  C   UNK N   1      24.800  12.453  10.527  0.00  0.00     0.010 A 
HETATM   25  C   UNK N   1      24.304  11.978  11.700  0.00  0.00     0.043 A 
HETATM   26  C   UNK N   1      22.928  11.968  11.903  0.00  0.00     0.116 A 
HETATM   27  C   UNK N   1      22.032  12.395  10.910  0.00  0.00     0.043 A 
HETATM   28  F   UNK N   1      22.470  11.591  13.098  0.00  0.00    -0.206 F 
HETATM   29  C   UNK N   1      22.539  12.873   9.719  0.00  0.00     0.010 A 
ENDBRANCH  22  23
ENDBRANCH  21  22
ENDBRANCH  19  21
ENDBRANCH   8  13
TORSDOF 4
ENDMDL
MODEL 9
REMARK VINA RESULT:      -7.4      4.513      9.169
REMARK  4 active torsions:
REMARK  status: ('A' for Active; 'I' for Inactive)
REMARK    1  A    between atoms: C_8  and  C_10 
REMARK       I    between atoms: C_10  and  N_12 
REMARK    2  A    between atoms: N_15  and  C_18 
REMARK    3  A    between atoms: C_18  and  C_19 
REMARK    4  A    between atoms: C_19  and  C_20 
ROOT
HETATM    1  C   UNK N   1      37.595  11.022  13.047  0.00  0.00     0.002 A 
HETATM    2  C   UNK N   1      37.323  11.738  11.879  0.00  0.00     0.015 A 
HETATM    3  C   UNK N   1      36.858  13.050  12.029  0.00  0.00     0.014 A 
HETATM    4  C   UNK N   1      36.538  14.008  11.130  0.00  0.00     0.072 A 
HETATM    5  C   UNK N   1      36.120  15.127  11.821  0.00  0.00     0.112 A 
HETATM    6  N   UNK N   1      36.189  14.877  13.131  0.00  0.00    -0.363 N 
HETATM    7  C   UNK N   1      36.657  13.625  13.232  0.00  0.00     0.059 A 
HETATM    8  C   UNK N   1      36.891  12.992  14.384  0.00  0.00     0.059 A 
HETATM    9  C   UNK N   1      37.385  11.653  14.284  0.00  0.00     0.019 A 
HETATM   10  C   UNK N   1      36.647  13.931   9.736  0.00  0.00     0.102 C 
HETATM   11  N   UNK N   1      36.724  13.902   8.589  0.00  0.00    -0.191 NA
HETATM   12  H   UNK N   1      35.946  15.483  13.867  0.00  0.00     0.165 HD
ENDROOT
BRANCH   8  13
HETATM   13  C   UNK N   1      36.573  13.771  15.621  0.00  0.00     0.256 C 
HETATM   14  O   UNK N   1      37.390  14.577  16.050  0.00  0.00    -0.267 OA
HETATM   15  N   UNK N   1      35.390  13.632  16.252  0.00  0.00    -0.345 N 
HETATM   16  C   UNK N   1      35.288  13.989  17.631  0.00  0.00     0.156 C 
HETATM   17  C   UNK N   1      34.450  12.688  15.770  0.00  0.00     0.156 C 
HETATM   18  C   UNK N   1      35.281  12.658  18.390  0.00  0.00     0.292 C 
HETATM   19  N   UNK N   1      35.699  11.498  17.540  0.00  0.00     0.091 N 
HETATM   20  C   UNK N   1      35.109  11.414  16.180  0.00  0.00     0.292 C 
BRANCH  19  21
HETATM   21  C   UNK N   1      35.119  10.355  18.156  0.00  0.00     0.277 C 
BRANCH  21  22
HETATM   22  C   UNK N   1      35.220  10.556  19.662  0.00  0.00     0.068 C 
BRANCH  22  23
HETATM   23  C   UNK N   1      34.130   9.913  20.146  0.00  0.00    -0.056 A 
HETATM   24  C   UNK N   1      33.624   8.954  19.314  0.00  0.00     0.010 A 
HETATM   25  C   UNK N   1      32.535   8.251  19.722  0.00  0.00     0.043 A 
HETATM   26  C   UNK N   1      31.966   8.535  20.959  0.00  0.00     0.116 A 
HETATM   27  C   UNK N   1      32.461   9.559  21.782  0.00  0.00     0.043 A 
HETATM   28  F   UNK N   1      30.960   7.766  21.381  0.00  0.00    -0.206 F 
HETATM   29  C   UNK N   1      33.565  10.273  21.363  0.00  0.00     0.010 A 
ENDBRANCH  22  23
ENDBRANCH  21  22
ENDBRANCH  19  21
ENDBRANCH   8  13
TORSDOF 4
ENDMDL
