MODEL 1
REMARK VINA RESULT:      -7.5      0.000      0.000
REMARK  5 active torsions:
REMARK  status: ('A' for Active; 'I' for Inactive)
REMARK    1  A    between atoms: C_2  and  C_3 
REMARK    2  A    between atoms: C_9  and  O_26 
REMARK    3  A    between atoms: C_10  and  C_15 
REMARK       I    between atoms: C_15  and  N_17 
REMARK    4  A    between atoms: N_17  and  C_18 
REMARK    5  A    between atoms: N_17  and  C_20 
ROOT
HETATM    1  C   UNK N   1      32.606  17.016   4.984  0.00  0.00    -0.043 A 
HETATM    2  C   UNK N   1      33.779  16.775   5.703  0.00  0.00     0.008 A 
HETATM    3  C   UNK N   1      33.764  16.723   7.090  0.00  0.00     0.003 A 
HETATM    4  C   UNK N   1      32.570  16.903   7.781  0.00  0.00     0.031 A 
HETATM    5  C   UNK N   1      31.365  17.141   7.096  0.00  0.00     0.050 A 
HETATM    6  C   UNK N   1      31.371  17.205   5.679  0.00  0.00     0.032 A 
HETATM    7  C   UNK N   1      30.154  17.463   5.010  0.00  0.00     0.100 A 
HETATM    8  C   UNK N   1      28.946  17.593   5.730  0.00  0.00     0.134 A 
HETATM    9  C   UNK N   1      29.003  17.542   7.143  0.00  0.00     0.266 A 
HETATM   10  O   UNK N   1      27.980  17.681   7.796  0.00  0.00    -0.267 OA
HETATM   11  N   UNK N   1      30.199  17.320   7.793  0.00  0.00    -0.317 N 
HETATM   12  C   UNK N   1      30.209  17.270   9.256  0.00  0.00     0.159 C 
ENDROOT
BRANCH   8  13
HETATM   13  C   UNK N   1      27.620  17.850   5.040  0.00  0.00     0.266 C 
HETATM   14  O   UNK N   1      27.094  16.896   4.483  0.00  0.00    -0.267 OA
HETATM   15  N   UNK N   1      27.017  19.103   4.970  0.00  0.00    -0.314 N 
BRANCH  15  16
HETATM   16  C   UNK N   1      27.765  20.286   5.381  0.00  0.00     0.128 C 
HETATM   17  C   UNK N   1      27.096  21.026   6.537  0.00  0.00     0.027 C 
ENDBRANCH  15  16
BRANCH  15  18
HETATM   18  C   UNK N   1      25.707  19.302   4.375  0.00  0.00     0.037 A 
HETATM   19  C   UNK N   1      25.532  20.248   3.342  0.00  0.00     0.029 A 
HETATM   20  C   UNK N   1      24.275  20.488   2.784  0.00  0.00     0.002 A 
HETATM   21  C   UNK N   1      23.163  19.783   3.242  0.00  0.00     0.000 A 
HETATM   22  C   UNK N   1      23.309  18.838   4.258  0.00  0.00     0.002 A 
HETATM   23  C   UNK N   1      24.566  18.603   4.822  0.00  0.00     0.029 A 
ENDBRANCH  15  18
ENDBRANCH   8  13
BRANCH   7  24
HETATM   24  O   UNK N   1      30.155  17.649   3.682  0.00  0.00    -0.358 OA
HETATM   25  H   UNK N   1      30.904  17.936   3.197  0.00  0.00     0.217 HD
ENDBRANCH   7  24
BRANCH   1  26
HETATM   26  C   UNK N   1      32.717  17.028   3.491  0.00  0.00     0.035 C 
HETATM   27  C   UNK N   1      33.402  15.760   3.011  0.00  0.00     0.010 C 
ENDBRANCH   1  26
TORSDOF 5
ENDMDL
MODEL 2
REMARK VINA RESULT:      -6.9      1.303      3.290
REMARK  5 active torsions:
REMARK  status: ('A' for Active; 'I' for Inactive)
REMARK    1  A    between atoms: C_2  and  C_3 
REMARK    2  A    between atoms: C_9  and  O_26 
REMARK    3  A    between atoms: C_10  and  C_15 
REMARK       I    between atoms: C_15  and  N_17 
REMARK    4  A    between atoms: N_17  and  C_18 
REMARK    5  A    between atoms: N_17  and  C_20 
ROOT
HETATM    1  C   UNK N   1      30.203  17.818   8.276  0.00  0.00    -0.043 A 
HETATM    2  C   UNK N   1      31.545  17.634   8.616  0.00  0.00     0.008 A 
HETATM    3  C   UNK N   1      32.474  17.249   7.658  0.00  0.00     0.003 A 
HETATM    4  C   UNK N   1      32.074  17.050   6.341  0.00  0.00     0.031 A 
HETATM    5  C   UNK N   1      30.733  17.232   5.955  0.00  0.00     0.050 A 
HETATM    6  C   UNK N   1      29.776  17.615   6.927  0.00  0.00     0.032 A 
HETATM    7  C   UNK N   1      28.431  17.775   6.524  0.00  0.00     0.100 A 
HETATM    8  C   UNK N   1      28.058  17.617   5.171  0.00  0.00     0.134 A 
HETATM    9  C   UNK N   1      29.051  17.211   4.248  0.00  0.00     0.266 A 
HETATM   10  O   UNK N   1      28.755  17.036   3.076  0.00  0.00    -0.267 OA
HETATM   11  N   UNK N   1      30.357  17.027   4.653  0.00  0.00    -0.317 N 
HETATM   12  C   UNK N   1      31.353  16.613   3.662  0.00  0.00     0.159 C 
ENDROOT
BRANCH   8  13
HETATM   13  C   UNK N   1      26.627  17.800   4.703  0.00  0.00     0.266 C 
HETATM   14  O   UNK N   1      25.992  16.784   4.459  0.00  0.00    -0.267 OA
HETATM   15  N   UNK N   1      26.037  19.044   4.495  0.00  0.00    -0.314 N 
BRANCH  15  16
HETATM   16  C   UNK N   1      26.865  20.246   4.511  0.00  0.00     0.128 C 
HETATM   17  C   UNK N   1      26.679  21.064   5.787  0.00  0.00     0.027 C 
ENDBRANCH  15  16
BRANCH  15  18
HETATM   18  C   UNK N   1      24.640  19.189   4.127  0.00  0.00     0.037 A 
HETATM   19  C   UNK N   1      24.252  20.158   3.176  0.00  0.00     0.029 A 
HETATM   20  C   UNK N   1      22.911  20.346   2.838  0.00  0.00     0.002 A 
HETATM   21  C   UNK N   1      21.924  19.564   3.438  0.00  0.00     0.000 A 
HETATM   22  C   UNK N   1      22.281  18.594   4.376  0.00  0.00     0.002 A 
HETATM   23  C   UNK N   1      23.623  18.412   4.720  0.00  0.00     0.029 A 
ENDBRANCH  15  18
ENDBRANCH   8  13
BRANCH   7  24
HETATM   24  O   UNK N   1      27.488  18.018   7.445  0.00  0.00    -0.358 OA
HETATM   25  H   UNK N   1      26.967  17.349   7.845  0.00  0.00     0.217 HD
ENDBRANCH   7  24
BRANCH   1  26
HETATM   26  C   UNK N   1      29.282  18.258   9.371  0.00  0.00     0.035 C 
HETATM   27  C   UNK N   1      29.036  17.111  10.335  0.00  0.00     0.010 C 
ENDBRANCH   1  26
TORSDOF 5
ENDMDL
MODEL 3
REMARK VINA RESULT:      -6.8      4.611      7.605
REMARK  5 active torsions:
REMARK  status: ('A' for Active; 'I' for Inactive)
REMARK    1  A    between atoms: C_2  and  C_3 
REMARK    2  A    between atoms: C_9  and  O_26 
REMARK    3  A    between atoms: C_10  and  C_15 
REMARK       I    between atoms: C_15  and  N_17 
REMARK    4  A    between atoms: N_17  and  C_18 
REMARK    5  A    between atoms: N_17  and  C_20 
ROOT
HETATM    1  C   UNK N   1      36.094  13.619  11.781  0.00  0.00    -0.043 A 
HETATM    2  C   UNK N   1      37.352  13.038  11.955  0.00  0.00     0.008 A 
HETATM    3  C   UNK N   1      38.133  12.694  10.859  0.00  0.00     0.003 A 
HETATM    4  C   UNK N   1      37.669  12.933   9.571  0.00  0.00     0.031 A 
HETATM    5  C   UNK N   1      36.411  13.523   9.351  0.00  0.00     0.050 A 
HETATM    6  C   UNK N   1      35.602  13.870  10.463  0.00  0.00     0.032 A 
HETATM    7  C   UNK N   1      34.334  14.445  10.222  0.00  0.00     0.100 A 
HETATM    8  C   UNK N   1      33.906  14.725   8.905  0.00  0.00     0.134 A 
HETATM    9  C   UNK N   1      34.744  14.336   7.834  0.00  0.00     0.266 A 
HETATM   10  O   UNK N   1      34.389  14.537   6.682  0.00  0.00    -0.267 OA
HETATM   11  N   UNK N   1      35.968  13.748   8.074  0.00  0.00    -0.317 N 
HETATM   12  C   UNK N   1      36.805  13.368   6.934  0.00  0.00     0.159 C 
ENDROOT
BRANCH   8  13
HETATM   13  C   UNK N   1      32.559  15.359   8.614  0.00  0.00     0.266 C 
HETATM   14  O   UNK N   1      31.614  14.598   8.456  0.00  0.00    -0.267 OA
HETATM   15  N   UNK N   1      32.367  16.731   8.473  0.00  0.00    -0.314 N 
BRANCH  15  16
HETATM   16  C   UNK N   1      33.524  17.615   8.380  0.00  0.00     0.128 C 
HETATM   17  C   UNK N   1      33.929  17.895   6.935  0.00  0.00     0.027 C 
ENDBRANCH  15  16
BRANCH  15  18
HETATM   18  C   UNK N   1      31.051  17.314   8.277  0.00  0.00     0.037 A 
HETATM   19  C   UNK N   1      30.385  17.941   9.352  0.00  0.00     0.029 A 
HETATM   20  C   UNK N   1      29.102  18.471   9.201  0.00  0.00     0.002 A 
HETATM   21  C   UNK N   1      28.457  18.392   7.967  0.00  0.00     0.000 A 
HETATM   22  C   UNK N   1      29.096  17.783   6.886  0.00  0.00     0.002 A 
HETATM   23  C   UNK N   1      30.377  17.246   7.041  0.00  0.00     0.029 A 
ENDBRANCH  15  18
ENDBRANCH   8  13
BRANCH   7  24
HETATM   24  O   UNK N   1      33.502  14.669  11.249  0.00  0.00    -0.358 OA
HETATM   25  H   UNK N   1      33.742  15.146  12.019  0.00  0.00     0.217 HD
ENDBRANCH   7  24
BRANCH   1  26
HETATM   26  C   UNK N   1      35.338  13.980  13.021  0.00  0.00     0.035 C 
HETATM   27  C   UNK N   1      36.227  13.806  14.240  0.00  0.00     0.010 C 
ENDBRANCH   1  26
TORSDOF 5
ENDMDL
MODEL 4
REMARK VINA RESULT:      -6.8      9.496     13.565
REMARK  5 active torsions:
REMARK  status: ('A' for Active; 'I' for Inactive)
REMARK    1  A    between atoms: C_2  and  C_3 
REMARK    2  A    between atoms: C_9  and  O_26 
REMARK    3  A    between atoms: C_10  and  C_15 
REMARK       I    between atoms: C_15  and  N_17 
REMARK    4  A    between atoms: N_17  and  C_18 
REMARK    5  A    between atoms: N_17  and  C_20 
ROOT
HETATM    1  C   UNK N   1      35.342  14.146  10.148  0.00  0.00    -0.043 A 
HETATM    2  C   UNK N   1      35.458  14.005   8.764  0.00  0.00     0.008 A 
HETATM    3  C   UNK N   1      36.222  12.983   8.215  0.00  0.00     0.003 A 
HETATM    4  C   UNK N   1      36.876  12.080   9.046  0.00  0.00     0.031 A 
HETATM    5  C   UNK N   1      36.780  12.182  10.446  0.00  0.00     0.050 A 
HETATM    6  C   UNK N   1      36.010  13.227  11.016  0.00  0.00     0.032 A 
HETATM    7  C   UNK N   1      35.940  13.323  12.423  0.00  0.00     0.100 A 
HETATM    8  C   UNK N   1      36.572  12.365  13.246  0.00  0.00     0.134 A 
HETATM    9  C   UNK N   1      37.345  11.357  12.624  0.00  0.00     0.266 A 
HETATM   10  O   UNK N   1      37.929  10.530  13.308  0.00  0.00    -0.267 OA
HETATM   11  N   UNK N   1      37.435  11.285  11.248  0.00  0.00    -0.317 N 
HETATM   12  C   UNK N   1      38.242  10.221  10.648  0.00  0.00     0.159 C 
ENDROOT
BRANCH   8  13
HETATM   13  C   UNK N   1      36.499  12.429  14.760  0.00  0.00     0.266 C 
HETATM   14  O   UNK N   1      37.255  13.214  15.315  0.00  0.00    -0.267 OA
HETATM   15  N   UNK N   1      35.667  11.618  15.527  0.00  0.00    -0.314 N 
BRANCH  15  16
HETATM   16  C   UNK N   1      34.977  10.496  14.900  0.00  0.00     0.128 C 
HETATM   17  C   UNK N   1      33.494  10.778  14.671  0.00  0.00     0.027 C 
ENDBRANCH  15  16
BRANCH  15  18
HETATM   18  C   UNK N   1      35.559  11.760  16.969  0.00  0.00     0.037 A 
HETATM   19  C   UNK N   1      35.128  12.981  17.531  0.00  0.00     0.029 A 
HETATM   20  C   UNK N   1      35.056  13.157  18.914  0.00  0.00     0.002 A 
HETATM   21  C   UNK N   1      35.410  12.113  19.769  0.00  0.00     0.000 A 
HETATM   22  C   UNK N   1      35.832  10.894  19.238  0.00  0.00     0.002 A 
HETATM   23  C   UNK N   1      35.911  10.721  17.854  0.00  0.00     0.029 A 
ENDBRANCH  15  18
ENDBRANCH   8  13
BRANCH   7  24
HETATM   24  O   UNK N   1      35.321  14.371  12.986  0.00  0.00    -0.358 OA
HETATM   25  H   UNK N   1      34.934  14.350  13.839  0.00  0.00     0.217 HD
ENDBRANCH   7  24
BRANCH   1  26
HETATM   26  C   UNK N   1      34.476  15.261  10.645  0.00  0.00     0.035 C 
HETATM   27  C   UNK N   1      35.092  16.600  10.277  0.00  0.00     0.010 C 
ENDBRANCH   1  26
TORSDOF 5
ENDMDL
MODEL 5
REMARK VINA RESULT:      -6.7     11.232     13.809
REMARK  5 active torsions:
REMARK  status: ('A' for Active; 'I' for Inactive)
REMARK    1  A    between atoms: C_2  and  C_3 
REMARK    2  A    between atoms: C_9  and  O_26 
REMARK    3  A    between atoms: C_10  and  C_15 
REMARK       I    between atoms: C_15  and  N_17 
REMARK    4  A    between atoms: N_17  and  C_18 
REMARK    5  A    between atoms: N_17  and  C_20 
ROOT
HETATM    1  C   UNK N   1      29.689  21.545  -6.127  0.00  0.00    -0.043 A 
HETATM    2  C   UNK N   1      29.781  20.405  -6.928  0.00  0.00     0.008 A 
HETATM    3  C   UNK N   1      28.797  20.113  -7.863  0.00  0.00     0.003 A 
HETATM    4  C   UNK N   1      27.708  20.964  -8.017  0.00  0.00     0.031 A 
HETATM    5  C   UNK N   1      27.580  22.126  -7.235  0.00  0.00     0.050 A 
HETATM    6  C   UNK N   1      28.575  22.429  -6.271  0.00  0.00     0.032 A 
HETATM    7  C   UNK N   1      28.420  23.591  -5.483  0.00  0.00     0.100 A 
HETATM    8  C   UNK N   1      27.331  24.466  -5.691  0.00  0.00     0.134 A 
HETATM    9  C   UNK N   1      26.357  24.103  -6.651  0.00  0.00     0.266 A 
HETATM   10  O   UNK N   1      25.387  24.823  -6.834  0.00  0.00    -0.267 OA
HETATM   11  N   UNK N   1      26.498  22.950  -7.397  0.00  0.00    -0.317 N 
HETATM   12  C   UNK N   1      25.468  22.617  -8.383  0.00  0.00     0.159 C 
ENDROOT
BRANCH   8  13
HETATM   13  C   UNK N   1      27.147  25.732  -4.876  0.00  0.00     0.266 C 
HETATM   14  O   UNK N   1      26.364  25.674  -3.938  0.00  0.00    -0.267 OA
HETATM   15  N   UNK N   1      27.776  26.938  -5.172  0.00  0.00    -0.314 N 
BRANCH  15  16
HETATM   16  C   UNK N   1      28.483  27.091  -6.439  0.00  0.00     0.128 C 
HETATM   17  C   UNK N   1      27.586  27.642  -7.545  0.00  0.00     0.027 C 
ENDBRANCH  15  16
BRANCH  15  18
HETATM   18  C   UNK N   1      27.645  28.110  -4.324  0.00  0.00     0.037 A 
HETATM   19  C   UNK N   1      26.569  29.005  -4.509  0.00  0.00     0.029 A 
HETATM   20  C   UNK N   1      26.445  30.161  -3.736  0.00  0.00     0.002 A 
HETATM   21  C   UNK N   1      27.392  30.447  -2.754  0.00  0.00     0.000 A 
HETATM   22  C   UNK N   1      28.462  29.576  -2.546  0.00  0.00     0.002 A 
HETATM   23  C   UNK N   1      28.590  28.423  -3.325  0.00  0.00     0.029 A 
ENDBRANCH  15  18
ENDBRANCH   8  13
BRANCH   7  24
HETATM   24  O   UNK N   1      29.280  23.834  -4.484  0.00  0.00    -0.358 OA
HETATM   25  H   UNK N   1      30.204  23.688  -4.545  0.00  0.00     0.217 HD
ENDBRANCH   7  24
BRANCH   1  26
HETATM   26  C   UNK N   1      30.811  21.790  -5.166  0.00  0.00     0.035 C 
HETATM   27  C   UNK N   1      30.783  20.750  -4.059  0.00  0.00     0.010 C 
ENDBRANCH   1  26
TORSDOF 5
ENDMDL
MODEL 6
REMARK VINA RESULT:      -6.7      7.081     11.677
REMARK  5 active torsions:
REMARK  status: ('A' for Active; 'I' for Inactive)
REMARK    1  A    between atoms: C_2  and  C_3 
REMARK    2  A    between atoms: C_9  and  O_26 
REMARK    3  A    between atoms: C_10  and  C_15 
REMARK       I    between atoms: C_15  and  N_17 
REMARK    4  A    between atoms: N_17  and  C_18 
REMARK    5  A    between atoms: N_17  and  C_20 
ROOT
HETATM    1  C   UNK N   1      33.200  15.313   8.424  0.00  0.00    -0.043 A 
HETATM    2  C   UNK N   1      33.185  15.532   7.045  0.00  0.00     0.008 A 
HETATM    3  C   UNK N   1      34.292  15.222   6.265  0.00  0.00     0.003 A 
HETATM    4  C   UNK N   1      35.429  14.680   6.853  0.00  0.00     0.031 A 
HETATM    5  C   UNK N   1      35.483  14.437   8.238  0.00  0.00     0.050 A 
HETATM    6  C   UNK N   1      34.362  14.758   9.045  0.00  0.00     0.032 A 
HETATM    7  C   UNK N   1      34.441  14.524  10.435  0.00  0.00     0.100 A 
HETATM    8  C   UNK N   1      35.588  13.926  11.004  0.00  0.00     0.134 A 
HETATM    9  C   UNK N   1      36.685  13.647  10.155  0.00  0.00     0.266 A 
HETATM   10  O   UNK N   1      37.703  13.158  10.620  0.00  0.00    -0.267 OA
HETATM   11  N   UNK N   1      36.613  13.906   8.801  0.00  0.00    -0.317 N 
HETATM   12  C   UNK N   1      37.771  13.596   7.960  0.00  0.00     0.159 C 
ENDROOT
BRANCH   8  13
HETATM   13  C   UNK N   1      35.697  13.643  12.490  0.00  0.00     0.266 C 
HETATM   14  O   UNK N   1      36.133  14.545  13.192  0.00  0.00    -0.267 OA
HETATM   15  N   UNK N   1      35.377  12.417  13.067  0.00  0.00    -0.314 N 
BRANCH  15  16
HETATM   16  C   UNK N   1      35.128  11.261  12.212  0.00  0.00     0.128 C 
HETATM   17  C   UNK N   1      33.945  10.425  12.693  0.00  0.00     0.027 C 
ENDBRANCH  15  16
BRANCH  15  18
HETATM   18  C   UNK N   1      35.412  12.202  14.503  0.00  0.00     0.037 A 
HETATM   19  C   UNK N   1      34.572  12.952  15.354  0.00  0.00     0.029 A 
HETATM   20  C   UNK N   1      34.617  12.796  16.741  0.00  0.00     0.002 A 
HETATM   21  C   UNK N   1      35.501  11.880  17.310  0.00  0.00     0.000 A 
HETATM   22  C   UNK N   1      36.339  11.121  16.491  0.00  0.00     0.002 A 
HETATM   23  C   UNK N   1      36.298  11.284  15.103  0.00  0.00     0.029 A 
ENDBRANCH  15  18
ENDBRANCH   8  13
BRANCH   7  24
HETATM   24  O   UNK N   1      33.444  14.931  11.234  0.00  0.00    -0.358 OA
HETATM   25  H   UNK N   1      33.318  14.620  12.109  0.00  0.00     0.217 HD
ENDBRANCH   7  24
BRANCH   1  26
HETATM   26  C   UNK N   1      31.951  15.653   9.177  0.00  0.00     0.035 C 
HETATM   27  C   UNK N   1      31.265  16.845   8.531  0.00  0.00     0.010 C 
ENDBRANCH   1  26
TORSDOF 5
ENDMDL
MODEL 7
REMARK VINA RESULT:      -6.7      1.787      6.892
REMARK  5 active torsions:
REMARK  status: ('A' for Active; 'I' for Inactive)
REMARK    1  A    between atoms: C_2  and  C_3 
REMARK    2  A    between atoms: C_9  and  O_26 
REMARK    3  A    between atoms: C_10  and  C_15 
REMARK       I    between atoms: C_15  and  N_17 
REMARK    4  A    between atoms: N_17  and  C_18 
REMARK    5  A    between atoms: N_17  and  C_20 
ROOT
HETATM    1  C   UNK N   1      27.292  19.888   4.938  0.00  0.00    -0.043 A 
HETATM    2  C   UNK N   1      26.514  20.850   5.586  0.00  0.00     0.008 A 
HETATM    3  C   UNK N   1      26.549  20.978   6.969  0.00  0.00     0.003 A 
HETATM    4  C   UNK N   1      27.371  20.149   7.724  0.00  0.00     0.031 A 
HETATM    5  C   UNK N   1      28.176  19.172   7.111  0.00  0.00     0.050 A 
HETATM    6  C   UNK N   1      28.140  19.026   5.700  0.00  0.00     0.032 A 
HETATM    7  C   UNK N   1      28.942  18.028   5.104  0.00  0.00     0.100 A 
HETATM    8  C   UNK N   1      29.806  17.231   5.887  0.00  0.00     0.134 A 
HETATM    9  C   UNK N   1      29.784  17.403   7.291  0.00  0.00     0.266 A 
HETATM   10  O   UNK N   1      30.497  16.710   8.000  0.00  0.00    -0.267 OA
HETATM   11  N   UNK N   1      28.976  18.361   7.871  0.00  0.00    -0.317 N 
HETATM   12  C   UNK N   1      28.990  18.508   9.328  0.00  0.00     0.159 C 
ENDROOT
BRANCH   8  13
HETATM   13  C   UNK N   1      30.693  16.164   5.276  0.00  0.00     0.266 C 
HETATM   14  O   UNK N   1      30.195  15.058   5.115  0.00  0.00    -0.267 OA
HETATM   15  N   UNK N   1      32.030  16.369   4.945  0.00  0.00    -0.314 N 
BRANCH  15  16
HETATM   16  C   UNK N   1      32.704  17.584   5.388  0.00  0.00     0.128 C 
HETATM   17  C   UNK N   1      33.690  17.323   6.523  0.00  0.00     0.027 C 
ENDBRANCH  15  16
BRANCH  15  18
HETATM   18  C   UNK N   1      32.830  15.353   4.283  0.00  0.00     0.037 A 
HETATM   19  C   UNK N   1      33.182  14.169   4.967  0.00  0.00     0.029 A 
HETATM   20  C   UNK N   1      33.986  13.197   4.368  0.00  0.00     0.002 A 
HETATM   21  C   UNK N   1      34.454  13.384   3.068  0.00  0.00     0.000 A 
HETATM   22  C   UNK N   1      34.116  14.543   2.368  0.00  0.00     0.002 A 
HETATM   23  C   UNK N   1      33.317  15.518   2.970  0.00  0.00     0.029 A 
ENDBRANCH  15  18
ENDBRANCH   8  13
BRANCH   7  24
HETATM   24  O   UNK N   1      28.834  17.789   3.789  0.00  0.00    -0.358 OA
HETATM   25  H   UNK N   1      28.677  16.940   3.425  0.00  0.00     0.217 HD
ENDBRANCH   7  24
BRANCH   1  26
HETATM   26  C   UNK N   1      27.206  19.843   3.444  0.00  0.00     0.035 C 
HETATM   27  C   UNK N   1      25.899  20.460   2.980  0.00  0.00     0.010 C 
ENDBRANCH   1  26
TORSDOF 5
ENDMDL
MODEL 8
REMARK VINA RESULT:      -6.7      7.407     10.814
REMARK  5 active torsions:
REMARK  status: ('A' for Active; 'I' for Inactive)
REMARK    1  A    between atoms: C_2  and  C_3 
REMARK    2  A    between atoms: C_9  and  O_26 
REMARK    3  A    between atoms: C_10  and  C_15 
REMARK       I    between atoms: C_15  and  N_17 
REMARK    4  A    between atoms: N_17  and  C_18 
REMARK    5  A    between atoms: N_17  and  C_20 
ROOT
HETATM    1  C   UNK N   1      35.188  10.131  13.432  0.00  0.00    -0.043 A 
HETATM    2  C   UNK N   1      35.676   9.430  14.537  0.00  0.00     0.008 A 
HETATM    3  C   UNK N   1      36.386  10.083  15.536  0.00  0.00     0.003 A 
HETATM    4  C   UNK N   1      36.613  11.452  15.448  0.00  0.00     0.031 A 
HETATM    5  C   UNK N   1      36.134  12.197  14.355  0.00  0.00     0.050 A 
HETATM    6  C   UNK N   1      35.415  11.538  13.325  0.00  0.00     0.032 A 
HETATM    7  C   UNK N   1      34.956  12.301  12.228  0.00  0.00     0.100 A 
HETATM    8  C   UNK N   1      35.155  13.698  12.185  0.00  0.00     0.134 A 
HETATM    9  C   UNK N   1      35.899  14.299  13.228  0.00  0.00     0.266 A 
HETATM   10  O   UNK N   1      36.115  15.502  13.205  0.00  0.00    -0.267 OA
HETATM   11  N   UNK N   1      36.370  13.545  14.283  0.00  0.00    -0.317 N 
HETATM   12  C   UNK N   1      37.130  14.210  15.343  0.00  0.00     0.159 C 
ENDROOT
BRANCH   8  13
HETATM   13  C   UNK N   1      34.659  14.548  11.030  0.00  0.00     0.266 C 
HETATM   14  O   UNK N   1      33.459  14.786  10.997  0.00  0.00    -0.267 OA
HETATM   15  N   UNK N   1      35.480  15.014  10.007  0.00  0.00    -0.314 N 
BRANCH  15  16
HETATM   16  C   UNK N   1      36.843  14.506   9.888  0.00  0.00     0.128 C 
HETATM   17  C   UNK N   1      36.909  13.194   9.110  0.00  0.00     0.027 C 
ENDBRANCH  15  16
BRANCH  15  18
HETATM   18  C   UNK N   1      34.991  15.895   8.960  0.00  0.00     0.037 A 
HETATM   19  C   UNK N   1      34.827  17.274   9.212  0.00  0.00     0.029 A 
HETATM   20  C   UNK N   1      34.318  18.134   8.237  0.00  0.00     0.002 A 
HETATM   21  C   UNK N   1      33.967  17.635   6.983  0.00  0.00     0.000 A 
HETATM   22  C   UNK N   1      34.127  16.277   6.706  0.00  0.00     0.002 A 
HETATM   23  C   UNK N   1      34.629  15.416   7.685  0.00  0.00     0.029 A 
ENDBRANCH  15  18
ENDBRANCH   8  13
BRANCH   7  24
HETATM   24  O   UNK N   1      34.382  11.683  11.186  0.00  0.00    -0.358 OA
HETATM   25  H   UNK N   1      33.627  12.010  10.739  0.00  0.00     0.217 HD
ENDBRANCH   7  24
BRANCH   1  26
HETATM   26  C   UNK N   1      34.411   9.347  12.421  0.00  0.00     0.035 C 
HETATM   27  C   UNK N   1      35.108   8.027  12.141  0.00  0.00     0.010 C 
ENDBRANCH   1  26
TORSDOF 5
ENDMDL
MODEL 9
REMARK VINA RESULT:      -6.7      3.739      9.171
REMARK  5 active torsions:
REMARK  status: ('A' for Active; 'I' for Inactive)
REMARK    1  A    between atoms: C_2  and  C_3 
REMARK    2  A    between atoms: C_9  and  O_26 
REMARK    3  A    between atoms: C_10  and  C_15 
REMARK       I    between atoms: C_15  and  N_17 
REMARK    4  A    between atoms: N_17  and  C_18 
REMARK    5  A    between atoms: N_17  and  C_20 
ROOT
HETATM    1  C   UNK N   1      29.467  17.387   7.201  0.00  0.00    -0.043 A 
HETATM    2  C   UNK N   1      28.629  17.787   6.158  0.00  0.00     0.008 A 
HETATM    3  C   UNK N   1      29.115  17.910   4.863  0.00  0.00     0.003 A 
HETATM    4  C   UNK N   1      30.448  17.626   4.590  0.00  0.00     0.031 A 
HETATM    5  C   UNK N   1      31.326  17.214   5.610  0.00  0.00     0.050 A 
HETATM    6  C   UNK N   1      30.841  17.094   6.937  0.00  0.00     0.032 A 
HETATM    7  C   UNK N   1      31.741  16.696   7.951  0.00  0.00     0.100 A 
HETATM    8  C   UNK N   1      33.079  16.365   7.641  0.00  0.00     0.134 A 
HETATM    9  C   UNK N   1      33.514  16.525   6.304  0.00  0.00     0.266 A 
HETATM   10  O   UNK N   1      34.673  16.276   6.008  0.00  0.00    -0.267 OA
HETATM   11  N   UNK N   1      32.637  16.943   5.323  0.00  0.00    -0.317 N 
HETATM   12  C   UNK N   1      33.130  17.089   3.952  0.00  0.00     0.159 C 
ENDROOT
BRANCH   8  13
HETATM   13  C   UNK N   1      34.065  15.916   8.703  0.00  0.00     0.266 C 
HETATM   14  O   UNK N   1      34.838  16.761   9.130  0.00  0.00    -0.267 OA
HETATM   15  N   UNK N   1      34.158  14.605   9.163  0.00  0.00    -0.314 N 
BRANCH  15  16
HETATM   16  C   UNK N   1      33.441  13.543   8.465  0.00  0.00     0.128 C 
HETATM   17  C   UNK N   1      34.265  12.926   7.338  0.00  0.00     0.027 C 
ENDBRANCH  15  16
BRANCH  15  18
HETATM   18  C   UNK N   1      35.055  14.222  10.240  0.00  0.00     0.037 A 
HETATM   19  C   UNK N   1      34.643  14.346  11.584  0.00  0.00     0.029 A 
HETATM   20  C   UNK N   1      35.502  14.026  12.638  0.00  0.00     0.002 A 
HETATM   21  C   UNK N   1      36.791  13.569  12.371  0.00  0.00     0.000 A 
HETATM   22  C   UNK N   1      37.221  13.431  11.051  0.00  0.00     0.002 A 
HETATM   23  C   UNK N   1      36.364  13.759   9.997  0.00  0.00     0.029 A 
ENDBRANCH  15  18
ENDBRANCH   8  13
BRANCH   7  24
HETATM   24  O   UNK N   1      31.340  16.693   9.230  0.00  0.00    -0.358 OA
HETATM   25  H   UNK N   1      30.440  16.682   9.493  0.00  0.00     0.217 HD
ENDBRANCH   7  24
BRANCH   1  26
HETATM   26  C   UNK N   1      28.847  17.257   8.557  0.00  0.00     0.035 C 
HETATM   27  C   UNK N   1      28.266  18.592   8.992  0.00  0.00     0.010 C 
ENDBRANCH   1  26
TORSDOF 5
ENDMDL
