REMARK  11 active torsions:
REMARK  status: ('A' for Active; 'I' for Inactive)
REMARK    1  A    between atoms: C_2  and  C_4 
REMARK    2  A    between atoms: C_2  and  N_35 
REMARK       I    between atoms: C_4  and  N_6 
REMARK    3  A    between atoms: C_7  and  N_6 
REMARK    4  A    between atoms: C_7  and  C_8 
REMARK    5  A    between atoms: C_7  and  C_18 
REMARK    6  A    between atoms: C_8  and  C_9 
REMARK       I    between atoms: C_18  and  N_20 
REMARK    7  A    between atoms: C_21  and  N_20 
REMARK    8  A    between atoms: C_21  and  C_22 
REMARK    9  A    between atoms: C_21  and  N_32 
REMARK   10  A    between atoms: C_22  and  C_23 
REMARK   11  A    between atoms: N_32  and  C_33 
ROOT
HETATM    1  C   UNK N   1      -4.037  -1.112   0.569  0.00  0.00     0.181 C 
ENDROOT
BRANCH   1   2
HETATM    2  N   UNK N   1      -4.628   0.215   0.523  0.00  0.00    -0.345 N 
HETATM    3  C   UNK N   1      -4.122   1.270  -0.169  0.00  0.00     0.245 C 
HETATM    4  O   UNK N   1      -3.103   1.145  -0.834  0.00  0.00    -0.271 OA
HETATM    5  H   UNK N   1      -5.458   0.361   1.033  0.00  0.00     0.163 HD
BRANCH   3   6
HETATM    6  C   UNK N   1      -4.821   2.605  -0.125  0.00  0.00     0.098 C 
HETATM    7  C   UNK N   1      -5.219   3.027  -1.527  0.00  0.00     0.048 C 
HETATM    8  C   UNK N   1      -3.887   3.647   0.460  0.00  0.00     0.048 C 
BRANCH   6   9
HETATM    9  N   UNK N   1      -6.019   2.536   0.698  0.00  0.00    -0.415 N 
HETATM   10  H   UNK N   1      -6.480   3.240   1.275  0.00  0.00     0.151 HD
HETATM   11  H   UNK N   1      -6.477   1.625   0.698  0.00  0.00     0.151 HD
ENDBRANCH   6   9
ENDBRANCH   3   6
ENDBRANCH   1   2
BRANCH   1  12
HETATM   12  C   UNK N   1      -4.886  -2.036   1.450  0.00  0.00     0.075 C 
BRANCH  12  13
HETATM   13  C   UNK N   1      -6.331  -1.982   1.066  0.00  0.00    -0.028 A 
HETATM   14  C   UNK N   1      -7.235  -0.969   1.379  0.00  0.00     0.096 A 
HETATM   15  N   UNK N   1      -8.427  -1.228   0.792  0.00  0.00    -0.365 N 
HETATM   16  C   UNK N   1      -8.267  -2.386   0.116  0.00  0.00     0.042 A 
HETATM   17  H   UNK N   1      -9.245  -0.683   0.846  0.00  0.00     0.165 HD
HETATM   18  C   UNK N   1      -7.001  -2.868   0.274  0.00  0.00    -0.002 A 
HETATM   19  C   UNK N   1      -9.211  -3.032  -0.669  0.00  0.00     0.030 A 
HETATM   20  C   UNK N   1      -6.580  -4.046  -0.344  0.00  0.00     0.014 A 
HETATM   21  C   UNK N   1      -7.510  -4.731  -1.144  0.00  0.00     0.001 A 
HETATM   22  C   UNK N   1      -8.821  -4.225  -1.309  0.00  0.00     0.002 A 
ENDBRANCH  12  13
ENDBRANCH   1  12
BRANCH   1  23
HETATM   23  C   UNK N   1      -3.840  -1.683  -0.819  0.00  0.00     0.242 C 
HETATM   24  O   UNK N   1      -4.802  -1.807  -1.561  0.00  0.00    -0.271 OA
HETATM   25  N   UNK N   1      -2.606  -2.017  -1.284  0.00  0.00    -0.338 N 
HETATM   26  H   UNK N   1      -2.546  -2.311  -2.222  0.00  0.00     0.164 HD
BRANCH  25  27
HETATM   27  C   UNK N   1      -1.368  -1.980  -0.525  0.00  0.00     0.190 C 
BRANCH  27  28
HETATM   28  C   UNK N   1      -1.201  -0.701   0.286  0.00  0.00     0.087 C 
BRANCH  28  29
HETATM   29  C   UNK N   1       0.230  -0.404   0.549  0.00  0.00    -0.027 A 
HETATM   30  C   UNK N   1       1.142  -1.183   1.253  0.00  0.00     0.096 A 
HETATM   31  N   UNK N   1       2.352  -0.569   1.254  0.00  0.00    -0.365 N 
HETATM   32  C   UNK N   1       2.189   0.576   0.565  0.00  0.00     0.042 A 
HETATM   33  H   UNK N   1       3.181  -0.894   1.674  0.00  0.00     0.165 HD
HETATM   34  C   UNK N   1       0.904   0.706   0.127  0.00  0.00    -0.002 A 
HETATM   35  C   UNK N   1       3.156   1.538   0.294  0.00  0.00     0.030 A 
HETATM   36  C   UNK N   1       0.480   1.808  -0.612  0.00  0.00     0.014 A 
HETATM   37  C   UNK N   1       1.431   2.803  -0.901  0.00  0.00     0.001 A 
HETATM   38  C   UNK N   1       2.765   2.667  -0.452  0.00  0.00     0.002 A 
ENDBRANCH  28  29
ENDBRANCH  27  28
BRANCH  27  39
HETATM   39  N   UNK N   1      -1.252  -3.140   0.316  0.00  0.00    -0.347 N 
HETATM   40  H   UNK N   1      -1.908  -3.303   1.032  0.00  0.00     0.163 HD
BRANCH  39  41
HETATM   41  C   UNK N   1      -0.235  -4.003   0.117  0.00  0.00     0.350 C 
HETATM   42  O   UNK N   1      -0.112  -4.980   0.835  0.00  0.00    -0.284 OA
ENDBRANCH  39  41
ENDBRANCH  27  39
ENDBRANCH  25  27
ENDBRANCH   1  23
TORSDOF 11
