MODEL 1
REMARK VINA RESULT:      -6.9      0.000      0.000
REMARK  0 active torsions:
REMARK  status: ('A' for Active; 'I' for Inactive)
ROOT
HETATM    1  C   UNK N   1      37.837   9.723  14.717  0.00  0.00     0.010 C 
HETATM    2  C   UNK N   1      35.252  13.530  18.304  0.00  0.00     0.021 C 
HETATM    3  C   UNK N   1      35.925  14.739  10.727  0.00  0.00     0.082 C 
HETATM    4  C   UNK N   1      35.981  10.494  16.161  0.00  0.00     0.005 C 
HETATM    5  C   UNK N   1      34.688  11.358  16.187  0.00  0.00     0.009 C 
HETATM    6  C   UNK N   1      37.343  11.935  12.804  0.00  0.00     0.014 C 
HETATM    7  C   UNK N   1      36.607  12.548  11.609  0.00  0.00     0.071 C 
HETATM    8  C   UNK N   1      37.078  10.965  15.166  0.00  0.00    -0.011 C 
HETATM    9  C   UNK N   1      35.950  13.386  16.956  0.00  0.00     0.089 C 
HETATM   10  C   UNK N   1      36.408  11.671  13.986  0.00  0.00     0.033 C 
HETATM   11  C   UNK N   1      34.983  12.825  15.855  0.00  0.00     0.042 C 
HETATM   12  C   UNK N   1      36.600  14.654  16.498  0.00  0.00     0.265 C 
HETATM   13  C   UNK N   1      36.173  14.366  14.227  0.00  0.00     0.311 C 
HETATM   14  C   UNK N   1      35.953  13.886  11.977  0.00  0.00     0.196 C 
HETATM   15  C   UNK N   1      35.538  12.932  14.381  0.00  0.00     0.154 C 
HETATM   16  O   UNK N   1      36.693  15.630  17.228  0.00  0.00    -0.265 OA
HETATM   17  O   UNK N   1      37.052  14.713  15.228  0.00  0.00    -0.286 OA
HETATM   18  O   UNK N   1      36.744  14.557  12.951  0.00  0.00    -0.319 OA
HETATM   19  O   UNK N   1      34.596  13.732  12.416  0.00  0.00    -0.200 OA
HETATM   20  O   UNK N   1      34.467  12.862  13.438  0.00  0.00    -0.221 OA
ENDROOT
TORSDOF 0
ENDMDL
MODEL 2
REMARK VINA RESULT:      -6.8      1.964      4.717
REMARK  0 active torsions:
REMARK  status: ('A' for Active; 'I' for Inactive)
ROOT
HETATM    1  C   UNK N   1      33.597   9.633  11.355  0.00  0.00     0.010 C 
HETATM    2  C   UNK N   1      37.321  13.966  10.169  0.00  0.00     0.021 C 
HETATM    3  C   UNK N   1      35.082  12.238  17.334  0.00  0.00     0.082 C 
HETATM    4  C   UNK N   1      35.804  10.535  10.691  0.00  0.00     0.005 C 
HETATM    5  C   UNK N   1      37.154  11.077  11.240  0.00  0.00     0.009 C 
HETATM    6  C   UNK N   1      33.880  10.788  14.072  0.00  0.00     0.014 C 
HETATM    7  C   UNK N   1      34.387  10.736  15.516  0.00  0.00     0.071 C 
HETATM    8  C   UNK N   1      34.567  10.782  11.598  0.00  0.00    -0.011 C 
HETATM    9  C   UNK N   1      36.324  13.445  11.199  0.00  0.00     0.089 C 
HETATM   10  C   UNK N   1      35.024  10.832  13.057  0.00  0.00     0.033 C 
HETATM   11  C   UNK N   1      36.951  12.326  12.104  0.00  0.00     0.042 C 
HETATM   12  C   UNK N   1      35.727  14.533  12.035  0.00  0.00     0.265 C 
HETATM   13  C   UNK N   1      35.595  13.309  14.011  0.00  0.00     0.311 C 
HETATM   14  C   UNK N   1      35.247  11.960  15.855  0.00  0.00     0.196 C 
HETATM   15  C   UNK N   1      36.091  11.956  13.376  0.00  0.00     0.154 C 
HETATM   16  O   UNK N   1      35.908  15.715  11.777  0.00  0.00    -0.265 OA
HETATM   17  O   UNK N   1      35.008  14.179  13.120  0.00  0.00    -0.286 OA
HETATM   18  O   UNK N   1      34.774  13.095  15.138  0.00  0.00    -0.319 OA
HETATM   19  O   UNK N   1      36.644  11.733  15.619  0.00  0.00    -0.200 OA
HETATM   20  O   UNK N   1      36.907  11.322  14.362  0.00  0.00    -0.221 OA
ENDROOT
TORSDOF 0
ENDMDL
MODEL 3
REMARK VINA RESULT:      -6.7     21.852     25.056
REMARK  0 active torsions:
REMARK  status: ('A' for Active; 'I' for Inactive)
ROOT
HETATM    1  C   UNK N   1      25.604  24.449  -8.179  0.00  0.00     0.010 C 
HETATM    2  C   UNK N   1      26.090  28.885  -4.420  0.00  0.00     0.021 C 
HETATM    3  C   UNK N   1      30.234  22.421  -3.797  0.00  0.00     0.082 C 
HETATM    4  C   UNK N   1      26.332  26.720  -7.519  0.00  0.00     0.005 C 
HETATM    5  C   UNK N   1      27.468  27.520  -6.820  0.00  0.00     0.009 C 
HETATM    6  C   UNK N   1      27.461  23.223  -6.218  0.00  0.00     0.014 C 
HETATM    7  C   UNK N   1      28.844  22.710  -5.804  0.00  0.00     0.071 C 
HETATM    8  C   UNK N   1      26.124  25.268  -7.005  0.00  0.00    -0.011 C 
HETATM    9  C   UNK N   1      26.316  27.387  -4.594  0.00  0.00     0.089 C 
HETATM   10  C   UNK N   1      27.460  24.728  -6.491  0.00  0.00     0.033 C 
HETATM   11  C   UNK N   1      27.650  27.083  -5.362  0.00  0.00     0.042 C 
HETATM   12  C   UNK N   1      26.263  26.635  -3.301  0.00  0.00     0.265 C 
HETATM   13  C   UNK N   1      27.905  25.073  -3.834  0.00  0.00     0.311 C 
HETATM   14  C   UNK N   1      29.342  23.402  -4.529  0.00  0.00     0.196 C 
HETATM   15  C   UNK N   1      28.102  25.571  -5.315  0.00  0.00     0.154 C 
HETATM   16  O   UNK N   1      25.903  27.168  -2.261  0.00  0.00    -0.265 OA
HETATM   17  O   UNK N   1      26.668  25.349  -3.297  0.00  0.00    -0.286 OA
HETATM   18  O   UNK N   1      28.239  23.710  -3.685  0.00  0.00    -0.319 OA
HETATM   19  O   UNK N   1      30.133  24.566  -4.810  0.00  0.00    -0.200 OA
HETATM   20  O   UNK N   1      29.498  25.459  -5.597  0.00  0.00    -0.221 OA
ENDROOT
TORSDOF 0
ENDMDL
MODEL 4
REMARK VINA RESULT:      -6.7     23.601     26.132
REMARK  0 active torsions:
REMARK  status: ('A' for Active; 'I' for Inactive)
ROOT
HETATM    1  C   UNK N   1      28.321  28.101  -8.445  0.00  0.00     0.010 C 
HETATM    2  C   UNK N   1      25.931  23.713  -5.430  0.00  0.00     0.021 C 
HETATM    3  C   UNK N   1      27.764  30.468  -2.213  0.00  0.00     0.082 C 
HETATM    4  C   UNK N   1      26.439  26.632  -7.789  0.00  0.00     0.005 C 
HETATM    5  C   UNK N   1      25.308  26.436  -6.740  0.00  0.00     0.009 C 
HETATM    6  C   UNK N   1      28.436  29.264  -5.719  0.00  0.00     0.014 C 
HETATM    7  C   UNK N   1      27.968  30.262  -4.654  0.00  0.00     0.071 C 
HETATM    8  C   UNK N   1      27.717  27.346  -7.267  0.00  0.00    -0.011 C 
HETATM    9  C   UNK N   1      26.766  24.983  -5.305  0.00  0.00     0.089 C 
HETATM   10  C   UNK N   1      27.327  28.296  -6.133  0.00  0.00     0.033 C 
HETATM   11  C   UNK N   1      25.873  26.273  -5.325  0.00  0.00     0.042 C 
HETATM   12  C   UNK N   1      27.664  24.976  -4.107  0.00  0.00     0.265 C 
HETATM   13  C   UNK N   1      27.494  27.249  -3.633  0.00  0.00     0.311 C 
HETATM   14  C   UNK N   1      27.493  29.546  -3.383  0.00  0.00     0.196 C 
HETATM   15  C   UNK N   1      26.624  27.595  -4.900  0.00  0.00     0.154 C 
HETATM   16  O   UNK N   1      27.815  23.973  -3.423  0.00  0.00    -0.265 OA
HETATM   17  O   UNK N   1      28.280  26.126  -3.767  0.00  0.00    -0.286 OA
HETATM   18  O   UNK N   1      28.248  28.356  -3.190  0.00  0.00    -0.319 OA
HETATM   19  O   UNK N   1      26.084  29.280  -3.397  0.00  0.00    -0.200 OA
HETATM   20  O   UNK N   1      25.686  28.591  -4.486  0.00  0.00    -0.221 OA
ENDROOT
TORSDOF 0
ENDMDL
MODEL 5
REMARK VINA RESULT:      -6.7      7.525     10.685
REMARK  0 active torsions:
REMARK  status: ('A' for Active; 'I' for Inactive)
ROOT
HETATM    1  C   UNK N   1      33.363  13.532   4.028  0.00  0.00     0.010 C 
HETATM    2  C   UNK N   1      29.364  17.780   4.131  0.00  0.00     0.021 C 
HETATM    3  C   UNK N   1      34.970  17.204   9.383  0.00  0.00     0.082 C 
HETATM    4  C   UNK N   1      32.342  15.631   3.205  0.00  0.00     0.005 C 
HETATM    5  C   UNK N   1      32.302  17.171   3.412  0.00  0.00     0.009 C 
HETATM    6  C   UNK N   1      34.098  14.830   6.592  0.00  0.00     0.014 C 
HETATM    7  C   UNK N   1      35.035  15.679   7.456  0.00  0.00     0.071 C 
HETATM    8  C   UNK N   1      32.639  14.794   4.480  0.00  0.00    -0.011 C 
HETATM    9  C   UNK N   1      30.357  17.001   4.988  0.00  0.00     0.089 C 
HETATM   10  C   UNK N   1      33.501  15.626   5.430  0.00  0.00     0.033 C 
HETATM   11  C   UNK N   1      31.821  17.539   4.820  0.00  0.00     0.042 C 
HETATM   12  C   UNK N   1      29.969  16.954   6.433  0.00  0.00     0.265 C 
HETATM   13  C   UNK N   1      32.132  17.053   7.291  0.00  0.00     0.311 C 
HETATM   14  C   UNK N   1      34.303  16.884   8.062  0.00  0.00     0.196 C 
HETATM   15  C   UNK N   1      32.846  16.992   5.888  0.00  0.00     0.154 C 
HETATM   16  O   UNK N   1      28.881  17.357   6.821  0.00  0.00    -0.265 OA
HETATM   17  O   UNK N   1      30.875  16.491   7.319  0.00  0.00    -0.286 OA
HETATM   18  O   UNK N   1      32.947  16.542   8.323  0.00  0.00    -0.319 OA
HETATM   19  O   UNK N   1      34.404  18.056   7.241  0.00  0.00    -0.200 OA
HETATM   20  O   UNK N   1      33.982  17.853   5.976  0.00  0.00    -0.221 OA
ENDROOT
TORSDOF 0
ENDMDL
MODEL 6
REMARK VINA RESULT:      -6.1     15.514     19.055
REMARK  0 active torsions:
REMARK  status: ('A' for Active; 'I' for Inactive)
ROOT
HETATM    1  C   UNK N   1      40.887  25.657  -0.458  0.00  0.00     0.010 C 
HETATM    2  C   UNK N   1      46.696  25.332  -0.014  0.00  0.00     0.021 C 
HETATM    3  C   UNK N   1      41.961  20.415   3.555  0.00  0.00     0.082 C 
HETATM    4  C   UNK N   1      43.148  25.142  -1.324  0.00  0.00     0.005 C 
HETATM    5  C   UNK N   1      44.249  24.045  -1.382  0.00  0.00     0.009 C 
HETATM    6  C   UNK N   1      41.100  23.486   1.551  0.00  0.00     0.014 C 
HETATM    7  C   UNK N   1      40.978  22.019   1.973  0.00  0.00     0.071 C 
HETATM    8  C   UNK N   1      42.256  25.126  -0.052  0.00  0.00    -0.011 C 
HETATM    9  C   UNK N   1      45.385  24.949   0.665  0.00  0.00     0.089 C 
HETATM   10  C   UNK N   1      42.167  23.692   0.474  0.00  0.00     0.033 C 
HETATM   11  C   UNK N   1      44.746  23.670   0.019  0.00  0.00     0.042 C 
HETATM   12  C   UNK N   1      45.521  24.787   2.147  0.00  0.00     0.265 C 
HETATM   13  C   UNK N   1      44.005  23.032   2.361  0.00  0.00     0.311 C 
HETATM   14  C   UNK N   1      42.300  21.483   2.536  0.00  0.00     0.196 C 
HETATM   15  C   UNK N   1      43.560  23.041   0.850  0.00  0.00     0.154 C 
HETATM   16  O   UNK N   1      46.543  25.104   2.737  0.00  0.00    -0.265 OA
HETATM   17  O   UNK N   1      44.492  24.235   2.822  0.00  0.00    -0.286 OA
HETATM   18  O   UNK N   1      42.996  22.527   3.207  0.00  0.00    -0.319 OA
HETATM   19  O   UNK N   1      43.116  20.866   1.530  0.00  0.00    -0.200 OA
HETATM   20  O   UNK N   1      43.361  21.676   0.479  0.00  0.00    -0.221 OA
ENDROOT
TORSDOF 0
ENDMDL
MODEL 7
REMARK VINA RESULT:      -6.0     23.223     25.611
REMARK  0 active torsions:
REMARK  status: ('A' for Active; 'I' for Inactive)
ROOT
HETATM    1  C   UNK N   1      29.516  22.902  -4.110  0.00  0.00     0.010 C 
HETATM    2  C   UNK N   1      26.664  27.992  -4.084  0.00  0.00     0.021 C 
HETATM    3  C   UNK N   1      26.020  22.883  -9.812  0.00  0.00     0.082 C 
HETATM    4  C   UNK N   1      27.748  24.444  -3.322  0.00  0.00     0.005 C 
HETATM    5  C   UNK N   1      26.313  24.962  -3.618  0.00  0.00     0.009 C 
HETATM    6  C   UNK N   1      28.290  22.786  -6.808  0.00  0.00     0.014 C 
HETATM    7  C   UNK N   1      27.282  22.216  -7.811  0.00  0.00     0.071 C 
HETATM    8  C   UNK N   1      28.569  24.004  -4.566  0.00  0.00    -0.011 C 
HETATM    9  C   UNK N   1      27.188  26.877  -4.984  0.00  0.00     0.089 C 
HETATM   10  C   UNK N   1      27.606  23.507  -5.645  0.00  0.00     0.033 C 
HETATM   11  C   UNK N   1      26.229  25.636  -4.993  0.00  0.00     0.042 C 
HETATM   12  C   UNK N   1      27.474  27.339  -6.379  0.00  0.00     0.265 C 
HETATM   13  C   UNK N   1      26.817  25.378  -7.448  0.00  0.00     0.311 C 
HETATM   14  C   UNK N   1      26.405  23.321  -8.415  0.00  0.00     0.196 C 
HETATM   15  C   UNK N   1      26.541  24.576  -6.121  0.00  0.00     0.154 C 
HETATM   16  O   UNK N   1      27.446  28.524  -6.682  0.00  0.00    -0.265 OA
HETATM   17  O   UNK N   1      27.725  26.405  -7.318  0.00  0.00    -0.286 OA
HETATM   18  O   UNK N   1      27.153  24.526  -8.521  0.00  0.00    -0.319 OA
HETATM   19  O   UNK N   1      25.187  23.518  -7.682  0.00  0.00    -0.200 OA
HETATM   20  O   UNK N   1      25.394  23.762  -6.371  0.00  0.00    -0.221 OA
ENDROOT
TORSDOF 0
ENDMDL
MODEL 8
REMARK VINA RESULT:      -6.0     24.221     26.210
REMARK  0 active torsions:
REMARK  status: ('A' for Active; 'I' for Inactive)
ROOT
HETATM    1  C   UNK N   1      26.472  25.345 -10.466  0.00  0.00     0.010 C 
HETATM    2  C   UNK N   1      28.213  20.394  -7.915  0.00  0.00     0.021 C 
HETATM    3  C   UNK N   1      25.989  26.587  -3.910  0.00  0.00     0.082 C 
HETATM    4  C   UNK N   1      26.179  22.983  -9.787  0.00  0.00     0.005 C 
HETATM    5  C   UNK N   1      25.715  22.061  -8.624  0.00  0.00     0.009 C 
HETATM    6  C   UNK N   1      26.443  26.221  -7.632  0.00  0.00     0.014 C 
HETATM    7  C   UNK N   1      25.709  26.632  -6.352  0.00  0.00     0.071 C 
HETATM    8  C   UNK N   1      26.782  24.349  -9.356  0.00  0.00    -0.011 C 
HETATM    9  C   UNK N   1      28.044  21.895  -7.706  0.00  0.00     0.089 C 
HETATM   10  C   UNK N   1      26.151  24.773  -8.028  0.00  0.00     0.033 C 
HETATM   11  C   UNK N   1      26.561  22.274  -7.364  0.00  0.00     0.042 C 
HETATM   12  C   UNK N   1      28.985  22.450  -6.682  0.00  0.00     0.265 C 
HETATM   13  C   UNK N   1      27.519  24.031  -5.803  0.00  0.00     0.311 C 
HETATM   14  C   UNK N   1      26.110  25.747  -5.165  0.00  0.00     0.196 C 
HETATM   15  C   UNK N   1      26.366  23.750  -6.840  0.00  0.00     0.154 C 
HETATM   16  O   UNK N   1      29.893  21.779  -6.213  0.00  0.00    -0.265 OA
HETATM   17  O   UNK N   1      28.781  23.711  -6.250  0.00  0.00    -0.286 OA
HETATM   18  O   UNK N   1      27.468  25.348  -5.299  0.00  0.00    -0.319 OA
HETATM   19  O   UNK N   1      25.241  24.617  -5.004  0.00  0.00    -0.200 OA
HETATM   20  O   UNK N   1      25.138  23.867  -6.120  0.00  0.00    -0.221 OA
ENDROOT
TORSDOF 0
ENDMDL
MODEL 9
REMARK VINA RESULT:      -5.9     15.696     17.613
REMARK  0 active torsions:
REMARK  status: ('A' for Active; 'I' for Inactive)
ROOT
HETATM    1  C   UNK N   1      24.226  14.846   6.344  0.00  0.00     0.010 C 
HETATM    2  C   UNK N   1      19.163  15.854   9.064  0.00  0.00     0.021 C 
HETATM    3  C   UNK N   1      21.525  19.968   2.994  0.00  0.00     0.082 C 
HETATM    4  C   UNK N   1      21.880  14.311   6.923  0.00  0.00     0.005 C 
HETATM    5  C   UNK N   1      20.399  14.586   6.537  0.00  0.00     0.009 C 
HETATM    6  C   UNK N   1      23.370  17.285   4.889  0.00  0.00     0.014 C 
HETATM    7  C   UNK N   1      22.850  17.999   3.638  0.00  0.00     0.071 C 
HETATM    8  C   UNK N   1      22.871  15.475   6.640  0.00  0.00    -0.011 C 
HETATM    9  C   UNK N   1      20.230  16.482   8.172  0.00  0.00     0.089 C 
HETATM   10  C   UNK N   1      22.356  16.286   5.449  0.00  0.00     0.033 C 
HETATM   11  C   UNK N   1      20.049  16.072   6.668  0.00  0.00     0.042 C 
HETATM   12  C   UNK N   1      20.305  17.970   8.313  0.00  0.00     0.265 C 
HETATM   13  C   UNK N   1      20.805  18.423   6.084  0.00  0.00     0.311 C 
HETATM   14  C   UNK N   1      21.560  18.777   3.929  0.00  0.00     0.196 C 
HETATM   15  C   UNK N   1      20.917  16.913   5.652  0.00  0.00     0.154 C 
HETATM   16  O   UNK N   1      19.687  18.566   9.184  0.00  0.00    -0.265 OA
HETATM   17  O   UNK N   1      21.047  18.656   7.420  0.00  0.00    -0.286 OA
HETATM   18  O   UNK N   1      21.585  19.267   5.265  0.00  0.00    -0.319 OA
HETATM   19  O   UNK N   1      20.381  18.002   3.673  0.00  0.00    -0.200 OA
HETATM   20  O   UNK N   1      20.367  16.827   4.336  0.00  0.00    -0.221 OA
ENDROOT
TORSDOF 0
ENDMDL
