MODEL 1
REMARK VINA RESULT:      -5.0      0.000      0.000
REMARK WARNING: 32 MAX_TORS EXCEEDED!!!
REMARK  53 active torsions:
REMARK  status: ('A' for Active; 'I' for Inactive)
REMARK    1  A    between atoms: O_1  and  C_55 
REMARK    2  A    between atoms: O_1  and  C_58 
REMARK    3  A    between atoms: O_2  and  C_56 
REMARK    4  A    between atoms: O_2  and  C_59 
REMARK    5  A    between atoms: O_3  and  C_57 
REMARK    6  A    between atoms: O_3  and  C_60 
REMARK    7  A    between atoms: C_7  and  C_8 
REMARK    8  A    between atoms: C_7  and  C_11 
REMARK    9  A    between atoms: C_8  and  C_16 
REMARK   10  A    between atoms: C_9  and  C_12 
REMARK   11  A    between atoms: C_9  and  C_21 
REMARK   12  A    between atoms: C_10  and  C_13 
REMARK   13  A    between atoms: C_10  and  C_22 
REMARK   14  A    between atoms: C_11  and  C_31 
REMARK   15  A    between atoms: C_12  and  C_23 
REMARK   16  A    between atoms: C_13  and  C_24 
REMARK   17  A    between atoms: C_14  and  C_15 
REMARK   18  A    between atoms: C_14  and  C_25 
REMARK   19  A    between atoms: C_15  and  C_26 
REMARK   20  A    between atoms: C_16  and  C_34 
REMARK   21  A    between atoms: C_17  and  C_19 
REMARK   22  A    between atoms: C_17  and  C_27 
REMARK   23  A    between atoms: C_18  and  C_20 
REMARK   24  A    between atoms: C_18  and  C_28 
REMARK   25  A    between atoms: C_19  and  C_29 
REMARK   26  A    between atoms: C_20  and  C_30 
REMARK   27  A    between atoms: C_21  and  C_32 
REMARK   28  A    between atoms: C_22  and  C_33 
REMARK   29  A    between atoms: C_23  and  C_35 
REMARK   30  A    between atoms: C_24  and  C_36 
REMARK   31  A    between atoms: C_25  and  C_37 
REMARK   32  A    between atoms: C_26  and  C_38 
REMARK   33  A    between atoms: C_27  and  C_39 
REMARK   34  A    between atoms: C_28  and  C_40 
REMARK   35  A    between atoms: C_29  and  C_41 
REMARK   36  A    between atoms: C_30  and  C_42 
REMARK   37  A    between atoms: C_31  and  C_43 
REMARK   38  A    between atoms: C_32  and  C_44 
REMARK   39  A    between atoms: C_33  and  C_45 
REMARK   40  A    between atoms: C_34  and  C_46 
REMARK   41  A    between atoms: C_35  and  C_51 
REMARK   42  A    between atoms: C_36  and  C_52 
REMARK   43  A    between atoms: C_37  and  C_47 
REMARK   44  A    between atoms: C_38  and  C_48 
REMARK   45  A    between atoms: C_39  and  C_49 
REMARK   46  A    between atoms: C_40  and  C_50 
REMARK   47  A    between atoms: C_41  and  C_53 
REMARK   48  A    between atoms: C_42  and  C_54 
REMARK   49  A    between atoms: C_43  and  C_58 
REMARK   50  A    between atoms: C_44  and  C_59 
REMARK   51  A    between atoms: C_45  and  C_60 
REMARK   52  A    between atoms: C_55  and  C_56 
REMARK   53  A    between atoms: C_55  and  C_57 
ROOT
HETATM    1  C   UNK N   1      19.872  16.575   8.264  0.00  0.00     0.180 C 
ENDROOT
BRANCH   1   2
HETATM    2  O   UNK N   1      21.177  16.834   7.909  0.00  0.00    -0.312 OA
BRANCH   2   3
HETATM    3  C   UNK N   1      21.503  17.641   6.869  0.00  0.00     0.259 C 
HETATM    4  O   UNK N   1      21.059  18.777   6.802  0.00  0.00    -0.265 OA
BRANCH   3   5
HETATM    5  C   UNK N   1      22.429  17.155   5.794  0.00  0.00     0.111 C 
BRANCH   5   6
HETATM    6  C   UNK N   1      22.763  15.678   5.956  0.00  0.00     0.010 C 
BRANCH   6   7
HETATM    7  C   UNK N   1      24.158  15.373   5.428  0.00  0.00     0.000 C 
BRANCH   7   8
HETATM    8  C   UNK N   1      25.172  15.223   6.555  0.00  0.00     0.000 C 
BRANCH   8   9
HETATM    9  C   UNK N   1      26.370  16.117   6.285  0.00  0.00     0.000 C 
BRANCH   9  10
HETATM   10  C   UNK N   1      27.329  15.427   5.341  0.00  0.00     0.004 C 
BRANCH  10  11
HETATM   11  C   UNK N   1      27.442  16.242   4.063  0.00  0.00     0.027 C 
BRANCH  11  12
HETATM   12  C   UNK N   1      27.699  15.359   2.875  0.00  0.00    -0.031 C 
HETATM   13  C   UNK N   1      26.752  14.992   1.998  0.00  0.00    -0.031 C 
BRANCH  13  14
HETATM   14  C   UNK N   1      25.328  15.424   2.120  0.00  0.00     0.027 C 
BRANCH  14  15
HETATM   15  C   UNK N   1      24.397  14.429   1.464  0.00  0.00     0.004 C 
BRANCH  15  16
HETATM   16  C   UNK N   1      22.986  14.745   1.911  0.00  0.00     0.000 C 
BRANCH  16  17
HETATM   17  C   UNK N   1      21.984  14.270   0.882  0.00  0.00     0.000 C 
BRANCH  17  18
HETATM   18  C   UNK N   1      21.339  12.999   1.394  0.00  0.00     0.000 C 
BRANCH  18  19
HETATM   19  C   UNK N   1      20.067  12.715   0.627  0.00  0.00    -0.000 C 
BRANCH  19  20
HETATM   20  C   UNK N   1      18.959  13.598   1.162  0.00  0.00    -0.005 C 
HETATM   21  C   UNK N   1      18.044  14.010   0.029  0.00  0.00     0.005 C 
ENDBRANCH  19  20
ENDBRANCH  18  19
ENDBRANCH  17  18
ENDBRANCH  16  17
ENDBRANCH  15  16
ENDBRANCH  14  15
ENDBRANCH  13  14
ENDBRANCH  11  12
ENDBRANCH  10  11
ENDBRANCH   9  10
ENDBRANCH   8   9
ENDBRANCH   7   8
ENDBRANCH   6   7
ENDBRANCH   5   6
ENDBRANCH   3   5
ENDBRANCH   2   3
ENDBRANCH   1   2
BRANCH   1  22
HETATM   22  C   UNK N   1      19.019  16.325   7.032  0.00  0.00     0.213 C 
BRANCH  22  23
HETATM   23  O   UNK N   1      19.390  15.153   6.408  0.00  0.00    -0.319 OA
BRANCH  23  24
HETATM   24  C   UNK N   1      19.076  14.863   5.119  0.00  0.00     0.258 C 
HETATM   25  O   UNK N   1      18.085  14.190   4.886  0.00  0.00    -0.265 OA
BRANCH  24  26
HETATM   26  C   UNK N   1      19.926  15.338   3.976  0.00  0.00     0.111 C 
BRANCH  26  27
HETATM   27  C   UNK N   1      19.635  16.796   3.658  0.00  0.00     0.010 C 
BRANCH  27  28
HETATM   28  C   UNK N   1      20.500  17.259   2.501  0.00  0.00     0.000 C 
BRANCH  28  29
HETATM   29  C   UNK N   1      20.359  18.758   2.288  0.00  0.00     0.000 C 
BRANCH  29  30
HETATM   30  C   UNK N   1      21.185  19.517   3.311  0.00  0.00     0.000 C 
BRANCH  30  31
HETATM   31  C   UNK N   1      21.882  20.712   2.683  0.00  0.00     0.004 C 
BRANCH  31  32
HETATM   32  C   UNK N   1      23.391  20.544   2.767  0.00  0.00     0.027 C 
BRANCH  32  33
HETATM   33  C   UNK N   1      23.785  19.438   3.703  0.00  0.00    -0.031 C 
HETATM   34  C   UNK N   1      25.058  19.049   3.882  0.00  0.00    -0.031 C 
BRANCH  34  35
HETATM   35  C   UNK N   1      26.227  19.710   3.211  0.00  0.00     0.027 C 
BRANCH  35  36
HETATM   36  C   UNK N   1      27.331  20.048   4.201  0.00  0.00     0.004 C 
BRANCH  36  37
HETATM   37  C   UNK N   1      26.747  20.803   5.382  0.00  0.00     0.000 C 
BRANCH  37  38
HETATM   38  C   UNK N   1      27.590  20.584   6.623  0.00  0.00     0.000 C 
BRANCH  38  39
HETATM   39  C   UNK N   1      27.864  19.105   6.780  0.00  0.00     0.000 C 
BRANCH  39  40
HETATM   40  C   UNK N   1      28.783  18.886   7.962  0.00  0.00    -0.000 C 
BRANCH  40  41
HETATM   41  C   UNK N   1      28.115  17.941   8.938  0.00  0.00    -0.005 C 
HETATM   42  C   UNK N   1      29.118  17.503   9.983  0.00  0.00     0.005 C 
ENDBRANCH  40  41
ENDBRANCH  39  40
ENDBRANCH  38  39
ENDBRANCH  37  38
ENDBRANCH  36  37
ENDBRANCH  35  36
ENDBRANCH  34  35
ENDBRANCH  32  33
ENDBRANCH  31  32
ENDBRANCH  30  31
ENDBRANCH  29  30
ENDBRANCH  28  29
ENDBRANCH  27  28
ENDBRANCH  26  27
ENDBRANCH  24  26
ENDBRANCH  23  24
ENDBRANCH  22  23
ENDBRANCH   1  22
BRANCH   1  43
HETATM   43  C   UNK N   1      19.846  15.332   9.128  0.00  0.00     0.213 C 
BRANCH  43  44
HETATM   44  O   UNK N   1      21.125  14.895   9.374  0.00  0.00    -0.319 OA
BRANCH  44  45
HETATM   45  C   UNK N   1      21.384  13.651   9.849  0.00  0.00     0.258 C 
HETATM   46  O   UNK N   1      20.452  12.928  10.152  0.00  0.00    -0.265 OA
BRANCH  45  47
HETATM   47  C   UNK N   1      22.813  13.172  10.005  0.00  0.00     0.111 C 
BRANCH  47  48
HETATM   48  C   UNK N   1      23.494  12.748   8.708  0.00  0.00     0.010 C 
BRANCH  48  49
HETATM   49  C   UNK N   1      22.483  12.429   7.613  0.00  0.00     0.000 C 
BRANCH  49  50
HETATM   50  C   UNK N   1      23.016  11.402   6.621  0.00  0.00     0.000 C 
BRANCH  50  51
HETATM   51  C   UNK N   1      22.963  11.919   5.190  0.00  0.00     0.000 C 
BRANCH  51  52
HETATM   52  C   UNK N   1      24.021  11.250   4.328  0.00  0.00     0.004 C 
BRANCH  52  53
HETATM   53  C   UNK N   1      25.143  12.227   4.032  0.00  0.00     0.027 C 
BRANCH  53  54
HETATM   54  C   UNK N   1      26.253  12.059   5.021  0.00  0.00    -0.031 C 
HETATM   55  C   UNK N   1      27.521  11.826   4.657  0.00  0.00    -0.031 C 
BRANCH  55  56
HETATM   56  C   UNK N   1      27.951  11.689   3.229  0.00  0.00     0.027 C 
BRANCH  56  57
HETATM   57  C   UNK N   1      28.264  10.239   2.912  0.00  0.00     0.004 C 
BRANCH  57  58
HETATM   58  C   UNK N   1      27.064   9.568   2.272  0.00  0.00     0.000 C 
BRANCH  58  59
HETATM   59  C   UNK N   1      26.646  10.327   1.027  0.00  0.00     0.000 C 
BRANCH  59  60
HETATM   60  C   UNK N   1      25.329   9.778   0.521  0.00  0.00     0.000 C 
BRANCH  60  61
HETATM   61  C   UNK N   1      24.273  10.863   0.593  0.00  0.00    -0.000 C 
BRANCH  61  62
HETATM   62  C   UNK N   1      23.449  10.847  -0.677  0.00  0.00    -0.005 C 
HETATM   63  C   UNK N   1      23.629   9.520  -1.383  0.00  0.00     0.005 C 
ENDBRANCH  61  62
ENDBRANCH  60  61
ENDBRANCH  59  60
ENDBRANCH  58  59
ENDBRANCH  57  58
ENDBRANCH  56  57
ENDBRANCH  55  56
ENDBRANCH  53  54
ENDBRANCH  52  53
ENDBRANCH  51  52
ENDBRANCH  50  51
ENDBRANCH  49  50
ENDBRANCH  48  49
ENDBRANCH  47  48
ENDBRANCH  45  47
ENDBRANCH  44  45
ENDBRANCH  43  44
ENDBRANCH   1  43
TORSDOF 53
ENDMDL
MODEL 2
REMARK VINA RESULT:      -4.9      6.743     11.957
REMARK WARNING: 32 MAX_TORS EXCEEDED!!!
REMARK  53 active torsions:
REMARK  status: ('A' for Active; 'I' for Inactive)
REMARK    1  A    between atoms: O_1  and  C_55 
REMARK    2  A    between atoms: O_1  and  C_58 
REMARK    3  A    between atoms: O_2  and  C_56 
REMARK    4  A    between atoms: O_2  and  C_59 
REMARK    5  A    between atoms: O_3  and  C_57 
REMARK    6  A    between atoms: O_3  and  C_60 
REMARK    7  A    between atoms: C_7  and  C_8 
REMARK    8  A    between atoms: C_7  and  C_11 
REMARK    9  A    between atoms: C_8  and  C_16 
REMARK   10  A    between atoms: C_9  and  C_12 
REMARK   11  A    between atoms: C_9  and  C_21 
REMARK   12  A    between atoms: C_10  and  C_13 
REMARK   13  A    between atoms: C_10  and  C_22 
REMARK   14  A    between atoms: C_11  and  C_31 
REMARK   15  A    between atoms: C_12  and  C_23 
REMARK   16  A    between atoms: C_13  and  C_24 
REMARK   17  A    between atoms: C_14  and  C_15 
REMARK   18  A    between atoms: C_14  and  C_25 
REMARK   19  A    between atoms: C_15  and  C_26 
REMARK   20  A    between atoms: C_16  and  C_34 
REMARK   21  A    between atoms: C_17  and  C_19 
REMARK   22  A    between atoms: C_17  and  C_27 
REMARK   23  A    between atoms: C_18  and  C_20 
REMARK   24  A    between atoms: C_18  and  C_28 
REMARK   25  A    between atoms: C_19  and  C_29 
REMARK   26  A    between atoms: C_20  and  C_30 
REMARK   27  A    between atoms: C_21  and  C_32 
REMARK   28  A    between atoms: C_22  and  C_33 
REMARK   29  A    between atoms: C_23  and  C_35 
REMARK   30  A    between atoms: C_24  and  C_36 
REMARK   31  A    between atoms: C_25  and  C_37 
REMARK   32  A    between atoms: C_26  and  C_38 
REMARK   33  A    between atoms: C_27  and  C_39 
REMARK   34  A    between atoms: C_28  and  C_40 
REMARK   35  A    between atoms: C_29  and  C_41 
REMARK   36  A    between atoms: C_30  and  C_42 
REMARK   37  A    between atoms: C_31  and  C_43 
REMARK   38  A    between atoms: C_32  and  C_44 
REMARK   39  A    between atoms: C_33  and  C_45 
REMARK   40  A    between atoms: C_34  and  C_46 
REMARK   41  A    between atoms: C_35  and  C_51 
REMARK   42  A    between atoms: C_36  and  C_52 
REMARK   43  A    between atoms: C_37  and  C_47 
REMARK   44  A    between atoms: C_38  and  C_48 
REMARK   45  A    between atoms: C_39  and  C_49 
REMARK   46  A    between atoms: C_40  and  C_50 
REMARK   47  A    between atoms: C_41  and  C_53 
REMARK   48  A    between atoms: C_42  and  C_54 
REMARK   49  A    between atoms: C_43  and  C_58 
REMARK   50  A    between atoms: C_44  and  C_59 
REMARK   51  A    between atoms: C_45  and  C_60 
REMARK   52  A    between atoms: C_55  and  C_56 
REMARK   53  A    between atoms: C_55  and  C_57 
ROOT
HETATM    1  C   UNK N   1      33.208  16.681   8.164  0.00  0.00     0.180 C 
ENDROOT
BRANCH   1   2
HETATM    2  O   UNK N   1      33.658  16.896   9.447  0.00  0.00    -0.312 OA
BRANCH   2   3
HETATM    3  C   UNK N   1      34.924  16.602   9.834  0.00  0.00     0.259 C 
HETATM    4  O   UNK N   1      35.649  17.470  10.295  0.00  0.00    -0.265 OA
BRANCH   3   5
HETATM    5  C   UNK N   1      35.446  15.201   9.717  0.00  0.00     0.111 C 
BRANCH   5   6
HETATM    6  C   UNK N   1      34.707  14.240  10.639  0.00  0.00     0.010 C 
BRANCH   6   7
HETATM    7  C   UNK N   1      35.325  14.237  12.031  0.00  0.00     0.000 C 
BRANCH   7   8
HETATM    8  C   UNK N   1      36.583  13.380  12.092  0.00  0.00     0.000 C 
BRANCH   8   9
HETATM    9  C   UNK N   1      36.703  12.748  13.468  0.00  0.00     0.000 C 
BRANCH   9  10
HETATM   10  C   UNK N   1      35.788  13.454  14.444  0.00  0.00     0.004 C 
BRANCH  10  11
HETATM   11  C   UNK N   1      36.290  13.214  15.859  0.00  0.00     0.027 C 
BRANCH  11  12
HETATM   12  C   UNK N   1      35.170  13.305  16.856  0.00  0.00    -0.031 C 
HETATM   13  C   UNK N   1      35.003  12.447  17.874  0.00  0.00    -0.031 C 
BRANCH  13  14
HETATM   14  C   UNK N   1      35.921  11.295  18.116  0.00  0.00     0.027 C 
BRANCH  14  15
HETATM   15  C   UNK N   1      35.347  10.012  17.557  0.00  0.00     0.004 C 
BRANCH  15  16
HETATM   16  C   UNK N   1      36.467   9.258  16.872  0.00  0.00     0.000 C 
BRANCH  16  17
HETATM   17  C   UNK N   1      36.477   9.553  15.390  0.00  0.00     0.000 C 
BRANCH  17  18
HETATM   18  C   UNK N   1      35.046   9.735  14.928  0.00  0.00     0.000 C 
BRANCH  18  19
HETATM   19  C   UNK N   1      34.939   9.467  13.443  0.00  0.00    -0.000 C 
BRANCH  19  20
HETATM   20  C   UNK N   1      33.939  10.430  12.839  0.00  0.00    -0.005 C 
HETATM   21  C   UNK N   1      34.107  10.461  11.335  0.00  0.00     0.005 C 
ENDBRANCH  19  20
ENDBRANCH  18  19
ENDBRANCH  17  18
ENDBRANCH  16  17
ENDBRANCH  15  16
ENDBRANCH  14  15
ENDBRANCH  13  14
ENDBRANCH  11  12
ENDBRANCH  10  11
ENDBRANCH   9  10
ENDBRANCH   8   9
ENDBRANCH   7   8
ENDBRANCH   6   7
ENDBRANCH   5   6
ENDBRANCH   3   5
ENDBRANCH   2   3
ENDBRANCH   1   2
BRANCH   1  22
HETATM   22  C   UNK N   1      31.722  16.365   8.161  0.00  0.00     0.213 C 
BRANCH  22  23
HETATM   23  O   UNK N   1      31.000  17.398   8.716  0.00  0.00    -0.319 OA
BRANCH  23  24
HETATM   24  C   UNK N   1      29.734  17.254   9.187  0.00  0.00     0.258 C 
HETATM   25  O   UNK N   1      29.565  16.907  10.345  0.00  0.00    -0.265 OA
BRANCH  24  26
HETATM   26  C   UNK N   1      28.537  17.497   8.313  0.00  0.00     0.111 C 
BRANCH  26  27
HETATM   27  C   UNK N   1      28.195  18.977   8.269  0.00  0.00     0.010 C 
BRANCH  27  28
HETATM   28  C   UNK N   1      27.965  19.416   6.834  0.00  0.00     0.000 C 
BRANCH  28  29
HETATM   29  C   UNK N   1      27.042  20.623   6.780  0.00  0.00     0.000 C 
BRANCH  29  30
HETATM   30  C   UNK N   1      26.796  21.038   5.341  0.00  0.00     0.000 C 
BRANCH  30  31
HETATM   31  C   UNK N   1      27.490  20.099   4.368  0.00  0.00     0.004 C 
BRANCH  31  32
HETATM   32  C   UNK N   1      26.471  19.455   3.441  0.00  0.00     0.027 C 
BRANCH  32  33
HETATM   33  C   UNK N   1      25.394  20.417   3.029  0.00  0.00    -0.031 C 
HETATM   34  C   UNK N   1      24.086  20.164   3.189  0.00  0.00    -0.031 C 
BRANCH  34  35
HETATM   35  C   UNK N   1      23.557  18.921   3.843  0.00  0.00     0.027 C 
BRANCH  35  36
HETATM   36  C   UNK N   1      22.045  18.960   3.999  0.00  0.00     0.004 C 
BRANCH  36  37
HETATM   37  C   UNK N   1      21.438  19.795   2.885  0.00  0.00     0.000 C 
BRANCH  37  38
HETATM   38  C   UNK N   1      20.007  19.368   2.620  0.00  0.00     0.000 C 
BRANCH  38  39
HETATM   39  C   UNK N   1      19.919  17.860   2.694  0.00  0.00     0.000 C 
BRANCH  39  40
HETATM   40  C   UNK N   1      20.009  17.281   1.300  0.00  0.00    -0.000 C 
BRANCH  40  41
HETATM   41  C   UNK N   1      20.740  15.957   1.360  0.00  0.00    -0.005 C 
HETATM   42  C   UNK N   1      21.046  15.614   2.801  0.00  0.00     0.005 C 
ENDBRANCH  40  41
ENDBRANCH  39  40
ENDBRANCH  38  39
ENDBRANCH  37  38
ENDBRANCH  36  37
ENDBRANCH  35  36
ENDBRANCH  34  35
ENDBRANCH  32  33
ENDBRANCH  31  32
ENDBRANCH  30  31
ENDBRANCH  29  30
ENDBRANCH  28  29
ENDBRANCH  27  28
ENDBRANCH  26  27
ENDBRANCH  24  26
ENDBRANCH  23  24
ENDBRANCH  22  23
ENDBRANCH   1  22
BRANCH   1  43
HETATM   43  C   UNK N   1      33.433  17.943   7.358  0.00  0.00     0.213 C 
BRANCH  43  44
HETATM   44  O   UNK N   1      34.193  17.670   6.246  0.00  0.00    -0.319 OA
BRANCH  44  45
HETATM   45  C   UNK N   1      33.683  17.034   5.162  0.00  0.00     0.258 C 
HETATM   46  O   UNK N   1      34.140  15.950   4.844  0.00  0.00    -0.265 OA
BRANCH  45  47
HETATM   47  C   UNK N   1      32.568  17.666   4.355  0.00  0.00     0.111 C 
BRANCH  47  48
HETATM   48  C   UNK N   1      32.182  16.910   3.089  0.00  0.00     0.010 C 
BRANCH  48  49
HETATM   49  C   UNK N   1      30.698  16.559   3.066  0.00  0.00     0.000 C 
BRANCH  49  50
HETATM   50  C   UNK N   1      30.047  16.728   4.434  0.00  0.00     0.000 C 
BRANCH  50  51
HETATM   51  C   UNK N   1      29.819  15.388   5.119  0.00  0.00     0.000 C 
BRANCH  51  52
HETATM   52  C   UNK N   1      28.370  15.235   5.552  0.00  0.00     0.004 C 
BRANCH  52  53
HETATM   53  C   UNK N   1      27.520  16.312   4.906  0.00  0.00     0.027 C 
BRANCH  53  54
HETATM   54  C   UNK N   1      26.191  16.405   5.588  0.00  0.00    -0.031 C 
HETATM   55  C   UNK N   1      25.114  15.726   5.175  0.00  0.00    -0.031 C 
BRANCH  55  56
HETATM   56  C   UNK N   1      25.122  14.824   3.979  0.00  0.00     0.027 C 
BRANCH  56  57
HETATM   57  C   UNK N   1      24.754  15.604   2.731  0.00  0.00     0.004 C 
BRANCH  57  58
HETATM   58  C   UNK N   1      25.207  14.858   1.490  0.00  0.00     0.000 C 
BRANCH  58  59
HETATM   59  C   UNK N   1      24.006  14.304   0.748  0.00  0.00     0.000 C 
BRANCH  59  60
HETATM   60  C   UNK N   1      24.026  12.792   0.813  0.00  0.00     0.000 C 
BRANCH  60  61
HETATM   61  C   UNK N   1      22.707  12.296   1.369  0.00  0.00    -0.000 C 
BRANCH  61  62
HETATM   62  C   UNK N   1      22.764  12.302   2.881  0.00  0.00    -0.005 C 
HETATM   63  C   UNK N   1      22.232  10.989   3.415  0.00  0.00     0.005 C 
ENDBRANCH  61  62
ENDBRANCH  60  61
ENDBRANCH  59  60
ENDBRANCH  58  59
ENDBRANCH  57  58
ENDBRANCH  56  57
ENDBRANCH  55  56
ENDBRANCH  53  54
ENDBRANCH  52  53
ENDBRANCH  51  52
ENDBRANCH  50  51
ENDBRANCH  49  50
ENDBRANCH  48  49
ENDBRANCH  47  48
ENDBRANCH  45  47
ENDBRANCH  44  45
ENDBRANCH  43  44
ENDBRANCH   1  43
TORSDOF 53
ENDMDL
MODEL 3
REMARK VINA RESULT:      -4.9      0.897      2.148
REMARK WARNING: 32 MAX_TORS EXCEEDED!!!
REMARK  53 active torsions:
REMARK  status: ('A' for Active; 'I' for Inactive)
REMARK    1  A    between atoms: O_1  and  C_55 
REMARK    2  A    between atoms: O_1  and  C_58 
REMARK    3  A    between atoms: O_2  and  C_56 
REMARK    4  A    between atoms: O_2  and  C_59 
REMARK    5  A    between atoms: O_3  and  C_57 
REMARK    6  A    between atoms: O_3  and  C_60 
REMARK    7  A    between atoms: C_7  and  C_8 
REMARK    8  A    between atoms: C_7  and  C_11 
REMARK    9  A    between atoms: C_8  and  C_16 
REMARK   10  A    between atoms: C_9  and  C_12 
REMARK   11  A    between atoms: C_9  and  C_21 
REMARK   12  A    between atoms: C_10  and  C_13 
REMARK   13  A    between atoms: C_10  and  C_22 
REMARK   14  A    between atoms: C_11  and  C_31 
REMARK   15  A    between atoms: C_12  and  C_23 
REMARK   16  A    between atoms: C_13  and  C_24 
REMARK   17  A    between atoms: C_14  and  C_15 
REMARK   18  A    between atoms: C_14  and  C_25 
REMARK   19  A    between atoms: C_15  and  C_26 
REMARK   20  A    between atoms: C_16  and  C_34 
REMARK   21  A    between atoms: C_17  and  C_19 
REMARK   22  A    between atoms: C_17  and  C_27 
REMARK   23  A    between atoms: C_18  and  C_20 
REMARK   24  A    between atoms: C_18  and  C_28 
REMARK   25  A    between atoms: C_19  and  C_29 
REMARK   26  A    between atoms: C_20  and  C_30 
REMARK   27  A    between atoms: C_21  and  C_32 
REMARK   28  A    between atoms: C_22  and  C_33 
REMARK   29  A    between atoms: C_23  and  C_35 
REMARK   30  A    between atoms: C_24  and  C_36 
REMARK   31  A    between atoms: C_25  and  C_37 
REMARK   32  A    between atoms: C_26  and  C_38 
REMARK   33  A    between atoms: C_27  and  C_39 
REMARK   34  A    between atoms: C_28  and  C_40 
REMARK   35  A    between atoms: C_29  and  C_41 
REMARK   36  A    between atoms: C_30  and  C_42 
REMARK   37  A    between atoms: C_31  and  C_43 
REMARK   38  A    between atoms: C_32  and  C_44 
REMARK   39  A    between atoms: C_33  and  C_45 
REMARK   40  A    between atoms: C_34  and  C_46 
REMARK   41  A    between atoms: C_35  and  C_51 
REMARK   42  A    between atoms: C_36  and  C_52 
REMARK   43  A    between atoms: C_37  and  C_47 
REMARK   44  A    between atoms: C_38  and  C_48 
REMARK   45  A    between atoms: C_39  and  C_49 
REMARK   46  A    between atoms: C_40  and  C_50 
REMARK   47  A    between atoms: C_41  and  C_53 
REMARK   48  A    between atoms: C_42  and  C_54 
REMARK   49  A    between atoms: C_43  and  C_58 
REMARK   50  A    between atoms: C_44  and  C_59 
REMARK   51  A    between atoms: C_45  and  C_60 
REMARK   52  A    between atoms: C_55  and  C_56 
REMARK   53  A    between atoms: C_55  and  C_57 
ROOT
HETATM    1  C   UNK N   1      19.685  16.677   8.254  0.00  0.00     0.180 C 
ENDROOT
BRANCH   1   2
HETATM    2  O   UNK N   1      21.015  16.835   7.935  0.00  0.00    -0.312 OA
BRANCH   2   3
HETATM    3  C   UNK N   1      21.430  17.620   6.910  0.00  0.00     0.259 C 
HETATM    4  O   UNK N   1      21.056  18.779   6.825  0.00  0.00    -0.265 OA
BRANCH   3   5
HETATM    5  C   UNK N   1      22.370  17.079   5.874  0.00  0.00     0.111 C 
BRANCH   5   6
HETATM    6  C   UNK N   1      22.669  15.602   6.093  0.00  0.00     0.010 C 
BRANCH   6   7
HETATM    7  C   UNK N   1      24.063  15.248   5.592  0.00  0.00     0.000 C 
BRANCH   7   8
HETATM    8  C   UNK N   1      24.982  14.818   6.729  0.00  0.00     0.000 C 
BRANCH   8   9
HETATM    9  C   UNK N   1      26.294  15.578   6.639  0.00  0.00     0.000 C 
BRANCH   9  10
HETATM   10  C   UNK N   1      27.093  15.093   5.449  0.00  0.00     0.004 C 
BRANCH  10  11
HETATM   11  C   UNK N   1      27.198  16.216   4.430  0.00  0.00     0.027 C 
BRANCH  11  12
HETATM   12  C   UNK N   1      27.616  15.693   3.085  0.00  0.00    -0.031 C 
HETATM   13  C   UNK N   1      26.764  15.460   2.076  0.00  0.00    -0.031 C 
BRANCH  13  14
HETATM   14  C   UNK N   1      25.293  15.693   2.191  0.00  0.00     0.027 C 
BRANCH  14  15
HETATM   15  C   UNK N   1      24.515  14.691   1.368  0.00  0.00     0.004 C 
BRANCH  15  16
HETATM   16  C   UNK N   1      23.220  14.394   2.095  0.00  0.00     0.000 C 
BRANCH  16  17
HETATM   17  C   UNK N   1      22.048  14.470   1.143  0.00  0.00     0.000 C 
BRANCH  17  18
HETATM   18  C   UNK N   1      21.722  13.068   0.672  0.00  0.00     0.000 C 
BRANCH  18  19
HETATM   19  C   UNK N   1      20.230  12.918   0.471  0.00  0.00    -0.000 C 
BRANCH  19  20
HETATM   20  C   UNK N   1      19.576  12.652   1.810  0.00  0.00    -0.005 C 
HETATM   21  C   UNK N   1      18.736  11.395   1.725  0.00  0.00     0.005 C 
ENDBRANCH  19  20
ENDBRANCH  18  19
ENDBRANCH  17  18
ENDBRANCH  16  17
ENDBRANCH  15  16
ENDBRANCH  14  15
ENDBRANCH  13  14
ENDBRANCH  11  12
ENDBRANCH  10  11
ENDBRANCH   9  10
ENDBRANCH   8   9
ENDBRANCH   7   8
ENDBRANCH   6   7
ENDBRANCH   5   6
ENDBRANCH   3   5
ENDBRANCH   2   3
ENDBRANCH   1   2
BRANCH   1  22
HETATM   22  C   UNK N   1      18.867  16.364   7.012  0.00  0.00     0.213 C 
BRANCH  22  23
HETATM   23  O   UNK N   1      19.274  15.176   6.444  0.00  0.00    -0.319 OA
BRANCH  23  24
HETATM   24  C   UNK N   1      18.984  14.825   5.164  0.00  0.00     0.258 C 
HETATM   25  O   UNK N   1      18.035  14.087   4.951  0.00  0.00    -0.265 OA
BRANCH  24  26
HETATM   26  C   UNK N   1      19.810  15.309   4.008  0.00  0.00     0.111 C 
BRANCH  26  27
HETATM   27  C   UNK N   1      19.553  16.784   3.744  0.00  0.00     0.010 C 
BRANCH  27  28
HETATM   28  C   UNK N   1      20.374  17.250   2.555  0.00  0.00     0.000 C 
BRANCH  28  29
HETATM   29  C   UNK N   1      20.188  18.741   2.323  0.00  0.00     0.000 C 
BRANCH  29  30
HETATM   30  C   UNK N   1      20.988  19.538   3.339  0.00  0.00     0.000 C 
BRANCH  30  31
HETATM   31  C   UNK N   1      21.694  20.715   2.688  0.00  0.00     0.004 C 
BRANCH  31  32
HETATM   32  C   UNK N   1      23.201  20.529   2.757  0.00  0.00     0.027 C 
BRANCH  32  33
HETATM   33  C   UNK N   1      23.588  19.375   3.637  0.00  0.00    -0.031 C 
HETATM   34  C   UNK N   1      24.862  19.011   3.849  0.00  0.00    -0.031 C 
BRANCH  34  35
HETATM   35  C   UNK N   1      26.039  19.746   3.277  0.00  0.00     0.027 C 
BRANCH  35  36
HETATM   36  C   UNK N   1      27.110  20.005   4.325  0.00  0.00     0.004 C 
BRANCH  36  37
HETATM   37  C   UNK N   1      26.465  20.142   5.694  0.00  0.00     0.000 C 
BRANCH  37  38
HETATM   38  C   UNK N   1      27.517  20.093   6.784  0.00  0.00     0.000 C 
BRANCH  38  39
HETATM   39  C   UNK N   1      28.414  18.896   6.554  0.00  0.00     0.000 C 
BRANCH  39  40
HETATM   40  C   UNK N   1      28.380  18.000   7.771  0.00  0.00    -0.000 C 
BRANCH  40  41
HETATM   41  C   UNK N   1      29.126  18.674   8.903  0.00  0.00    -0.005 C 
HETATM   42  C   UNK N   1      29.376  17.674  10.010  0.00  0.00     0.005 C 
ENDBRANCH  40  41
ENDBRANCH  39  40
ENDBRANCH  38  39
ENDBRANCH  37  38
ENDBRANCH  36  37
ENDBRANCH  35  36
ENDBRANCH  34  35
ENDBRANCH  32  33
ENDBRANCH  31  32
ENDBRANCH  30  31
ENDBRANCH  29  30
ENDBRANCH  28  29
ENDBRANCH  27  28
ENDBRANCH  26  27
ENDBRANCH  24  26
ENDBRANCH  23  24
ENDBRANCH  22  23
ENDBRANCH   1  22
BRANCH   1  43
HETATM   43  C   UNK N   1      19.557  15.517   9.219  0.00  0.00     0.213 C 
BRANCH  43  44
HETATM   44  O   UNK N   1      20.790  14.965   9.468  0.00  0.00    -0.319 OA
BRANCH  44  45
HETATM   45  C   UNK N   1      20.937  13.677   9.867  0.00  0.00     0.258 C 
HETATM   46  O   UNK N   1      19.986  13.098  10.359  0.00  0.00    -0.265 OA
BRANCH  45  47
HETATM   47  C   UNK N   1      22.268  12.972   9.706  0.00  0.00     0.111 C 
BRANCH  47  48
HETATM   48  C   UNK N   1      22.541  12.423   8.309  0.00  0.00     0.010 C 
BRANCH  48  49
HETATM   49  C   UNK N   1      21.323  12.551   7.401  0.00  0.00     0.000 C 
BRANCH  49  50
HETATM   50  C   UNK N   1      21.321  11.505   6.293  0.00  0.00     0.000 C 
BRANCH  50  51
HETATM   51  C   UNK N   1      21.650  12.116   4.938  0.00  0.00     0.000 C 
BRANCH  51  52
HETATM   52  C   UNK N   1      23.092  11.837   4.549  0.00  0.00     0.004 C 
BRANCH  52  53
HETATM   53  C   UNK N   1      23.201  10.466   3.910  0.00  0.00     0.027 C 
BRANCH  53  54
HETATM   54  C   UNK N   1      22.034  10.221   3.005  0.00  0.00    -0.031 C 
HETATM   55  C   UNK N   1      22.149   9.599   1.824  0.00  0.00    -0.031 C 
BRANCH  55  56
HETATM   56  C   UNK N   1      23.455   9.107   1.281  0.00  0.00     0.027 C 
BRANCH  56  57
HETATM   57  C   UNK N   1      23.872   9.939   0.083  0.00  0.00     0.004 C 
BRANCH  57  58
HETATM   58  C   UNK N   1      24.692  11.134   0.532  0.00  0.00     0.000 C 
BRANCH  58  59
HETATM   59  C   UNK N   1      25.927  10.667   1.279  0.00  0.00     0.000 C 
BRANCH  59  60
HETATM   60  C   UNK N   1      26.686  11.869   1.799  0.00  0.00     0.000 C 
BRANCH  60  61
HETATM   61  C   UNK N   1      26.590  11.907   3.311  0.00  0.00    -0.000 C 
BRANCH  61  62
HETATM   62  C   UNK N   1      27.981  12.009   3.900  0.00  0.00    -0.005 C 
HETATM   63  C   UNK N   1      28.992  12.184   2.788  0.00  0.00     0.005 C 
ENDBRANCH  61  62
ENDBRANCH  60  61
ENDBRANCH  59  60
ENDBRANCH  58  59
ENDBRANCH  57  58
ENDBRANCH  56  57
ENDBRANCH  55  56
ENDBRANCH  53  54
ENDBRANCH  52  53
ENDBRANCH  51  52
ENDBRANCH  50  51
ENDBRANCH  49  50
ENDBRANCH  48  49
ENDBRANCH  47  48
ENDBRANCH  45  47
ENDBRANCH  44  45
ENDBRANCH  43  44
ENDBRANCH   1  43
TORSDOF 53
ENDMDL
MODEL 4
REMARK VINA RESULT:      -4.9      2.133      5.512
REMARK WARNING: 32 MAX_TORS EXCEEDED!!!
REMARK  53 active torsions:
REMARK  status: ('A' for Active; 'I' for Inactive)
REMARK    1  A    between atoms: O_1  and  C_55 
REMARK    2  A    between atoms: O_1  and  C_58 
REMARK    3  A    between atoms: O_2  and  C_56 
REMARK    4  A    between atoms: O_2  and  C_59 
REMARK    5  A    between atoms: O_3  and  C_57 
REMARK    6  A    between atoms: O_3  and  C_60 
REMARK    7  A    between atoms: C_7  and  C_8 
REMARK    8  A    between atoms: C_7  and  C_11 
REMARK    9  A    between atoms: C_8  and  C_16 
REMARK   10  A    between atoms: C_9  and  C_12 
REMARK   11  A    between atoms: C_9  and  C_21 
REMARK   12  A    between atoms: C_10  and  C_13 
REMARK   13  A    between atoms: C_10  and  C_22 
REMARK   14  A    between atoms: C_11  and  C_31 
REMARK   15  A    between atoms: C_12  and  C_23 
REMARK   16  A    between atoms: C_13  and  C_24 
REMARK   17  A    between atoms: C_14  and  C_15 
REMARK   18  A    between atoms: C_14  and  C_25 
REMARK   19  A    between atoms: C_15  and  C_26 
REMARK   20  A    between atoms: C_16  and  C_34 
REMARK   21  A    between atoms: C_17  and  C_19 
REMARK   22  A    between atoms: C_17  and  C_27 
REMARK   23  A    between atoms: C_18  and  C_20 
REMARK   24  A    between atoms: C_18  and  C_28 
REMARK   25  A    between atoms: C_19  and  C_29 
REMARK   26  A    between atoms: C_20  and  C_30 
REMARK   27  A    between atoms: C_21  and  C_32 
REMARK   28  A    between atoms: C_22  and  C_33 
REMARK   29  A    between atoms: C_23  and  C_35 
REMARK   30  A    between atoms: C_24  and  C_36 
REMARK   31  A    between atoms: C_25  and  C_37 
REMARK   32  A    between atoms: C_26  and  C_38 
REMARK   33  A    between atoms: C_27  and  C_39 
REMARK   34  A    between atoms: C_28  and  C_40 
REMARK   35  A    between atoms: C_29  and  C_41 
REMARK   36  A    between atoms: C_30  and  C_42 
REMARK   37  A    between atoms: C_31  and  C_43 
REMARK   38  A    between atoms: C_32  and  C_44 
REMARK   39  A    between atoms: C_33  and  C_45 
REMARK   40  A    between atoms: C_34  and  C_46 
REMARK   41  A    between atoms: C_35  and  C_51 
REMARK   42  A    between atoms: C_36  and  C_52 
REMARK   43  A    between atoms: C_37  and  C_47 
REMARK   44  A    between atoms: C_38  and  C_48 
REMARK   45  A    between atoms: C_39  and  C_49 
REMARK   46  A    between atoms: C_40  and  C_50 
REMARK   47  A    between atoms: C_41  and  C_53 
REMARK   48  A    between atoms: C_42  and  C_54 
REMARK   49  A    between atoms: C_43  and  C_58 
REMARK   50  A    between atoms: C_44  and  C_59 
REMARK   51  A    between atoms: C_45  and  C_60 
REMARK   52  A    between atoms: C_55  and  C_56 
REMARK   53  A    between atoms: C_55  and  C_57 
ROOT
HETATM    1  C   UNK N   1      19.721  16.451   7.153  0.00  0.00     0.180 C 
ENDROOT
BRANCH   1   2
HETATM    2  O   UNK N   1      21.076  16.614   6.975  0.00  0.00    -0.312 OA
BRANCH   2   3
HETATM    3  C   UNK N   1      21.616  17.757   6.485  0.00  0.00     0.259 C 
HETATM    4  O   UNK N   1      21.140  18.843   6.780  0.00  0.00    -0.265 OA
BRANCH   3   5
HETATM    5  C   UNK N   1      22.815  17.706   5.586  0.00  0.00     0.111 C 
BRANCH   5   6
HETATM    6  C   UNK N   1      22.733  16.552   4.596  0.00  0.00     0.010 C 
BRANCH   6   7
HETATM    7  C   UNK N   1      23.753  16.721   3.477  0.00  0.00     0.000 C 
BRANCH   7   8
HETATM    8  C   UNK N   1      24.608  15.473   3.296  0.00  0.00     0.000 C 
BRANCH   8   9
HETATM    9  C   UNK N   1      23.710  14.264   3.100  0.00  0.00     0.000 C 
BRANCH   9  10
HETATM   10  C   UNK N   1      24.546  13.006   3.012  0.00  0.00     0.004 C 
BRANCH  10  11
HETATM   11  C   UNK N   1      25.076  12.859   1.596  0.00  0.00     0.027 C 
BRANCH  11  12
HETATM   12  C   UNK N   1      24.034  13.239   0.583  0.00  0.00    -0.031 C 
HETATM   13  C   UNK N   1      23.244  12.356  -0.046  0.00  0.00    -0.031 C 
BRANCH  13  14
HETATM   14  C   UNK N   1      23.329  10.885   0.194  0.00  0.00     0.027 C 
BRANCH  14  15
HETATM   15  C   UNK N   1      22.062  10.362   0.833  0.00  0.00     0.004 C 
BRANCH  15  16
HETATM   16  C   UNK N   1      22.261  10.358   2.334  0.00  0.00     0.000 C 
BRANCH  16  17
HETATM   17  C   UNK N   1      21.469   9.240   2.972  0.00  0.00     0.000 C 
BRANCH  17  18
HETATM   18  C   UNK N   1      22.075   8.938   4.327  0.00  0.00     0.000 C 
BRANCH  18  19
HETATM   19  C   UNK N   1      22.038  10.173   5.201  0.00  0.00    -0.000 C 
BRANCH  19  20
HETATM   20  C   UNK N   1      23.123  10.065   6.252  0.00  0.00    -0.005 C 
HETATM   21  C   UNK N   1      24.475  10.304   5.615  0.00  0.00     0.005 C 
ENDBRANCH  19  20
ENDBRANCH  18  19
ENDBRANCH  17  18
ENDBRANCH  16  17
ENDBRANCH  15  16
ENDBRANCH  14  15
ENDBRANCH  13  14
ENDBRANCH  11  12
ENDBRANCH  10  11
ENDBRANCH   9  10
ENDBRANCH   8   9
ENDBRANCH   7   8
ENDBRANCH   6   7
ENDBRANCH   5   6
ENDBRANCH   3   5
ENDBRANCH   2   3
ENDBRANCH   1   2
BRANCH   1  22
HETATM   22  C   UNK N   1      19.095  15.787   5.938  0.00  0.00     0.213 C 
BRANCH  22  23
HETATM   23  O   UNK N   1      19.424  14.450   5.887  0.00  0.00    -0.319 OA
BRANCH  23  24
HETATM   24  C   UNK N   1      19.157  13.657   4.817  0.00  0.00     0.258 C 
HETATM   25  O   UNK N   1      18.019  13.249   4.649  0.00  0.00    -0.265 OA
BRANCH  24  26
HETATM   26  C   UNK N   1      20.230  13.259   3.845  0.00  0.00     0.111 C 
BRANCH  26  27
HETATM   27  C   UNK N   1      19.622  12.813   2.526  0.00  0.00     0.010 C 
BRANCH  27  28
HETATM   28  C   UNK N   1      19.302  14.022   1.665  0.00  0.00     0.000 C 
BRANCH  28  29
HETATM   29  C   UNK N   1      20.506  14.423   0.829  0.00  0.00     0.000 C 
BRANCH  29  30
HETATM   30  C   UNK N   1      21.005  15.796   1.245  0.00  0.00     0.000 C 
BRANCH  30  31
HETATM   31  C   UNK N   1      19.942  16.561   2.014  0.00  0.00     0.004 C 
BRANCH  31  32
HETATM   32  C   UNK N   1      20.184  18.058   1.897  0.00  0.00     0.027 C 
BRANCH  32  33
HETATM   33  C   UNK N   1      20.191  18.736   3.237  0.00  0.00    -0.031 C 
HETATM   34  C   UNK N   1      20.849  19.882   3.475  0.00  0.00    -0.031 C 
BRANCH  34  35
HETATM   35  C   UNK N   1      21.601  20.638   2.418  0.00  0.00     0.027 C 
BRANCH  35  36
HETATM   36  C   UNK N   1      23.016  20.111   2.243  0.00  0.00     0.004 C 
BRANCH  36  37
HETATM   37  C   UNK N   1      23.969  20.897   3.128  0.00  0.00     0.000 C 
BRANCH  37  38
HETATM   38  C   UNK N   1      24.982  19.972   3.772  0.00  0.00     0.000 C 
BRANCH  38  39
HETATM   39  C   UNK N   1      26.365  20.325   3.269  0.00  0.00     0.000 C 
BRANCH  39  40
HETATM   40  C   UNK N   1      27.375  20.099   4.371  0.00  0.00    -0.000 C 
BRANCH  40  41
HETATM   41  C   UNK N   1      26.998  20.945   5.568  0.00  0.00    -0.005 C 
HETATM   42  C   UNK N   1      27.527  20.300   6.830  0.00  0.00     0.005 C 
ENDBRANCH  40  41
ENDBRANCH  39  40
ENDBRANCH  38  39
ENDBRANCH  37  38
ENDBRANCH  36  37
ENDBRANCH  35  36
ENDBRANCH  34  35
ENDBRANCH  32  33
ENDBRANCH  31  32
ENDBRANCH  30  31
ENDBRANCH  29  30
ENDBRANCH  28  29
ENDBRANCH  27  28
ENDBRANCH  26  27
ENDBRANCH  24  26
ENDBRANCH  23  24
ENDBRANCH  22  23
ENDBRANCH   1  22
BRANCH   1  43
HETATM   43  C   UNK N   1      19.497  15.561   8.357  0.00  0.00     0.213 C 
BRANCH  43  44
HETATM   44  O   UNK N   1      20.697  15.234   8.938  0.00  0.00    -0.319 OA
BRANCH  44  45
HETATM   45  C   UNK N   1      20.973  13.977   9.368  0.00  0.00     0.258 C 
HETATM   46  O   UNK N   1      20.192  13.426  10.123  0.00  0.00    -0.265 OA
BRANCH  45  47
HETATM   47  C   UNK N   1      22.236  13.273   8.919  0.00  0.00     0.111 C 
BRANCH  47  48
HETATM   48  C   UNK N   1      22.485  13.295   7.415  0.00  0.00     0.010 C 
BRANCH  48  49
HETATM   49  C   UNK N   1      23.593  14.271   7.036  0.00  0.00     0.000 C 
BRANCH  49  50
HETATM   50  C   UNK N   1      24.979  13.658   7.197  0.00  0.00     0.000 C 
BRANCH  50  51
HETATM   51  C   UNK N   1      26.004  14.337   6.300  0.00  0.00     0.000 C 
BRANCH  51  52
HETATM   52  C   UNK N   1      26.212  15.786   6.708  0.00  0.00     0.004 C 
BRANCH  52  53
HETATM   53  C   UNK N   1      27.248  16.434   5.809  0.00  0.00     0.027 C 
BRANCH  53  54
HETATM   54  C   UNK N   1      28.467  16.797   6.599  0.00  0.00    -0.031 C 
HETATM   55  C   UNK N   1      29.646  17.075   6.027  0.00  0.00    -0.031 C 
BRANCH  55  56
HETATM   56  C   UNK N   1      29.870  17.029   4.547  0.00  0.00     0.027 C 
BRANCH  56  57
HETATM   57  C   UNK N   1      31.280  17.480   4.215  0.00  0.00     0.004 C 
BRANCH  57  58
HETATM   58  C   UNK N   1      32.171  16.279   3.957  0.00  0.00     0.000 C 
BRANCH  58  59
HETATM   59  C   UNK N   1      33.327  16.268   4.938  0.00  0.00     0.000 C 
BRANCH  59  60
HETATM   60  C   UNK N   1      33.471  17.640   5.563  0.00  0.00     0.000 C 
BRANCH  60  61
HETATM   61  C   UNK N   1      33.934  17.491   6.997  0.00  0.00    -0.000 C 
BRANCH  61  62
HETATM   62  C   UNK N   1      32.774  17.762   7.931  0.00  0.00    -0.005 C 
HETATM   63  C   UNK N   1      32.299  16.461   8.541  0.00  0.00     0.005 C 
ENDBRANCH  61  62
ENDBRANCH  60  61
ENDBRANCH  59  60
ENDBRANCH  58  59
ENDBRANCH  57  58
ENDBRANCH  56  57
ENDBRANCH  55  56
ENDBRANCH  53  54
ENDBRANCH  52  53
ENDBRANCH  51  52
ENDBRANCH  50  51
ENDBRANCH  49  50
ENDBRANCH  48  49
ENDBRANCH  47  48
ENDBRANCH  45  47
ENDBRANCH  44  45
ENDBRANCH  43  44
ENDBRANCH   1  43
TORSDOF 53
ENDMDL
MODEL 5
REMARK VINA RESULT:      -4.8      2.575      8.376
REMARK WARNING: 32 MAX_TORS EXCEEDED!!!
REMARK  53 active torsions:
REMARK  status: ('A' for Active; 'I' for Inactive)
REMARK    1  A    between atoms: O_1  and  C_55 
REMARK    2  A    between atoms: O_1  and  C_58 
REMARK    3  A    between atoms: O_2  and  C_56 
REMARK    4  A    between atoms: O_2  and  C_59 
REMARK    5  A    between atoms: O_3  and  C_57 
REMARK    6  A    between atoms: O_3  and  C_60 
REMARK    7  A    between atoms: C_7  and  C_8 
REMARK    8  A    between atoms: C_7  and  C_11 
REMARK    9  A    between atoms: C_8  and  C_16 
REMARK   10  A    between atoms: C_9  and  C_12 
REMARK   11  A    between atoms: C_9  and  C_21 
REMARK   12  A    between atoms: C_10  and  C_13 
REMARK   13  A    between atoms: C_10  and  C_22 
REMARK   14  A    between atoms: C_11  and  C_31 
REMARK   15  A    between atoms: C_12  and  C_23 
REMARK   16  A    between atoms: C_13  and  C_24 
REMARK   17  A    between atoms: C_14  and  C_15 
REMARK   18  A    between atoms: C_14  and  C_25 
REMARK   19  A    between atoms: C_15  and  C_26 
REMARK   20  A    between atoms: C_16  and  C_34 
REMARK   21  A    between atoms: C_17  and  C_19 
REMARK   22  A    between atoms: C_17  and  C_27 
REMARK   23  A    between atoms: C_18  and  C_20 
REMARK   24  A    between atoms: C_18  and  C_28 
REMARK   25  A    between atoms: C_19  and  C_29 
REMARK   26  A    between atoms: C_20  and  C_30 
REMARK   27  A    between atoms: C_21  and  C_32 
REMARK   28  A    between atoms: C_22  and  C_33 
REMARK   29  A    between atoms: C_23  and  C_35 
REMARK   30  A    between atoms: C_24  and  C_36 
REMARK   31  A    between atoms: C_25  and  C_37 
REMARK   32  A    between atoms: C_26  and  C_38 
REMARK   33  A    between atoms: C_27  and  C_39 
REMARK   34  A    between atoms: C_28  and  C_40 
REMARK   35  A    between atoms: C_29  and  C_41 
REMARK   36  A    between atoms: C_30  and  C_42 
REMARK   37  A    between atoms: C_31  and  C_43 
REMARK   38  A    between atoms: C_32  and  C_44 
REMARK   39  A    between atoms: C_33  and  C_45 
REMARK   40  A    between atoms: C_34  and  C_46 
REMARK   41  A    between atoms: C_35  and  C_51 
REMARK   42  A    between atoms: C_36  and  C_52 
REMARK   43  A    between atoms: C_37  and  C_47 
REMARK   44  A    between atoms: C_38  and  C_48 
REMARK   45  A    between atoms: C_39  and  C_49 
REMARK   46  A    between atoms: C_40  and  C_50 
REMARK   47  A    between atoms: C_41  and  C_53 
REMARK   48  A    between atoms: C_42  and  C_54 
REMARK   49  A    between atoms: C_43  and  C_58 
REMARK   50  A    between atoms: C_44  and  C_59 
REMARK   51  A    between atoms: C_45  and  C_60 
REMARK   52  A    between atoms: C_55  and  C_56 
REMARK   53  A    between atoms: C_55  and  C_57 
ROOT
HETATM    1  C   UNK N   1      22.223  17.751   5.095  0.00  0.00     0.180 C 
ENDROOT
BRANCH   1   2
HETATM    2  O   UNK N   1      23.263  18.648   5.184  0.00  0.00    -0.312 OA
BRANCH   2   3
HETATM    3  C   UNK N   1      24.161  18.825   4.183  0.00  0.00     0.259 C 
HETATM    4  O   UNK N   1      24.174  19.861   3.537  0.00  0.00    -0.265 OA
BRANCH   3   5
HETATM    5  C   UNK N   1      25.164  17.755   3.868  0.00  0.00     0.111 C 
BRANCH   5   6
HETATM    6  C   UNK N   1      26.315  17.744   4.865  0.00  0.00     0.010 C 
BRANCH   6   7
HETATM    7  C   UNK N   1      26.348  16.436   5.644  0.00  0.00     0.000 C 
BRANCH   7   8
HETATM    8  C   UNK N   1      27.015  16.602   7.004  0.00  0.00     0.000 C 
BRANCH   8   9
HETATM    9  C   UNK N   1      28.164  17.587   6.891  0.00  0.00     0.000 C 
BRANCH   9  10
HETATM   10  C   UNK N   1      29.447  16.944   7.370  0.00  0.00     0.004 C 
BRANCH  10  11
HETATM   11  C   UNK N   1      30.089  16.195   6.215  0.00  0.00     0.027 C 
BRANCH  11  12
HETATM   12  C   UNK N   1      30.087  17.023   4.961  0.00  0.00    -0.031 C 
HETATM   13  C   UNK N   1      31.163  17.198   4.179  0.00  0.00    -0.031 C 
BRANCH  13  14
HETATM   14  C   UNK N   1      32.490  16.586   4.483  0.00  0.00     0.027 C 
BRANCH  14  15
HETATM   15  C   UNK N   1      33.453  17.616   5.031  0.00  0.00     0.004 C 
BRANCH  15  16
HETATM   16  C   UNK N   1      33.966  17.113   6.364  0.00  0.00     0.000 C 
BRANCH  16  17
HETATM   17  C   UNK N   1      33.578  18.064   7.474  0.00  0.00     0.000 C 
BRANCH  17  18
HETATM   18  C   UNK N   1      32.836  17.280   8.537  0.00  0.00     0.000 C 
BRANCH  18  19
HETATM   19  C   UNK N   1      33.317  15.845   8.558  0.00  0.00    -0.000 C 
BRANCH  19  20
HETATM   20  C   UNK N   1      34.333  15.682   9.669  0.00  0.00    -0.005 C 
HETATM   21  C   UNK N   1      35.441  14.756   9.213  0.00  0.00     0.005 C 
ENDBRANCH  19  20
ENDBRANCH  18  19
ENDBRANCH  17  18
ENDBRANCH  16  17
ENDBRANCH  15  16
ENDBRANCH  14  15
ENDBRANCH  13  14
ENDBRANCH  11  12
ENDBRANCH  10  11
ENDBRANCH   9  10
ENDBRANCH   8   9
ENDBRANCH   7   8
ENDBRANCH   6   7
ENDBRANCH   5   6
ENDBRANCH   3   5
ENDBRANCH   2   3
ENDBRANCH   1   2
BRANCH   1  22
HETATM   22  C   UNK N   1      22.295  16.731   6.219  0.00  0.00     0.213 C 
BRANCH  22  23
HETATM   23  O   UNK N   1      21.493  17.107   7.274  0.00  0.00    -0.319 OA
BRANCH  23  24
HETATM   24  C   UNK N   1      20.721  16.235   7.972  0.00  0.00     0.258 C 
HETATM   25  O   UNK N   1      19.745  16.653   8.573  0.00  0.00    -0.265 OA
BRANCH  24  26
HETATM   26  C   UNK N   1      21.047  14.770   8.033  0.00  0.00     0.111 C 
BRANCH  26  27
HETATM   27  C   UNK N   1      21.250  14.323   9.471  0.00  0.00     0.010 C 
BRANCH  27  28
HETATM   28  C   UNK N   1      21.447  12.819   9.525  0.00  0.00     0.000 C 
BRANCH  28  29
HETATM   29  C   UNK N   1      22.266  12.426  10.745  0.00  0.00     0.000 C 
BRANCH  29  30
HETATM   30  C   UNK N   1      23.746  12.410  10.405  0.00  0.00     0.000 C 
BRANCH  30  31
HETATM   31  C   UNK N   1      23.973  12.090   8.937  0.00  0.00     0.004 C 
BRANCH  31  32
HETATM   32  C   UNK N   1      24.898  13.123   8.311  0.00  0.00     0.027 C 
BRANCH  32  33
HETATM   33  C   UNK N   1      24.289  13.765   7.098  0.00  0.00    -0.031 C 
HETATM   34  C   UNK N   1      24.599  13.400   5.843  0.00  0.00    -0.031 C 
BRANCH  34  35
HETATM   35  C   UNK N   1      25.541  12.278   5.517  0.00  0.00     0.027 C 
BRANCH  35  36
HETATM   36  C   UNK N   1      24.816  10.948   5.384  0.00  0.00     0.004 C 
BRANCH  36  37
HETATM   37  C   UNK N   1      23.489  11.157   4.674  0.00  0.00     0.000 C 
BRANCH  37  38
HETATM   38  C   UNK N   1      22.365  10.491   5.442  0.00  0.00     0.000 C 
BRANCH  38  39
HETATM   39  C   UNK N   1      21.463  11.556   6.024  0.00  0.00     0.000 C 
BRANCH  39  40
HETATM   40  C   UNK N   1      20.179  11.620   5.228  0.00  0.00    -0.000 C 
BRANCH  40  41
HETATM   41  C   UNK N   1      19.834  13.069   4.959  0.00  0.00    -0.005 C 
HETATM   42  C   UNK N   1      21.045  13.779   4.394  0.00  0.00     0.005 C 
ENDBRANCH  40  41
ENDBRANCH  39  40
ENDBRANCH  38  39
ENDBRANCH  37  38
ENDBRANCH  36  37
ENDBRANCH  35  36
ENDBRANCH  34  35
ENDBRANCH  32  33
ENDBRANCH  31  32
ENDBRANCH  30  31
ENDBRANCH  29  30
ENDBRANCH  28  29
ENDBRANCH  27  28
ENDBRANCH  26  27
ENDBRANCH  24  26
ENDBRANCH  23  24
ENDBRANCH  22  23
ENDBRANCH   1  22
BRANCH   1  43
HETATM   43  C   UNK N   1      20.920  18.511   5.218  0.00  0.00     0.213 C 
BRANCH  43  44
HETATM   44  O   UNK N   1      21.042  19.761   4.662  0.00  0.00    -0.319 OA
BRANCH  44  45
HETATM   45  C   UNK N   1      20.643  20.030   3.394  0.00  0.00     0.258 C 
HETATM   46  O   UNK N   1      21.068  21.028   2.840  0.00  0.00    -0.265 OA
BRANCH  45  47
HETATM   47  C   UNK N   1      19.678  19.105   2.682  0.00  0.00     0.111 C 
BRANCH  47  48
HETATM   48  C   UNK N   1      20.311  18.205   1.626  0.00  0.00     0.010 C 
BRANCH  48  49
HETATM   49  C   UNK N   1      20.231  16.733   2.011  0.00  0.00     0.000 C 
BRANCH  49  50
HETATM   50  C   UNK N   1      19.709  15.867   0.870  0.00  0.00     0.000 C 
BRANCH  50  51
HETATM   51  C   UNK N   1      20.406  14.514   0.824  0.00  0.00     0.000 C 
BRANCH  51  52
HETATM   52  C   UNK N   1      19.417  13.383   1.057  0.00  0.00     0.004 C 
BRANCH  52  53
HETATM   53  C   UNK N   1      19.973  12.086   0.500  0.00  0.00     0.027 C 
BRANCH  53  54
HETATM   54  C   UNK N   1      20.864  11.428   1.507  0.00  0.00    -0.031 C 
HETATM   55  C   UNK N   1      22.193  11.353   1.360  0.00  0.00    -0.031 C 
BRANCH  55  56
HETATM   56  C   UNK N   1      22.918  11.898   0.168  0.00  0.00     0.027 C 
BRANCH  56  57
HETATM   57  C   UNK N   1      24.164  12.644   0.608  0.00  0.00     0.004 C 
BRANCH  57  58
HETATM   58  C   UNK N   1      23.825  14.085   0.941  0.00  0.00     0.000 C 
BRANCH  58  59
HETATM   59  C   UNK N   1      24.631  14.544   2.141  0.00  0.00     0.000 C 
BRANCH  59  60
HETATM   60  C   UNK N   1      25.918  13.751   2.217  0.00  0.00     0.000 C 
BRANCH  60  61
HETATM   61  C   UNK N   1      27.087  14.705   2.359  0.00  0.00    -0.000 C 
BRANCH  61  62
HETATM   62  C   UNK N   1      28.079  14.140   3.352  0.00  0.00    -0.005 C 
HETATM   63  C   UNK N   1      29.463  14.132   2.738  0.00  0.00     0.005 C 
ENDBRANCH  61  62
ENDBRANCH  60  61
ENDBRANCH  59  60
ENDBRANCH  58  59
ENDBRANCH  57  58
ENDBRANCH  56  57
ENDBRANCH  55  56
ENDBRANCH  53  54
ENDBRANCH  52  53
ENDBRANCH  51  52
ENDBRANCH  50  51
ENDBRANCH  49  50
ENDBRANCH  48  49
ENDBRANCH  47  48
ENDBRANCH  45  47
ENDBRANCH  44  45
ENDBRANCH  43  44
ENDBRANCH   1  43
TORSDOF 53
ENDMDL
MODEL 6
REMARK VINA RESULT:      -4.8      6.339     11.237
REMARK WARNING: 32 MAX_TORS EXCEEDED!!!
REMARK  53 active torsions:
REMARK  status: ('A' for Active; 'I' for Inactive)
REMARK    1  A    between atoms: O_1  and  C_55 
REMARK    2  A    between atoms: O_1  and  C_58 
REMARK    3  A    between atoms: O_2  and  C_56 
REMARK    4  A    between atoms: O_2  and  C_59 
REMARK    5  A    between atoms: O_3  and  C_57 
REMARK    6  A    between atoms: O_3  and  C_60 
REMARK    7  A    between atoms: C_7  and  C_8 
REMARK    8  A    between atoms: C_7  and  C_11 
REMARK    9  A    between atoms: C_8  and  C_16 
REMARK   10  A    between atoms: C_9  and  C_12 
REMARK   11  A    between atoms: C_9  and  C_21 
REMARK   12  A    between atoms: C_10  and  C_13 
REMARK   13  A    between atoms: C_10  and  C_22 
REMARK   14  A    between atoms: C_11  and  C_31 
REMARK   15  A    between atoms: C_12  and  C_23 
REMARK   16  A    between atoms: C_13  and  C_24 
REMARK   17  A    between atoms: C_14  and  C_15 
REMARK   18  A    between atoms: C_14  and  C_25 
REMARK   19  A    between atoms: C_15  and  C_26 
REMARK   20  A    between atoms: C_16  and  C_34 
REMARK   21  A    between atoms: C_17  and  C_19 
REMARK   22  A    between atoms: C_17  and  C_27 
REMARK   23  A    between atoms: C_18  and  C_20 
REMARK   24  A    between atoms: C_18  and  C_28 
REMARK   25  A    between atoms: C_19  and  C_29 
REMARK   26  A    between atoms: C_20  and  C_30 
REMARK   27  A    between atoms: C_21  and  C_32 
REMARK   28  A    between atoms: C_22  and  C_33 
REMARK   29  A    between atoms: C_23  and  C_35 
REMARK   30  A    between atoms: C_24  and  C_36 
REMARK   31  A    between atoms: C_25  and  C_37 
REMARK   32  A    between atoms: C_26  and  C_38 
REMARK   33  A    between atoms: C_27  and  C_39 
REMARK   34  A    between atoms: C_28  and  C_40 
REMARK   35  A    between atoms: C_29  and  C_41 
REMARK   36  A    between atoms: C_30  and  C_42 
REMARK   37  A    between atoms: C_31  and  C_43 
REMARK   38  A    between atoms: C_32  and  C_44 
REMARK   39  A    between atoms: C_33  and  C_45 
REMARK   40  A    between atoms: C_34  and  C_46 
REMARK   41  A    between atoms: C_35  and  C_51 
REMARK   42  A    between atoms: C_36  and  C_52 
REMARK   43  A    between atoms: C_37  and  C_47 
REMARK   44  A    between atoms: C_38  and  C_48 
REMARK   45  A    between atoms: C_39  and  C_49 
REMARK   46  A    between atoms: C_40  and  C_50 
REMARK   47  A    between atoms: C_41  and  C_53 
REMARK   48  A    between atoms: C_42  and  C_54 
REMARK   49  A    between atoms: C_43  and  C_58 
REMARK   50  A    between atoms: C_44  and  C_59 
REMARK   51  A    between atoms: C_45  and  C_60 
REMARK   52  A    between atoms: C_55  and  C_56 
REMARK   53  A    between atoms: C_55  and  C_57 
ROOT
HETATM    1  C   UNK N   1      33.035  16.673   8.184  0.00  0.00     0.180 C 
ENDROOT
BRANCH   1   2
HETATM    2  O   UNK N   1      33.532  16.730   9.466  0.00  0.00    -0.312 OA
BRANCH   2   3
HETATM    3  C   UNK N   1      34.830  16.469   9.757  0.00  0.00     0.259 C 
HETATM    4  O   UNK N   1      35.493  17.264  10.406  0.00  0.00    -0.265 OA
BRANCH   3   5
HETATM    5  C   UNK N   1      35.468  15.191   9.300  0.00  0.00     0.111 C 
BRANCH   5   6
HETATM    6  C   UNK N   1      34.760  13.968   9.869  0.00  0.00     0.010 C 
BRANCH   6   7
HETATM    7  C   UNK N   1      35.192  13.708  11.306  0.00  0.00     0.000 C 
BRANCH   7   8
HETATM    8  C   UNK N   1      36.703  13.560  11.427  0.00  0.00     0.000 C 
BRANCH   8   9
HETATM    9  C   UNK N   1      37.050  12.953  12.775  0.00  0.00     0.000 C 
BRANCH   9  10
HETATM   10  C   UNK N   1      36.535  13.837  13.890  0.00  0.00     0.004 C 
BRANCH  10  11
HETATM   11  C   UNK N   1      36.754  13.137  15.221  0.00  0.00     0.027 C 
BRANCH  11  12
HETATM   12  C   UNK N   1      35.564  13.301  16.123  0.00  0.00    -0.031 C 
HETATM   13  C   UNK N   1      34.674  12.329  16.372  0.00  0.00    -0.031 C 
BRANCH  13  14
HETATM   14  C   UNK N   1      34.772  10.970  15.762  0.00  0.00     0.027 C 
BRANCH  14  15
HETATM   15  C   UNK N   1      33.719  10.773  14.694  0.00  0.00     0.004 C 
BRANCH  15  16
HETATM   16  C   UNK N   1      34.416  10.743  13.350  0.00  0.00     0.000 C 
BRANCH  16  17
HETATM   17  C   UNK N   1      33.606   9.949  12.350  0.00  0.00     0.000 C 
BRANCH  17  18
HETATM   18  C   UNK N   1      34.096  10.293  10.959  0.00  0.00     0.000 C 
BRANCH  18  19
HETATM   19  C   UNK N   1      35.363   9.527  10.648  0.00  0.00    -0.000 C 
BRANCH  19  20
HETATM   20  C   UNK N   1      36.194  10.324   9.664  0.00  0.00    -0.005 C 
HETATM   21  C   UNK N   1      35.369  10.629   8.432  0.00  0.00     0.005 C 
ENDBRANCH  19  20
ENDBRANCH  18  19
ENDBRANCH  17  18
ENDBRANCH  16  17
ENDBRANCH  15  16
ENDBRANCH  14  15
ENDBRANCH  13  14
ENDBRANCH  11  12
ENDBRANCH  10  11
ENDBRANCH   9  10
ENDBRANCH   8   9
ENDBRANCH   7   8
ENDBRANCH   6   7
ENDBRANCH   5   6
ENDBRANCH   3   5
ENDBRANCH   2   3
ENDBRANCH   1   2
BRANCH   1  22
HETATM   22  C   UNK N   1      31.536  16.425   8.198  0.00  0.00     0.213 C 
BRANCH  22  23
HETATM   23  O   UNK N   1      30.886  17.395   8.929  0.00  0.00    -0.319 OA
BRANCH  23  24
HETATM   24  C   UNK N   1      29.608  17.264   9.371  0.00  0.00     0.258 C 
HETATM   25  O   UNK N   1      29.409  16.843  10.499  0.00  0.00    -0.265 OA
BRANCH  24  26
HETATM   26  C   UNK N   1      28.435  17.611   8.500  0.00  0.00     0.111 C 
BRANCH  26  27
HETATM   27  C   UNK N   1      28.561  19.028   7.967  0.00  0.00     0.010 C 
BRANCH  27  28
HETATM   28  C   UNK N   1      27.800  19.162   6.660  0.00  0.00     0.000 C 
BRANCH  28  29
HETATM   29  C   UNK N   1      27.332  20.594   6.452  0.00  0.00     0.000 C 
BRANCH  29  30
HETATM   30  C   UNK N   1      26.852  20.791   5.025  0.00  0.00     0.000 C 
BRANCH  30  31
HETATM   31  C   UNK N   1      27.374  19.698   4.109  0.00  0.00     0.004 C 
BRANCH  31  32
HETATM   32  C   UNK N   1      26.215  18.971   3.445  0.00  0.00     0.027 C 
BRANCH  32  33
HETATM   33  C   UNK N   1      24.942  19.766   3.502  0.00  0.00    -0.031 C 
HETATM   34  C   UNK N   1      23.760  19.231   3.849  0.00  0.00    -0.031 C 
BRANCH  34  35
HETATM   35  C   UNK N   1      23.590  17.800   4.268  0.00  0.00     0.027 C 
BRANCH  35  36
HETATM   36  C   UNK N   1      22.162  17.500   4.696  0.00  0.00     0.004 C 
BRANCH  36  37
HETATM   37  C   UNK N   1      21.949  17.963   6.127  0.00  0.00     0.000 C 
BRANCH  37  38
HETATM   38  C   UNK N   1      20.832  17.174   6.780  0.00  0.00     0.000 C 
BRANCH  38  39
HETATM   39  C   UNK N   1      21.292  15.749   6.995  0.00  0.00     0.000 C 
BRANCH  39  40
HETATM   40  C   UNK N   1      20.829  15.269   8.352  0.00  0.00    -0.000 C 
BRANCH  40  41
HETATM   41  C   UNK N   1      21.206  13.813   8.516  0.00  0.00    -0.005 C 
HETATM   42  C   UNK N   1      21.971  13.631   9.809  0.00  0.00     0.005 C 
ENDBRANCH  40  41
ENDBRANCH  39  40
ENDBRANCH  38  39
ENDBRANCH  37  38
ENDBRANCH  36  37
ENDBRANCH  35  36
ENDBRANCH  34  35
ENDBRANCH  32  33
ENDBRANCH  31  32
ENDBRANCH  30  31
ENDBRANCH  29  30
ENDBRANCH  28  29
ENDBRANCH  27  28
ENDBRANCH  26  27
ENDBRANCH  24  26
ENDBRANCH  23  24
ENDBRANCH  22  23
ENDBRANCH   1  22
BRANCH   1  43
HETATM   43  C   UNK N   1      33.296  18.003   7.507  0.00  0.00     0.213 C 
BRANCH  43  44
HETATM   44  O   UNK N   1      34.121  17.832   6.422  0.00  0.00    -0.319 OA
BRANCH  44  45
HETATM   45  C   UNK N   1      33.731  17.142   5.321  0.00  0.00     0.258 C 
HETATM   46  O   UNK N   1      34.271  16.080   5.067  0.00  0.00    -0.265 OA
BRANCH  45  47
HETATM   47  C   UNK N   1      32.645  17.689   4.417  0.00  0.00     0.111 C 
BRANCH  47  48
HETATM   48  C   UNK N   1      32.293  16.803   3.227  0.00  0.00     0.010 C 
BRANCH  48  49
HETATM   49  C   UNK N   1      30.802  16.489   3.174  0.00  0.00     0.000 C 
BRANCH  49  50
HETATM   50  C   UNK N   1      30.048  17.081   4.359  0.00  0.00     0.000 C 
BRANCH  50  51
HETATM   51  C   UNK N   1      29.352  16.004   5.179  0.00  0.00     0.000 C 
BRANCH  51  52
HETATM   52  C   UNK N   1      27.863  15.963   4.875  0.00  0.00     0.004 C 
BRANCH  52  53
HETATM   53  C   UNK N   1      27.153  15.078   5.882  0.00  0.00     0.027 C 
BRANCH  53  54
HETATM   54  C   UNK N   1      25.990  15.804   6.483  0.00  0.00    -0.031 C 
HETATM   55  C   UNK N   1      24.758  15.281   6.540  0.00  0.00    -0.031 C 
BRANCH  55  56
HETATM   56  C   UNK N   1      24.416  13.930   5.992  0.00  0.00     0.027 C 
BRANCH  56  57
HETATM   57  C   UNK N   1      23.778  14.066   4.622  0.00  0.00     0.004 C 
BRANCH  57  58
HETATM   58  C   UNK N   1      24.774  13.695   3.538  0.00  0.00     0.000 C 
BRANCH  58  59
HETATM   59  C   UNK N   1      25.050  14.897   2.654  0.00  0.00     0.000 C 
BRANCH  59  60
HETATM   60  C   UNK N   1      24.565  14.611   1.249  0.00  0.00     0.000 C 
BRANCH  60  61
HETATM   61  C   UNK N   1      24.510  13.112   1.033  0.00  0.00    -0.000 C 
BRANCH  61  62
HETATM   62  C   UNK N   1      23.490  12.796  -0.040  0.00  0.00    -0.005 C 
HETATM   63  C   UNK N   1      23.546  11.321  -0.374  0.00  0.00     0.005 C 
ENDBRANCH  61  62
ENDBRANCH  60  61
ENDBRANCH  59  60
ENDBRANCH  58  59
ENDBRANCH  57  58
ENDBRANCH  56  57
ENDBRANCH  55  56
ENDBRANCH  53  54
ENDBRANCH  52  53
ENDBRANCH  51  52
ENDBRANCH  50  51
ENDBRANCH  49  50
ENDBRANCH  48  49
ENDBRANCH  47  48
ENDBRANCH  45  47
ENDBRANCH  44  45
ENDBRANCH  43  44
ENDBRANCH   1  43
TORSDOF 53
ENDMDL
MODEL 7
REMARK VINA RESULT:      -4.7      8.243     13.295
REMARK WARNING: 32 MAX_TORS EXCEEDED!!!
REMARK  53 active torsions:
REMARK  status: ('A' for Active; 'I' for Inactive)
REMARK    1  A    between atoms: O_1  and  C_55 
REMARK    2  A    between atoms: O_1  and  C_58 
REMARK    3  A    between atoms: O_2  and  C_56 
REMARK    4  A    between atoms: O_2  and  C_59 
REMARK    5  A    between atoms: O_3  and  C_57 
REMARK    6  A    between atoms: O_3  and  C_60 
REMARK    7  A    between atoms: C_7  and  C_8 
REMARK    8  A    between atoms: C_7  and  C_11 
REMARK    9  A    between atoms: C_8  and  C_16 
REMARK   10  A    between atoms: C_9  and  C_12 
REMARK   11  A    between atoms: C_9  and  C_21 
REMARK   12  A    between atoms: C_10  and  C_13 
REMARK   13  A    between atoms: C_10  and  C_22 
REMARK   14  A    between atoms: C_11  and  C_31 
REMARK   15  A    between atoms: C_12  and  C_23 
REMARK   16  A    between atoms: C_13  and  C_24 
REMARK   17  A    between atoms: C_14  and  C_15 
REMARK   18  A    between atoms: C_14  and  C_25 
REMARK   19  A    between atoms: C_15  and  C_26 
REMARK   20  A    between atoms: C_16  and  C_34 
REMARK   21  A    between atoms: C_17  and  C_19 
REMARK   22  A    between atoms: C_17  and  C_27 
REMARK   23  A    between atoms: C_18  and  C_20 
REMARK   24  A    between atoms: C_18  and  C_28 
REMARK   25  A    between atoms: C_19  and  C_29 
REMARK   26  A    between atoms: C_20  and  C_30 
REMARK   27  A    between atoms: C_21  and  C_32 
REMARK   28  A    between atoms: C_22  and  C_33 
REMARK   29  A    between atoms: C_23  and  C_35 
REMARK   30  A    between atoms: C_24  and  C_36 
REMARK   31  A    between atoms: C_25  and  C_37 
REMARK   32  A    between atoms: C_26  and  C_38 
REMARK   33  A    between atoms: C_27  and  C_39 
REMARK   34  A    between atoms: C_28  and  C_40 
REMARK   35  A    between atoms: C_29  and  C_41 
REMARK   36  A    between atoms: C_30  and  C_42 
REMARK   37  A    between atoms: C_31  and  C_43 
REMARK   38  A    between atoms: C_32  and  C_44 
REMARK   39  A    between atoms: C_33  and  C_45 
REMARK   40  A    between atoms: C_34  and  C_46 
REMARK   41  A    between atoms: C_35  and  C_51 
REMARK   42  A    between atoms: C_36  and  C_52 
REMARK   43  A    between atoms: C_37  and  C_47 
REMARK   44  A    between atoms: C_38  and  C_48 
REMARK   45  A    between atoms: C_39  and  C_49 
REMARK   46  A    between atoms: C_40  and  C_50 
REMARK   47  A    between atoms: C_41  and  C_53 
REMARK   48  A    between atoms: C_42  and  C_54 
REMARK   49  A    between atoms: C_43  and  C_58 
REMARK   50  A    between atoms: C_44  and  C_59 
REMARK   51  A    between atoms: C_45  and  C_60 
REMARK   52  A    between atoms: C_55  and  C_56 
REMARK   53  A    between atoms: C_55  and  C_57 
ROOT
HETATM    1  C   UNK N   1      35.351  16.354   9.874  0.00  0.00     0.180 C 
ENDROOT
BRANCH   1   2
HETATM    2  O   UNK N   1      34.456  17.398   9.802  0.00  0.00    -0.312 OA
BRANCH   2   3
HETATM    3  C   UNK N   1      34.380  18.219   8.726  0.00  0.00     0.259 C 
HETATM    4  O   UNK N   1      35.322  18.936   8.424  0.00  0.00    -0.265 OA
BRANCH   3   5
HETATM    5  C   UNK N   1      33.142  18.247   7.880  0.00  0.00     0.111 C 
BRANCH   5   6
HETATM    6  C   UNK N   1      32.044  17.359   8.450  0.00  0.00     0.010 C 
BRANCH   6   7
HETATM    7  C   UNK N   1      30.828  18.184   8.850  0.00  0.00     0.000 C 
BRANCH   7   8
HETATM    8  C   UNK N   1      29.677  17.306   9.323  0.00  0.00     0.000 C 
BRANCH   8   9
HETATM    9  C   UNK N   1      28.435  17.606   8.501  0.00  0.00     0.000 C 
BRANCH   9  10
HETATM   10  C   UNK N   1      28.583  18.943   7.809  0.00  0.00     0.004 C 
BRANCH  10  11
HETATM   11  C   UNK N   1      27.484  19.089   6.769  0.00  0.00     0.027 C 
BRANCH  11  12
HETATM   12  C   UNK N   1      27.213  20.534   6.464  0.00  0.00    -0.031 C 
HETATM   13  C   UNK N   1      27.112  21.030   5.221  0.00  0.00    -0.031 C 
BRANCH  13  14
HETATM   14  C   UNK N   1      27.269  20.185   4.000  0.00  0.00     0.027 C 
BRANCH  14  15
HETATM   15  C   UNK N   1      26.006  20.187   3.169  0.00  0.00     0.004 C 
BRANCH  15  16
HETATM   16  C   UNK N   1      25.368  18.818   3.283  0.00  0.00     0.000 C 
BRANCH  16  17
HETATM   17  C   UNK N   1      23.939  18.936   3.761  0.00  0.00     0.000 C 
BRANCH  17  18
HETATM   18  C   UNK N   1      23.823  18.235   5.098  0.00  0.00     0.000 C 
BRANCH  18  19
HETATM   19  C   UNK N   1      24.805  17.087   5.172  0.00  0.00    -0.000 C 
BRANCH  19  20
HETATM   20  C   UNK N   1      24.037  15.785   5.263  0.00  0.00    -0.005 C 
HETATM   21  C   UNK N   1      22.667  16.043   5.852  0.00  0.00     0.005 C 
ENDBRANCH  19  20
ENDBRANCH  18  19
ENDBRANCH  17  18
ENDBRANCH  16  17
ENDBRANCH  15  16
ENDBRANCH  14  15
ENDBRANCH  13  14
ENDBRANCH  11  12
ENDBRANCH  10  11
ENDBRANCH   9  10
ENDBRANCH   8   9
ENDBRANCH   7   8
ENDBRANCH   6   7
ENDBRANCH   5   6
ENDBRANCH   3   5
ENDBRANCH   2   3
ENDBRANCH   1   2
BRANCH   1  22
HETATM   22  C   UNK N   1      35.672  16.020  11.321  0.00  0.00     0.213 C 
BRANCH  22  23
HETATM   23  O   UNK N   1      35.227  14.756  11.642  0.00  0.00    -0.319 OA
BRANCH  23  24
HETATM   24  C   UNK N   1      36.056  13.748  12.018  0.00  0.00     0.258 C 
HETATM   25  O   UNK N   1      36.301  12.853  11.226  0.00  0.00    -0.265 OA
BRANCH  24  26
HETATM   26  C   UNK N   1      36.665  13.700  13.390  0.00  0.00     0.111 C 
BRANCH  26  27
HETATM   27  C   UNK N   1      35.594  13.498  14.448  0.00  0.00     0.010 C 
BRANCH  27  28
HETATM   28  C   UNK N   1      36.237  13.187  15.788  0.00  0.00     0.000 C 
BRANCH  28  29
HETATM   29  C   UNK N   1      35.928  14.278  16.800  0.00  0.00     0.000 C 
BRANCH  29  30
HETATM   30  C   UNK N   1      35.213  13.694  18.005  0.00  0.00     0.000 C 
BRANCH  30  31
HETATM   31  C   UNK N   1      35.233  12.175  17.979  0.00  0.00     0.004 C 
BRANCH  31  32
HETATM   32  C   UNK N   1      35.296  11.624  19.395  0.00  0.00     0.027 C 
BRANCH  32  33
HETATM   33  C   UNK N   1      34.761  10.224  19.482  0.00  0.00    -0.031 C 
HETATM   34  C   UNK N   1      35.522   9.136  19.284  0.00  0.00    -0.031 C 
BRANCH  34  35
HETATM   35  C   UNK N   1      36.996   9.196  19.009  0.00  0.00     0.027 C 
BRANCH  35  36
HETATM   36  C   UNK N   1      37.392   8.312  17.837  0.00  0.00     0.004 C 
BRANCH  36  37
HETATM   37  C   UNK N   1      36.231   7.406  17.465  0.00  0.00     0.000 C 
BRANCH  37  38
HETATM   38  C   UNK N   1      35.813   7.640  16.027  0.00  0.00     0.000 C 
BRANCH  38  39
HETATM   39  C   UNK N   1      36.648   8.760  15.445  0.00  0.00     0.000 C 
BRANCH  39  40
HETATM   40  C   UNK N   1      35.755   9.705  14.673  0.00  0.00    -0.000 C 
BRANCH  40  41
HETATM   41  C   UNK N   1      34.501   9.970  15.480  0.00  0.00    -0.005 C 
HETATM   42  C   UNK N   1      33.507  10.733  14.633  0.00  0.00     0.005 C 
ENDBRANCH  40  41
ENDBRANCH  39  40
ENDBRANCH  38  39
ENDBRANCH  37  38
ENDBRANCH  36  37
ENDBRANCH  35  36
ENDBRANCH  34  35
ENDBRANCH  32  33
ENDBRANCH  31  32
ENDBRANCH  30  31
ENDBRANCH  29  30
ENDBRANCH  28  29
ENDBRANCH  27  28
ENDBRANCH  26  27
ENDBRANCH  24  26
ENDBRANCH  23  24
ENDBRANCH  22  23
ENDBRANCH   1  22
BRANCH   1  43
HETATM   43  C   UNK N   1      34.723  15.137   9.227  0.00  0.00     0.213 C 
BRANCH  43  44
HETATM   44  O   UNK N   1      35.342  14.860   8.033  0.00  0.00    -0.319 OA
BRANCH  44  45
HETATM   45  C   UNK N   1      34.748  15.103   6.838  0.00  0.00     0.258 C 
HETATM   46  O   UNK N   1      35.361  15.722   5.987  0.00  0.00    -0.265 OA
BRANCH  45  47
HETATM   47  C   UNK N   1      33.338  14.616   6.570  0.00  0.00     0.111 C 
BRANCH  47  48
HETATM   48  C   UNK N   1      33.219  13.127   6.265  0.00  0.00     0.010 C 
BRANCH  48  49
HETATM   49  C   UNK N   1      32.962  12.869   4.785  0.00  0.00     0.000 C 
BRANCH  49  50
HETATM   50  C   UNK N   1      31.770  13.661   4.262  0.00  0.00     0.000 C 
BRANCH  50  51
HETATM   51  C   UNK N   1      32.026  14.210   2.865  0.00  0.00     0.000 C 
BRANCH  51  52
HETATM   52  C   UNK N   1      33.141  15.243   2.881  0.00  0.00     0.004 C 
BRANCH  52  53
HETATM   53  C   UNK N   1      32.553  16.641   2.846  0.00  0.00     0.027 C 
BRANCH  53  54
HETATM   54  C   UNK N   1      32.716  17.307   4.177  0.00  0.00    -0.031 C 
HETATM   55  C   UNK N   1      31.677  17.658   4.945  0.00  0.00    -0.031 C 
BRANCH  55  56
HETATM   56  C   UNK N   1      30.250  17.441   4.542  0.00  0.00     0.027 C 
BRANCH  56  57
HETATM   57  C   UNK N   1      29.654  16.286   5.325  0.00  0.00     0.004 C 
BRANCH  57  58
HETATM   58  C   UNK N   1      28.204  16.076   4.932  0.00  0.00     0.000 C 
BRANCH  58  59
HETATM   59  C   UNK N   1      28.125  15.379   3.587  0.00  0.00     0.000 C 
BRANCH  59  60
HETATM   60  C   UNK N   1      28.021  13.884   3.798  0.00  0.00     0.000 C 
BRANCH  60  61
HETATM   61  C   UNK N   1      26.573  13.459   3.670  0.00  0.00    -0.000 C 
BRANCH  61  62
HETATM   62  C   UNK N   1      26.204  13.366   2.205  0.00  0.00    -0.005 C 
HETATM   63  C   UNK N   1      26.544  11.987   1.681  0.00  0.00     0.005 C 
ENDBRANCH  61  62
ENDBRANCH  60  61
ENDBRANCH  59  60
ENDBRANCH  58  59
ENDBRANCH  57  58
ENDBRANCH  56  57
ENDBRANCH  55  56
ENDBRANCH  53  54
ENDBRANCH  52  53
ENDBRANCH  51  52
ENDBRANCH  50  51
ENDBRANCH  49  50
ENDBRANCH  48  49
ENDBRANCH  47  48
ENDBRANCH  45  47
ENDBRANCH  44  45
ENDBRANCH  43  44
ENDBRANCH   1  43
TORSDOF 53
ENDMDL
MODEL 8
REMARK VINA RESULT:      -4.7      2.730      7.731
REMARK WARNING: 32 MAX_TORS EXCEEDED!!!
REMARK  53 active torsions:
REMARK  status: ('A' for Active; 'I' for Inactive)
REMARK    1  A    between atoms: O_1  and  C_55 
REMARK    2  A    between atoms: O_1  and  C_58 
REMARK    3  A    between atoms: O_2  and  C_56 
REMARK    4  A    between atoms: O_2  and  C_59 
REMARK    5  A    between atoms: O_3  and  C_57 
REMARK    6  A    between atoms: O_3  and  C_60 
REMARK    7  A    between atoms: C_7  and  C_8 
REMARK    8  A    between atoms: C_7  and  C_11 
REMARK    9  A    between atoms: C_8  and  C_16 
REMARK   10  A    between atoms: C_9  and  C_12 
REMARK   11  A    between atoms: C_9  and  C_21 
REMARK   12  A    between atoms: C_10  and  C_13 
REMARK   13  A    between atoms: C_10  and  C_22 
REMARK   14  A    between atoms: C_11  and  C_31 
REMARK   15  A    between atoms: C_12  and  C_23 
REMARK   16  A    between atoms: C_13  and  C_24 
REMARK   17  A    between atoms: C_14  and  C_15 
REMARK   18  A    between atoms: C_14  and  C_25 
REMARK   19  A    between atoms: C_15  and  C_26 
REMARK   20  A    between atoms: C_16  and  C_34 
REMARK   21  A    between atoms: C_17  and  C_19 
REMARK   22  A    between atoms: C_17  and  C_27 
REMARK   23  A    between atoms: C_18  and  C_20 
REMARK   24  A    between atoms: C_18  and  C_28 
REMARK   25  A    between atoms: C_19  and  C_29 
REMARK   26  A    between atoms: C_20  and  C_30 
REMARK   27  A    between atoms: C_21  and  C_32 
REMARK   28  A    between atoms: C_22  and  C_33 
REMARK   29  A    between atoms: C_23  and  C_35 
REMARK   30  A    between atoms: C_24  and  C_36 
REMARK   31  A    between atoms: C_25  and  C_37 
REMARK   32  A    between atoms: C_26  and  C_38 
REMARK   33  A    between atoms: C_27  and  C_39 
REMARK   34  A    between atoms: C_28  and  C_40 
REMARK   35  A    between atoms: C_29  and  C_41 
REMARK   36  A    between atoms: C_30  and  C_42 
REMARK   37  A    between atoms: C_31  and  C_43 
REMARK   38  A    between atoms: C_32  and  C_44 
REMARK   39  A    between atoms: C_33  and  C_45 
REMARK   40  A    between atoms: C_34  and  C_46 
REMARK   41  A    between atoms: C_35  and  C_51 
REMARK   42  A    between atoms: C_36  and  C_52 
REMARK   43  A    between atoms: C_37  and  C_47 
REMARK   44  A    between atoms: C_38  and  C_48 
REMARK   45  A    between atoms: C_39  and  C_49 
REMARK   46  A    between atoms: C_40  and  C_50 
REMARK   47  A    between atoms: C_41  and  C_53 
REMARK   48  A    between atoms: C_42  and  C_54 
REMARK   49  A    between atoms: C_43  and  C_58 
REMARK   50  A    between atoms: C_44  and  C_59 
REMARK   51  A    between atoms: C_45  and  C_60 
REMARK   52  A    between atoms: C_55  and  C_56 
REMARK   53  A    between atoms: C_55  and  C_57 
ROOT
HETATM    1  C   UNK N   1      24.755  18.742   4.208  0.00  0.00     0.180 C 
ENDROOT
BRANCH   1   2
HETATM    2  O   UNK N   1      25.721  19.017   3.267  0.00  0.00    -0.312 OA
BRANCH   2   3
HETATM    3  C   UNK N   1      26.611  20.030   3.411  0.00  0.00     0.259 C 
HETATM    4  O   UNK N   1      26.468  21.074   2.793  0.00  0.00    -0.265 OA
BRANCH   3   5
HETATM    5  C   UNK N   1      27.776  19.888   4.344  0.00  0.00     0.111 C 
BRANCH   5   6
HETATM    6  C   UNK N   1      27.512  20.554   5.688  0.00  0.00     0.010 C 
BRANCH   6   7
HETATM    7  C   UNK N   1      27.629  19.549   6.827  0.00  0.00     0.000 C 
BRANCH   7   8
HETATM    8  C   UNK N   1      27.875  18.136   6.314  0.00  0.00     0.000 C 
BRANCH   8   9
HETATM    9  C   UNK N   1      27.984  17.179   7.488  0.00  0.00     0.000 C 
BRANCH   9  10
HETATM   10  C   UNK N   1      28.644  17.871   8.661  0.00  0.00     0.004 C 
BRANCH  10  11
HETATM   11  C   UNK N   1      30.137  17.981   8.397  0.00  0.00     0.027 C 
BRANCH  11  12
HETATM   12  C   UNK N   1      30.732  16.641   8.071  0.00  0.00    -0.031 C 
HETATM   13  C   UNK N   1      31.637  16.440   7.102  0.00  0.00    -0.031 C 
BRANCH  13  14
HETATM   14  C   UNK N   1      32.144  17.541   6.231  0.00  0.00     0.027 C 
BRANCH  14  15
HETATM   15  C   UNK N   1      33.278  17.064   5.352  0.00  0.00     0.004 C 
BRANCH  15  16
HETATM   16  C   UNK N   1      32.905  17.349   3.912  0.00  0.00     0.000 C 
BRANCH  16  17
HETATM   17  C   UNK N   1      33.155  16.134   3.049  0.00  0.00     0.000 C 
BRANCH  17  18
HETATM   18  C   UNK N   1      32.619  14.915   3.772  0.00  0.00     0.000 C 
BRANCH  18  19
HETATM   19  C   UNK N   1      31.322  14.462   3.138  0.00  0.00    -0.000 C 
BRANCH  19  20
HETATM   20  C   UNK N   1      30.211  14.566   4.161  0.00  0.00    -0.005 C 
HETATM   21  C   UNK N   1      29.538  15.917   4.047  0.00  0.00     0.005 C 
ENDBRANCH  19  20
ENDBRANCH  18  19
ENDBRANCH  17  18
ENDBRANCH  16  17
ENDBRANCH  15  16
ENDBRANCH  14  15
ENDBRANCH  13  14
ENDBRANCH  11  12
ENDBRANCH  10  11
ENDBRANCH   9  10
ENDBRANCH   8   9
ENDBRANCH   7   8
ENDBRANCH   6   7
ENDBRANCH   5   6
ENDBRANCH   3   5
ENDBRANCH   2   3
ENDBRANCH   1   2
BRANCH   1  22
HETATM   22  C   UNK N   1      23.405  19.283   3.768  0.00  0.00     0.213 C 
BRANCH  22  23
HETATM   23  O   UNK N   1      22.381  18.493   4.244  0.00  0.00    -0.319 OA
BRANCH  23  24
HETATM   24  C   UNK N   1      21.068  18.775   4.045  0.00  0.00     0.258 C 
HETATM   25  O   UNK N   1      20.687  19.931   4.136  0.00  0.00    -0.265 OA
BRANCH  24  26
HETATM   26  C   UNK N   1      20.071  17.697   3.731  0.00  0.00     0.111 C 
BRANCH  26  27
HETATM   27  C   UNK N   1      20.471  16.385   4.385  0.00  0.00     0.010 C 
BRANCH  27  28
HETATM   28  C   UNK N   1      19.252  15.710   4.988  0.00  0.00     0.000 C 
BRANCH  28  29
HETATM   29  C   UNK N   1      18.930  16.297   6.353  0.00  0.00     0.000 C 
BRANCH  29  30
HETATM   30  C   UNK N   1      20.174  16.326   7.222  0.00  0.00     0.000 C 
BRANCH  30  31
HETATM   31  C   UNK N   1      19.926  15.667   8.568  0.00  0.00     0.004 C 
BRANCH  31  32
HETATM   32  C   UNK N   1      21.190  14.979   9.058  0.00  0.00     0.027 C 
BRANCH  32  33
HETATM   33  C   UNK N   1      20.893  13.696   9.780  0.00  0.00    -0.031 C 
HETATM   34  C   UNK N   1      21.847  12.832  10.161  0.00  0.00    -0.031 C 
BRANCH  34  35
HETATM   35  C   UNK N   1      23.314  13.078   9.959  0.00  0.00     0.027 C 
BRANCH  35  36
HETATM   36  C   UNK N   1      24.059  11.801   9.601  0.00  0.00     0.004 C 
BRANCH  36  37
HETATM   37  C   UNK N   1      23.218  10.967   8.651  0.00  0.00     0.000 C 
BRANCH  37  38
HETATM   38  C   UNK N   1      24.093  10.318   7.597  0.00  0.00     0.000 C 
BRANCH  38  39
HETATM   39  C   UNK N   1      23.275   9.302   6.831  0.00  0.00     0.000 C 
BRANCH  39  40
HETATM   40  C   UNK N   1      23.238   9.684   5.368  0.00  0.00    -0.000 C 
BRANCH  40  41
HETATM   41  C   UNK N   1      21.857   9.404   4.818  0.00  0.00    -0.005 C 
HETATM   42  C   UNK N   1      21.725  10.020   3.443  0.00  0.00     0.005 C 
ENDBRANCH  40  41
ENDBRANCH  39  40
ENDBRANCH  38  39
ENDBRANCH  37  38
ENDBRANCH  36  37
ENDBRANCH  35  36
ENDBRANCH  34  35
ENDBRANCH  32  33
ENDBRANCH  31  32
ENDBRANCH  30  31
ENDBRANCH  29  30
ENDBRANCH  28  29
ENDBRANCH  27  28
ENDBRANCH  26  27
ENDBRANCH  24  26
ENDBRANCH  23  24
ENDBRANCH  22  23
ENDBRANCH   1  22
BRANCH   1  43
HETATM   43  C   UNK N   1      24.645  17.239   4.359  0.00  0.00     0.213 C 
BRANCH  43  44
HETATM   44  O   UNK N   1      25.408  16.607   3.407  0.00  0.00    -0.319 OA
BRANCH  44  45
HETATM   45  C   UNK N   1      24.881  15.705   2.542  0.00  0.00     0.258 C 
HETATM   46  O   UNK N   1      25.592  15.234   1.672  0.00  0.00    -0.265 OA
BRANCH  45  47
HETATM   47  C   UNK N   1      23.427  15.294   2.653  0.00  0.00     0.111 C 
BRANCH  47  48
HETATM   48  C   UNK N   1      23.142  13.837   2.303  0.00  0.00     0.010 C 
BRANCH  48  49
HETATM   49  C   UNK N   1      22.681  13.680   0.859  0.00  0.00     0.000 C 
BRANCH  49  50
HETATM   50  C   UNK N   1      23.592  12.752   0.063  0.00  0.00     0.000 C 
BRANCH  50  51
HETATM   51  C   UNK N   1      23.905  11.474   0.828  0.00  0.00     0.000 C 
BRANCH  51  52
HETATM   52  C   UNK N   1      25.370  11.095   0.683  0.00  0.00     0.004 C 
BRANCH  52  53
HETATM   53  C   UNK N   1      26.183  11.732   1.794  0.00  0.00     0.027 C 
BRANCH  53  54
HETATM   54  C   UNK N   1      25.616  11.363   3.129  0.00  0.00    -0.031 C 
HETATM   55  C   UNK N   1      25.825  12.092   4.233  0.00  0.00    -0.031 C 
BRANCH  55  56
HETATM   56  C   UNK N   1      26.663  13.333   4.249  0.00  0.00     0.027 C 
BRANCH  56  57
HETATM   57  C   UNK N   1      26.812  13.848   5.668  0.00  0.00     0.004 C 
BRANCH  57  58
HETATM   58  C   UNK N   1      25.579  13.511   6.484  0.00  0.00     0.000 C 
BRANCH  58  59
HETATM   59  C   UNK N   1      24.864  14.784   6.896  0.00  0.00     0.000 C 
BRANCH  59  60
HETATM   60  C   UNK N   1      23.421  14.721   6.441  0.00  0.00     0.000 C 
BRANCH  60  61
HETATM   61  C   UNK N   1      23.012  13.272   6.270  0.00  0.00    -0.000 C 
BRANCH  61  62
HETATM   62  C   UNK N   1      21.739  13.202   5.454  0.00  0.00    -0.005 C 
HETATM   63  C   UNK N   1      20.666  12.488   6.247  0.00  0.00     0.005 C 
ENDBRANCH  61  62
ENDBRANCH  60  61
ENDBRANCH  59  60
ENDBRANCH  58  59
ENDBRANCH  57  58
ENDBRANCH  56  57
ENDBRANCH  55  56
ENDBRANCH  53  54
ENDBRANCH  52  53
ENDBRANCH  51  52
ENDBRANCH  50  51
ENDBRANCH  49  50
ENDBRANCH  48  49
ENDBRANCH  47  48
ENDBRANCH  45  47
ENDBRANCH  44  45
ENDBRANCH  43  44
ENDBRANCH   1  43
TORSDOF 53
ENDMDL
MODEL 9
REMARK VINA RESULT:      -4.7      7.889     13.665
REMARK WARNING: 32 MAX_TORS EXCEEDED!!!
REMARK  53 active torsions:
REMARK  status: ('A' for Active; 'I' for Inactive)
REMARK    1  A    between atoms: O_1  and  C_55 
REMARK    2  A    between atoms: O_1  and  C_58 
REMARK    3  A    between atoms: O_2  and  C_56 
REMARK    4  A    between atoms: O_2  and  C_59 
REMARK    5  A    between atoms: O_3  and  C_57 
REMARK    6  A    between atoms: O_3  and  C_60 
REMARK    7  A    between atoms: C_7  and  C_8 
REMARK    8  A    between atoms: C_7  and  C_11 
REMARK    9  A    between atoms: C_8  and  C_16 
REMARK   10  A    between atoms: C_9  and  C_12 
REMARK   11  A    between atoms: C_9  and  C_21 
REMARK   12  A    between atoms: C_10  and  C_13 
REMARK   13  A    between atoms: C_10  and  C_22 
REMARK   14  A    between atoms: C_11  and  C_31 
REMARK   15  A    between atoms: C_12  and  C_23 
REMARK   16  A    between atoms: C_13  and  C_24 
REMARK   17  A    between atoms: C_14  and  C_15 
REMARK   18  A    between atoms: C_14  and  C_25 
REMARK   19  A    between atoms: C_15  and  C_26 
REMARK   20  A    between atoms: C_16  and  C_34 
REMARK   21  A    between atoms: C_17  and  C_19 
REMARK   22  A    between atoms: C_17  and  C_27 
REMARK   23  A    between atoms: C_18  and  C_20 
REMARK   24  A    between atoms: C_18  and  C_28 
REMARK   25  A    between atoms: C_19  and  C_29 
REMARK   26  A    between atoms: C_20  and  C_30 
REMARK   27  A    between atoms: C_21  and  C_32 
REMARK   28  A    between atoms: C_22  and  C_33 
REMARK   29  A    between atoms: C_23  and  C_35 
REMARK   30  A    between atoms: C_24  and  C_36 
REMARK   31  A    between atoms: C_25  and  C_37 
REMARK   32  A    between atoms: C_26  and  C_38 
REMARK   33  A    between atoms: C_27  and  C_39 
REMARK   34  A    between atoms: C_28  and  C_40 
REMARK   35  A    between atoms: C_29  and  C_41 
REMARK   36  A    between atoms: C_30  and  C_42 
REMARK   37  A    between atoms: C_31  and  C_43 
REMARK   38  A    between atoms: C_32  and  C_44 
REMARK   39  A    between atoms: C_33  and  C_45 
REMARK   40  A    between atoms: C_34  and  C_46 
REMARK   41  A    between atoms: C_35  and  C_51 
REMARK   42  A    between atoms: C_36  and  C_52 
REMARK   43  A    between atoms: C_37  and  C_47 
REMARK   44  A    between atoms: C_38  and  C_48 
REMARK   45  A    between atoms: C_39  and  C_49 
REMARK   46  A    between atoms: C_40  and  C_50 
REMARK   47  A    between atoms: C_41  and  C_53 
REMARK   48  A    between atoms: C_42  and  C_54 
REMARK   49  A    between atoms: C_43  and  C_58 
REMARK   50  A    between atoms: C_44  and  C_59 
REMARK   51  A    between atoms: C_45  and  C_60 
REMARK   52  A    between atoms: C_55  and  C_56 
REMARK   53  A    between atoms: C_55  and  C_57 
ROOT
HETATM    1  C   UNK N   1      35.350  15.317   9.592  0.00  0.00     0.180 C 
ENDROOT
BRANCH   1   2
HETATM    2  O   UNK N   1      36.363  15.065  10.490  0.00  0.00    -0.312 OA
BRANCH   2   3
HETATM    3  C   UNK N   1      36.971  13.856  10.583  0.00  0.00     0.259 C 
HETATM    4  O   UNK N   1      37.411  13.305   9.586  0.00  0.00    -0.265 OA
BRANCH   3   5
HETATM    5  C   UNK N   1      37.126  13.186  11.916  0.00  0.00     0.111 C 
BRANCH   5   6
HETATM    6  C   UNK N   1      35.932  13.445  12.824  0.00  0.00     0.010 C 
BRANCH   6   7
HETATM    7  C   UNK N   1      36.355  14.195  14.081  0.00  0.00     0.000 C 
BRANCH   7   8
HETATM    8  C   UNK N   1      36.646  13.247  15.237  0.00  0.00     0.000 C 
BRANCH   8   9
HETATM    9  C   UNK N   1      35.340  12.718  15.803  0.00  0.00     0.000 C 
BRANCH   9  10
HETATM   10  C   UNK N   1      35.573  11.389  16.487  0.00  0.00     0.004 C 
BRANCH  10  11
HETATM   11  C   UNK N   1      34.599  10.365  15.929  0.00  0.00     0.027 C 
BRANCH  11  12
HETATM   12  C   UNK N   1      33.842  10.918  14.755  0.00  0.00    -0.031 C 
HETATM   13  C   UNK N   1      33.941  10.435  13.507  0.00  0.00    -0.031 C 
BRANCH  13  14
HETATM   14  C   UNK N   1      34.831   9.290  13.153  0.00  0.00     0.027 C 
BRANCH  14  15
HETATM   15  C   UNK N   1      35.982   9.742  12.283  0.00  0.00     0.004 C 
BRANCH  15  16
HETATM   16  C   UNK N   1      37.264   9.212  12.892  0.00  0.00     0.000 C 
BRANCH  16  17
HETATM   17  C   UNK N   1      37.852  10.222  13.851  0.00  0.00     0.000 C 
BRANCH  17  18
HETATM   18  C   UNK N   1      38.958   9.547  14.637  0.00  0.00     0.000 C 
BRANCH  18  19
HETATM   19  C   UNK N   1      39.450   8.322  13.897  0.00  0.00    -0.000 C 
BRANCH  19  20
HETATM   20  C   UNK N   1      39.879   7.277  14.906  0.00  0.00    -0.005 C 
HETATM   21  C   UNK N   1      40.851   7.890  15.891  0.00  0.00     0.005 C 
ENDBRANCH  19  20
ENDBRANCH  18  19
ENDBRANCH  17  18
ENDBRANCH  16  17
ENDBRANCH  15  16
ENDBRANCH  14  15
ENDBRANCH  13  14
ENDBRANCH  11  12
ENDBRANCH  10  11
ENDBRANCH   9  10
ENDBRANCH   8   9
ENDBRANCH   7   8
ENDBRANCH   6   7
ENDBRANCH   5   6
ENDBRANCH   3   5
ENDBRANCH   2   3
ENDBRANCH   1   2
BRANCH   1  22
HETATM   22  C   UNK N   1      34.245  14.283   9.724  0.00  0.00     0.213 C 
BRANCH  22  23
HETATM   23  O   UNK N   1      33.305  14.442   8.729  0.00  0.00    -0.319 OA
BRANCH  23  24
HETATM   24  C   UNK N   1      33.353  13.777   7.545  0.00  0.00     0.258 C 
HETATM   25  O   UNK N   1      32.966  12.620   7.497  0.00  0.00    -0.265 OA
BRANCH  24  26
HETATM   26  C   UNK N   1      33.883  14.426   6.300  0.00  0.00     0.111 C 
BRANCH  26  27
HETATM   27  C   UNK N   1      32.747  14.804   5.364  0.00  0.00     0.010 C 
BRANCH  27  28
HETATM   28  C   UNK N   1      33.293  15.537   4.151  0.00  0.00     0.000 C 
BRANCH  28  29
HETATM   29  C   UNK N   1      32.787  16.970   4.115  0.00  0.00     0.000 C 
BRANCH  29  30
HETATM   30  C   UNK N   1      31.376  17.018   3.555  0.00  0.00     0.000 C 
BRANCH  30  31
HETATM   31  C   UNK N   1      30.363  17.358   4.635  0.00  0.00     0.004 C 
BRANCH  31  32
HETATM   32  C   UNK N   1      28.953  17.078   4.140  0.00  0.00     0.027 C 
BRANCH  32  33
HETATM   33  C   UNK N   1      28.946  16.218   2.908  0.00  0.00    -0.031 C 
HETATM   34  C   UNK N   1      28.361  15.011   2.861  0.00  0.00    -0.031 C 
BRANCH  34  35
HETATM   35  C   UNK N   1      27.605  14.413   4.011  0.00  0.00     0.027 C 
BRANCH  35  36
HETATM   36  C   UNK N   1      26.195  14.005   3.612  0.00  0.00     0.004 C 
BRANCH  36  37
HETATM   37  C   UNK N   1      25.831  14.651   2.287  0.00  0.00     0.000 C 
BRANCH  37  38
HETATM   38  C   UNK N   1      24.353  14.985   2.246  0.00  0.00     0.000 C 
BRANCH  38  39
HETATM   39  C   UNK N   1      23.574  13.741   1.880  0.00  0.00     0.000 C 
BRANCH  39  40
HETATM   40  C   UNK N   1      24.005  13.261   0.512  0.00  0.00    -0.000 C 
BRANCH  40  41
HETATM   41  C   UNK N   1      23.034  12.205   0.030  0.00  0.00    -0.005 C 
HETATM   42  C   UNK N   1      23.796  10.956  -0.354  0.00  0.00     0.005 C 
ENDBRANCH  40  41
ENDBRANCH  39  40
ENDBRANCH  38  39
ENDBRANCH  37  38
ENDBRANCH  36  37
ENDBRANCH  35  36
ENDBRANCH  34  35
ENDBRANCH  32  33
ENDBRANCH  31  32
ENDBRANCH  30  31
ENDBRANCH  29  30
ENDBRANCH  28  29
ENDBRANCH  27  28
ENDBRANCH  26  27
ENDBRANCH  24  26
ENDBRANCH  23  24
ENDBRANCH  22  23
ENDBRANCH   1  22
BRANCH   1  43
HETATM   43  C   UNK N   1      34.770  16.683   9.892  0.00  0.00     0.213 C 
BRANCH  43  44
HETATM   44  O   UNK N   1      35.109  17.573   8.902  0.00  0.00    -0.319 OA
BRANCH  44  45
HETATM   45  C   UNK N   1      34.238  17.935   7.928  0.00  0.00     0.258 C 
HETATM   46  O   UNK N   1      34.624  17.970   6.773  0.00  0.00    -0.265 OA
BRANCH  45  47
HETATM   47  C   UNK N   1      32.808  18.296   8.273  0.00  0.00     0.111 C 
BRANCH  47  48
HETATM   48  C   UNK N   1      31.755  17.323   7.754  0.00  0.00     0.010 C 
BRANCH  48  49
HETATM   49  C   UNK N   1      30.630  17.112   8.760  0.00  0.00     0.000 C 
BRANCH  49  50
HETATM   50  C   UNK N   1      29.925  18.416   9.115  0.00  0.00     0.000 C 
BRANCH  50  51
HETATM   51  C   UNK N   1      28.412  18.282   9.028  0.00  0.00     0.000 C 
BRANCH  51  52
HETATM   52  C   UNK N   1      27.951  18.231   7.580  0.00  0.00     0.004 C 
BRANCH  52  53
HETATM   53  C   UNK N   1      28.312  19.525   6.875  0.00  0.00     0.027 C 
BRANCH  53  54
HETATM   54  C   UNK N   1      27.112  20.414   6.776  0.00  0.00    -0.031 C 
HETATM   55  C   UNK N   1      26.618  20.840   5.606  0.00  0.00    -0.031 C 
BRANCH  55  56
HETATM   56  C   UNK N   1      27.227  20.488   4.284  0.00  0.00     0.027 C 
BRANCH  56  57
HETATM   57  C   UNK N   1      26.161  20.467   3.204  0.00  0.00     0.004 C 
BRANCH  57  58
HETATM   58  C   UNK N   1      25.086  19.451   3.542  0.00  0.00     0.000 C 
BRANCH  58  59
HETATM   59  C   UNK N   1      25.683  18.057   3.581  0.00  0.00     0.000 C 
BRANCH  59  60
HETATM   60  C   UNK N   1      25.267  17.366   4.862  0.00  0.00     0.000 C 
BRANCH  60  61
HETATM   61  C   UNK N   1      23.811  17.672   5.147  0.00  0.00    -0.000 C 
BRANCH  61  62
HETATM   62  C   UNK N   1      23.116  16.412   5.616  0.00  0.00    -0.005 C 
HETATM   63  C   UNK N   1      24.123  15.487   6.265  0.00  0.00     0.005 C 
ENDBRANCH  61  62
ENDBRANCH  60  61
ENDBRANCH  59  60
ENDBRANCH  58  59
ENDBRANCH  57  58
ENDBRANCH  56  57
ENDBRANCH  55  56
ENDBRANCH  53  54
ENDBRANCH  52  53
ENDBRANCH  51  52
ENDBRANCH  50  51
ENDBRANCH  49  50
ENDBRANCH  48  49
ENDBRANCH  47  48
ENDBRANCH  45  47
ENDBRANCH  44  45
ENDBRANCH  43  44
ENDBRANCH   1  43
TORSDOF 53
ENDMDL
