REMARK  7 active torsions:
REMARK  status: ('A' for Active; 'I' for Inactive)
REMARK    1  A    between atoms: C_2  and  C_3 
REMARK    2  A    between atoms: C_2  and  O_12 
REMARK    3  A    between atoms: O_12  and  C_13 
REMARK    4  A    between atoms: C_15  and  C_22 
REMARK    5  A    between atoms: C_20  and  N_21 
REMARK       I    between atoms: C_22  and  N_24 
REMARK    6  A    between atoms: N_24  and  C_25 
REMARK    7  A    between atoms: C_28  and  C_31 
REMARK       I    between atoms: C_31  and  N_33 
ROOT
HETATM    1  C   UNK N   1       6.440  -3.683  -0.404  0.00  0.00     0.117 A 
HETATM    2  C   UNK N   1       5.394  -3.307   0.414  0.00  0.00     0.077 A 
HETATM    3  C   UNK N   1       5.520  -2.200   1.242  0.00  0.00     0.119 A 
HETATM    4  N   UNK N   1       6.679  -1.482   1.216  0.00  0.00    -0.294 N 
ATOM      5  HN  UNK N   1       6.783  -0.680   1.837  1.00  0.00     0.187 HD
HETATM    6  N   UNK N   1       7.678  -1.805   0.398  0.00  0.00    -0.283 N 
ATOM      7  HN  UNK N   1       8.512  -1.218   0.373  1.00  0.00     0.188 HD
HETATM    8  C   UNK N   1       7.612  -2.902  -0.408  0.00  0.00     0.147 A 
ENDROOT
BRANCH   3   9
HETATM    9  C   UNK N   1       4.519  -1.955   2.295  0.00  0.00     0.274 C 
HETATM   10  O   UNK N   1       4.844  -1.284   3.262  0.00  0.00    -0.266 OA
HETATM   11  N   UNK N   1       3.287  -2.533   2.293  0.00  0.00    -0.322 N 
HETATM   12  H   UNK N   1       2.911  -2.774   3.170  0.00  0.00     0.169 HD
BRANCH  11  13
HETATM   13  C   UNK N   1       2.488  -2.824   1.154  0.00  0.00     0.035 C 
HETATM   14  C   UNK N   1       1.237  -3.408   1.383  0.00  0.00     0.030 C 
HETATM   15  C   UNK N   1       0.173  -3.151   0.519  0.00  0.00     0.019 C 
HETATM   16  C   UNK N   1       0.356  -2.300  -0.573  0.00  0.00     0.032 C 
HETATM   17  C   UNK N   1       1.649  -1.864  -0.894  0.00  0.00     0.019 C 
HETATM   18  C   UNK N   1       2.706  -2.116  -0.034  0.00  0.00     0.030 C 
BRANCH  16  19
HETATM   19  C   UNK N   1      -0.737  -1.333  -0.802  0.00  0.00     0.253 C 
HETATM   20  O   UNK N   1      -1.803  -1.705  -1.273  0.00  0.00    -0.267 OA
HETATM   21  N   UNK N   1      -0.587  -0.043  -0.341  0.00  0.00    -0.345 N 
HETATM   22  C   UNK N   1      -1.609   0.958  -0.498  0.00  0.00     0.156 C 
HETATM   23  C   UNK N   1       0.598   0.369   0.380  0.00  0.00     0.156 C 
HETATM   24  C   UNK N   1      -0.980   2.198  -1.163  0.00  0.00     0.291 C 
HETATM   25  N   UNK N   1       0.300   2.620  -0.557  0.00  0.00     0.087 N 
HETATM   26  C   UNK N   1       1.244   1.512  -0.386  0.00  0.00     0.291 C 
HETATM   27  C   UNK N   1       0.082   3.279   0.724  0.00  0.00     0.310 C 
ENDBRANCH  16  19
ENDBRANCH  11  13
ENDBRANCH   3   9
BRANCH   1  28
HETATM   28  O   UNK N   1       6.295  -4.816  -1.127  0.00  0.00    -0.338 OA
BRANCH  28  29
HETATM   29  C   UNK N   1       7.281  -5.765  -1.235  0.00  0.00     0.161 C 
HETATM   30  C   UNK N   1       7.696  -5.932  -2.684  0.00  0.00     0.045 C 
BRANCH  29  31
HETATM   31  C   UNK N   1       6.891  -7.106  -0.624  0.00  0.00     0.017 A 
HETATM   32  C   UNK N   1       7.928  -7.996  -0.256  0.00  0.00     0.044 A 
HETATM   33  C   UNK N   1       7.630  -9.240   0.301  0.00  0.00     0.028 A 
HETATM   34 Cl   UNK N   1       9.622  -7.571  -0.464  0.00  0.00    -0.084 Cl
HETATM   35  C   UNK N   1       6.309  -9.626   0.502  0.00  0.00     0.046 A 
HETATM   36  C   UNK N   1       5.269  -8.769   0.155  0.00  0.00     0.138 A 
HETATM   37  C   UNK N   1       5.538  -7.510  -0.405  0.00  0.00     0.083 A 
HETATM   38  F   UNK N   1       3.989  -9.170   0.358  0.00  0.00    -0.204 F 
HETATM   39 Cl   UNK N   1       4.147  -6.506  -0.826  0.00  0.00    -0.080 Cl
ENDBRANCH  29  31
ENDBRANCH  28  29
ENDBRANCH   1  28
BRANCH   8  40
HETATM   40  N   UNK N   1       8.708  -3.229  -1.228  0.00  0.00    -0.382 N 
HETATM   41  H   UNK N   1       8.893  -4.007  -1.802  0.00  0.00     0.157 HD
HETATM   42  H   UNK N   1       9.423  -2.552  -1.228  0.00  0.00     0.157 HD
ENDBRANCH   8  40
TORSDOF 7
