REMARK  15 active torsions:
REMARK  status: ('A' for Active; 'I' for Inactive)
REMARK    1  A    between atoms: C_1  and  C_2 
REMARK    2  A    between atoms: C_1  and  C_7 
REMARK    3  A    between atoms: C_2  and  S_3 
REMARK    4  A    between atoms: S_3  and  O_6 
REMARK    5  A    between atoms: C_7  and  C_8 
REMARK    6  A    between atoms: C_7  and  N_20 
REMARK    7  A    between atoms: C_8  and  S_9 
REMARK    8  A    between atoms: S_9  and  S_10 
REMARK    9  A    between atoms: S_10  and  C_11 
REMARK   10  A    between atoms: C_11  and  C_12 
REMARK   11  A    between atoms: C_12  and  C_13 
REMARK   12  A    between atoms: C_12  and  N_19 
REMARK   13  A    between atoms: C_13  and  C_14 
REMARK   14  A    between atoms: C_14  and  S_15 
REMARK   15  A    between atoms: S_15  and  O_18 
ROOT
HETATM    1  S   UNK N   1       3.208   1.701  -1.068  0.00  0.00    -0.096 SA
ENDROOT
BRANCH   1   2
HETATM    2  C   UNK N   1       1.485   1.684  -0.518  0.00  0.00     0.110 C 
BRANCH   2   3
HETATM    3  C   UNK N   1       0.905   3.074  -0.271  0.00  0.00     0.085 C 
BRANCH   3   4
HETATM    4  C   UNK N   1      -0.357   2.940   0.569  0.00  0.00     0.042 C 
BRANCH   4   5
HETATM    5  C   UNK N   1      -1.400   2.059  -0.113  0.00  0.00     0.157 C 
BRANCH   5   6
HETATM    6  S   UNK N   1      -1.836   0.661   0.970  0.00  0.00     0.094 S 
HETATM    7  O   UNK N   1      -2.912  -0.295   0.438  0.00  0.00    -0.601 OA
HETATM    8  O   UNK N   1      -1.073   0.135  -0.254  0.00  0.00    -0.601 OA
BRANCH   6   9
HETATM    9  O   UNK N   1      -3.053   1.722   0.387  0.00  0.00    -0.296 OA
HETATM   10  H   UNK N   1      -2.878   2.618   0.057  0.00  0.00     0.232 HD
ENDBRANCH   6   9
ENDBRANCH   5   6
ENDBRANCH   4   5
ENDBRANCH   3   4
BRANCH   3  11
HETATM   11  N   UNK N   1       1.848   3.911   0.453  0.00  0.00    -0.425 N 
HETATM   12  H   UNK N   1       2.687   3.632   0.961  0.00  0.00     0.150 HD
HETATM   13  H   UNK N   1       1.643   4.910   0.453  0.00  0.00     0.150 HD
ENDBRANCH   3  11
ENDBRANCH   2   3
ENDBRANCH   1   2
BRANCH   1  14
HETATM   14  S   UNK N   1       3.815   1.258   0.924  0.00  0.00    -0.096 SA
BRANCH  14  15
HETATM   15  C   UNK N   1       5.541   1.541   0.465  0.00  0.00     0.110 C 
BRANCH  15  16
HETATM   16  C   UNK N   1       6.317   0.234   0.336  0.00  0.00     0.085 C 
BRANCH  16  17
HETATM   17  C   UNK N   1       7.636   0.512  -0.358  0.00  0.00     0.042 C 
BRANCH  17  18
HETATM   18  C   UNK N   1       8.516   1.443   0.464  0.00  0.00     0.157 C 
BRANCH  18  19
HETATM   19  S   UNK N   1       9.880   2.049  -0.568  0.00  0.00     0.094 S 
HETATM   20  O   UNK N   1      10.834   3.043   0.106  0.00  0.00    -0.601 OA
HETATM   21  O   UNK N   1      10.407   1.124   0.537  0.00  0.00    -0.601 OA
BRANCH  19  22
HETATM   22  O   UNK N   1       8.806   3.172   0.165  0.00  0.00    -0.296 OA
HETATM   23  H   UNK N   1       9.052   4.014   0.578  0.00  0.00     0.232 HD
ENDBRANCH  19  22
ENDBRANCH  18  19
ENDBRANCH  17  18
ENDBRANCH  16  17
BRANCH  16  24
HETATM   24  N   UNK N   1       5.577  -0.728  -0.465  0.00  0.00    -0.425 N 
HETATM   25  H   UNK N   1       4.733  -0.616  -1.026  0.00  0.00     0.150 HD
HETATM   26  H   UNK N   1       5.966  -1.671  -0.465  0.00  0.00     0.150 HD
ENDBRANCH  16  24
ENDBRANCH  15  16
ENDBRANCH  14  15
ENDBRANCH   1  14
TORSDOF 15
