MODEL 1
REMARK VINA RESULT:      -7.6      0.000      0.000
REMARK  5 active torsions:
REMARK  status: ('A' for Active; 'I' for Inactive)
REMARK    1  A    between atoms: C_2  and  N_3 
REMARK       I    between atoms: N_3  and  C_4 
REMARK       I    between atoms: C_4  and  N_6 
REMARK    2  A    between atoms: N_6  and  C_7 
REMARK    3  A    between atoms: C_10  and  C_13 
REMARK    4  A    between atoms: C_18  and  N_21 
REMARK    5  A    between atoms: N_30  and  C_32 
ROOT
HETATM    1  C   UNK N   1      25.717  15.536   6.417  0.00  0.00     0.117 A 
HETATM    2  N   UNK N   1      25.413  14.560   7.297  0.00  0.00    -0.343 N 
ATOM      3  HN  UNK N   1      26.170  14.094   7.798  1.00  0.00     0.167 HD
HETATM    4  C   UNK N   1      24.147  14.181   7.535  0.00  0.00     0.049 A 
HETATM    5  C   UNK N   1      23.081  14.807   6.864  0.00  0.00     0.012 A 
HETATM    6  C   UNK N   1      23.401  15.838   5.914  0.00  0.00     0.113 A 
HETATM    7  N   UNK N   1      24.721  16.163   5.739  0.00  0.00    -0.328 N 
ATOM      8  HN  UNK N   1      24.964  16.899   5.077  1.00  0.00     0.169 HD
HETATM    9  C   UNK N   1      21.675  14.370   7.203  0.00  0.00     0.075 C 
HETATM   10  C   UNK N   1      21.589  13.455   8.435  0.00  0.00     0.278 C 
HETATM   11  N   UNK N   1      22.645  12.442   8.430  0.00  0.00     0.103 N 
HETATM   12  C   UNK N   1      23.925  13.130   8.572  0.00  0.00     0.330 C 
ENDROOT
BRANCH   1  13
HETATM   13  C   UNK N   1      27.133  15.913   6.261  0.00  0.00     0.008 A 
HETATM   14  C   UNK N   1      28.041  15.167   5.491  0.00  0.00     0.017 A 
HETATM   15  C   UNK N   1      29.372  15.605   5.361  0.00  0.00     0.030 A 
HETATM   16  C   UNK N   1      29.798  16.781   6.002  0.00  0.00     0.036 A 
HETATM   17  C   UNK N   1      28.879  17.509   6.765  0.00  0.00     0.030 A 
HETATM   18  C   UNK N   1      27.569  17.082   6.890  0.00  0.00     0.017 A 
BRANCH  16  19
HETATM   19  N   UNK N   1      31.153  17.216   5.867  0.00  0.00    -0.309 N 
HETATM   20  C   UNK N   1      32.140  17.003   6.788  0.00  0.00     0.320 C 
HETATM   21  N   UNK N   1      33.387  17.467   6.543  0.00  0.00    -0.343 N 
HETATM   22  O   UNK N   1      31.912  16.394   7.825  0.00  0.00    -0.247 OA
HETATM   23  H   UNK N   1      33.567  17.957   5.709  0.00  0.00     0.164 HD
HETATM   24  H   UNK N   1      31.393  17.706   5.048  0.00  0.00     0.170 HD
BRANCH  21  25
HETATM   25  C   UNK N   1      34.460  17.256   7.486  0.00  0.00     0.120 C 
HETATM   26  C   UNK N   1      34.675  18.507   8.307  0.00  0.00     0.026 C 
ENDBRANCH  21  25
ENDBRANCH  16  19
ENDBRANCH   1  13
BRANCH   6  27
HETATM   27  N   UNK N   1      22.419  16.598   5.170  0.00  0.00    -0.358 N 
HETATM   28  C   UNK N   1      21.905  15.983   3.945  0.00  0.00     0.151 C 
HETATM   29  C   UNK N   1      20.992  16.907   3.147  0.00  0.00     0.187 C 
HETATM   30  O   UNK N   1      21.521  18.199   3.185  0.00  0.00    -0.388 OA
HETATM   31  C   UNK N   1      21.171  18.654   4.459  0.00  0.00     0.192 C 
HETATM   32  C   UNK N   1      22.021  17.965   5.535  0.00  0.00     0.105 C 
HETATM   33  C   UNK N   1      21.176  17.954   6.798  0.00  0.00     0.034 C 
ENDBRANCH   6  27
BRANCH  11  34
HETATM   34  C   UNK N   1      22.476  11.635   9.642  0.00  0.00     0.270 A 
HETATM   35  C   UNK N   1      23.562  11.943  10.638  0.00  0.00     0.205 A 
HETATM   36  O   UNK N   1      22.679  12.582  11.521  0.00  0.00    -0.387 OA
HETATM   37  C   UNK N   1      21.603  12.333  10.661  0.00  0.00     0.205 A 
ENDBRANCH  11  34
TORSDOF 5
ENDMDL
MODEL 2
REMARK VINA RESULT:      -7.5      1.844      5.493
REMARK  5 active torsions:
REMARK  status: ('A' for Active; 'I' for Inactive)
REMARK    1  A    between atoms: C_2  and  N_3 
REMARK       I    between atoms: N_3  and  C_4 
REMARK       I    between atoms: C_4  and  N_6 
REMARK    2  A    between atoms: N_6  and  C_7 
REMARK    3  A    between atoms: C_10  and  C_13 
REMARK    4  A    between atoms: C_18  and  N_21 
REMARK    5  A    between atoms: N_30  and  C_32 
ROOT
HETATM    1  C   UNK N   1      26.325  16.419   6.633  0.00  0.00     0.117 A 
HETATM    2  N   UNK N   1      25.691  17.247   5.777  0.00  0.00    -0.343 N 
ATOM      3  HN  UNK N   1      26.166  18.095   5.467  1.00  0.00     0.167 HD
HETATM    4  C   UNK N   1      24.455  16.991   5.320  0.00  0.00     0.049 A 
HETATM    5  C   UNK N   1      23.774  15.828   5.725  0.00  0.00     0.012 A 
HETATM    6  C   UNK N   1      24.440  14.950   6.648  0.00  0.00     0.113 A 
HETATM    7  N   UNK N   1      25.704  15.289   7.059  0.00  0.00    -0.328 N 
ATOM      8  HN  UNK N   1      26.195  14.671   7.705  1.00  0.00     0.169 HD
HETATM    9  C   UNK N   1      22.404  15.570   5.144  0.00  0.00     0.075 C 
HETATM   10  C   UNK N   1      22.035  16.506   3.983  0.00  0.00     0.278 C 
HETATM   11  N   UNK N   1      22.417  17.891   4.263  0.00  0.00     0.103 N 
HETATM   12  C   UNK N   1      23.874  17.947   4.332  0.00  0.00     0.330 C 
ENDROOT
BRANCH   1  13
HETATM   13  C   UNK N   1      27.699  16.762   7.040  0.00  0.00     0.008 A 
HETATM   14  C   UNK N   1      28.785  16.754   6.149  0.00  0.00     0.017 A 
HETATM   15  C   UNK N   1      30.064  17.123   6.603  0.00  0.00     0.030 A 
HETATM   16  C   UNK N   1      30.262  17.497   7.944  0.00  0.00     0.036 A 
HETATM   17  C   UNK N   1      29.169  17.498   8.815  0.00  0.00     0.030 A 
HETATM   18  C   UNK N   1      27.909  17.139   8.370  0.00  0.00     0.017 A 
BRANCH  16  19
HETATM   19  N   UNK N   1      31.566  17.867   8.396  0.00  0.00    -0.309 N 
HETATM   20  C   UNK N   1      32.582  16.993   8.661  0.00  0.00     0.320 C 
HETATM   21  N   UNK N   1      33.774  17.470   9.086  0.00  0.00    -0.343 N 
HETATM   22  O   UNK N   1      32.429  15.788   8.514  0.00  0.00    -0.247 OA
HETATM   23  H   UNK N   1      33.894  18.440   9.204  0.00  0.00     0.164 HD
HETATM   24  H   UNK N   1      31.746  18.827   8.525  0.00  0.00     0.170 HD
BRANCH  21  25
HETATM   25  C   UNK N   1      34.875  16.581   9.370  0.00  0.00     0.120 C 
HETATM   26  C   UNK N   1      35.254  16.681  10.830  0.00  0.00     0.026 C 
ENDBRANCH  21  25
ENDBRANCH  16  19
ENDBRANCH   1  13
BRANCH   6  27
HETATM   27  N   UNK N   1      23.890  13.702   7.132  0.00  0.00    -0.358 N 
HETATM   28  C   UNK N   1      22.890  13.795   8.198  0.00  0.00     0.151 C 
HETATM   29  C   UNK N   1      22.474  12.437   8.750  0.00  0.00     0.187 C 
HETATM   30  O   UNK N   1      23.606  11.624   8.838  0.00  0.00    -0.388 OA
HETATM   31  C   UNK N   1      23.821  11.224   7.517  0.00  0.00     0.192 C 
HETATM   32  C   UNK N   1      24.369  12.387   6.679  0.00  0.00     0.105 C 
HETATM   33  C   UNK N   1      23.927  12.124   5.249  0.00  0.00     0.034 C 
ENDBRANCH   6  27
BRANCH  11  34
HETATM   34  C   UNK N   1      22.028  18.691   3.098  0.00  0.00     0.270 A 
HETATM   35  C   UNK N   1      20.798  19.505   3.403  0.00  0.00     0.205 A 
HETATM   36  O   UNK N   1      21.504  20.718   3.396  0.00  0.00    -0.387 OA
HETATM   37  C   UNK N   1      22.698  20.049   3.104  0.00  0.00     0.205 A 
ENDBRANCH  11  34
TORSDOF 5
ENDMDL
MODEL 3
REMARK VINA RESULT:      -7.3      5.595      9.268
REMARK  5 active torsions:
REMARK  status: ('A' for Active; 'I' for Inactive)
REMARK    1  A    between atoms: C_2  and  N_3 
REMARK       I    between atoms: N_3  and  C_4 
REMARK       I    between atoms: C_4  and  N_6 
REMARK    2  A    between atoms: N_6  and  C_7 
REMARK    3  A    between atoms: C_10  and  C_13 
REMARK    4  A    between atoms: C_18  and  N_21 
REMARK    5  A    between atoms: N_30  and  C_32 
ROOT
HETATM    1  C   UNK N   1      32.794  15.607   7.742  0.00  0.00     0.117 A 
HETATM    2  N   UNK N   1      31.657  16.310   7.924  0.00  0.00    -0.343 N 
ATOM      3  HN  UNK N   1      31.484  16.743   8.832  1.00  0.00     0.167 HD
HETATM    4  C   UNK N   1      30.747  16.460   6.948  0.00  0.00     0.049 A 
HETATM    5  C   UNK N   1      30.958  15.880   5.684  0.00  0.00     0.012 A 
HETATM    6  C   UNK N   1      32.161  15.117   5.491  0.00  0.00     0.113 A 
HETATM    7  N   UNK N   1      33.037  15.021   6.541  0.00  0.00    -0.328 N 
ATOM      8  HN  UNK N   1      33.900  14.493   6.416  1.00  0.00     0.169 HD
HETATM    9  C   UNK N   1      29.920  16.118   4.613  0.00  0.00     0.075 C 
HETATM   10  C   UNK N   1      28.877  17.183   4.984  0.00  0.00     0.278 C 
HETATM   11  N   UNK N   1      28.420  17.033   6.366  0.00  0.00     0.103 N 
HETATM   12  C   UNK N   1      29.554  17.308   7.244  0.00  0.00     0.330 C 
ENDROOT
BRANCH   1  13
HETATM   13  C   UNK N   1      33.754  15.539   8.858  0.00  0.00     0.008 A 
HETATM   14  C   UNK N   1      34.227  16.680   9.529  0.00  0.00     0.017 A 
HETATM   15  C   UNK N   1      35.119  16.536  10.607  0.00  0.00     0.030 A 
HETATM   16  C   UNK N   1      35.543  15.259  11.013  0.00  0.00     0.036 A 
HETATM   17  C   UNK N   1      35.062  14.137  10.332  0.00  0.00     0.030 A 
HETATM   18  C   UNK N   1      34.181  14.275   9.275  0.00  0.00     0.017 A 
BRANCH  16  19
HETATM   19  N   UNK N   1      36.453  15.124  12.107  0.00  0.00    -0.309 N 
HETATM   20  C   UNK N   1      36.165  14.515  13.296  0.00  0.00     0.320 C 
HETATM   21  N   UNK N   1      37.115  14.453  14.257  0.00  0.00    -0.343 N 
HETATM   22  O   UNK N   1      35.064  14.022  13.499  0.00  0.00    -0.247 OA
HETATM   23  H   UNK N   1      37.999  14.851  14.091  0.00  0.00     0.164 HD
HETATM   24  H   UNK N   1      37.357  15.498  11.995  0.00  0.00     0.170 HD
BRANCH  21  25
HETATM   25  C   UNK N   1      36.854  13.811  15.523  0.00  0.00     0.120 C 
HETATM   26  C   UNK N   1      36.768  14.851  16.618  0.00  0.00     0.026 C 
ENDBRANCH  21  25
ENDBRANCH  16  19
ENDBRANCH   1  13
BRANCH   6  27
HETATM   27  N   UNK N   1      32.539  14.489   4.243  0.00  0.00    -0.358 N 
HETATM   28  C   UNK N   1      31.843  13.249   3.895  0.00  0.00     0.151 C 
HETATM   29  C   UNK N   1      32.403  12.576   2.647  0.00  0.00     0.187 C 
HETATM   30  O   UNK N   1      33.794  12.688   2.665  0.00  0.00    -0.388 OA
HETATM   31  C   UNK N   1      34.018  14.010   2.274  0.00  0.00     0.192 C 
HETATM   32  C   UNK N   1      33.639  14.981   3.400  0.00  0.00     0.105 C 
HETATM   33  C   UNK N   1      33.247  16.284   2.721  0.00  0.00     0.034 C 
ENDBRANCH   6  27
BRANCH  11  34
HETATM   34  C   UNK N   1      27.440  18.093   6.616  0.00  0.00     0.270 A 
HETATM   35  C   UNK N   1      28.063  19.214   7.404  0.00  0.00     0.205 A 
HETATM   36  O   UNK N   1      28.029  20.102   6.318  0.00  0.00    -0.387 OA
HETATM   37  C   UNK N   1      27.438  19.125   5.509  0.00  0.00     0.205 A 
ENDBRANCH  11  34
TORSDOF 5
ENDMDL
MODEL 4
REMARK VINA RESULT:      -7.3      1.845      5.648
REMARK  5 active torsions:
REMARK  status: ('A' for Active; 'I' for Inactive)
REMARK    1  A    between atoms: C_2  and  N_3 
REMARK       I    between atoms: N_3  and  C_4 
REMARK       I    between atoms: C_4  and  N_6 
REMARK    2  A    between atoms: N_6  and  C_7 
REMARK    3  A    between atoms: C_10  and  C_13 
REMARK    4  A    between atoms: C_18  and  N_21 
REMARK    5  A    between atoms: N_30  and  C_32 
ROOT
HETATM    1  C   UNK N   1      25.051  17.026   5.517  0.00  0.00     0.117 A 
HETATM    2  N   UNK N   1      24.414  18.001   4.836  0.00  0.00    -0.343 N 
ATOM      3  HN  UNK N   1      24.962  18.765   4.440  1.00  0.00     0.167 HD
HETATM    4  C   UNK N   1      23.083  17.998   4.662  0.00  0.00     0.049 A 
HETATM    5  C   UNK N   1      22.299  16.957   5.192  0.00  0.00     0.012 A 
HETATM    6  C   UNK N   1      22.972  15.923   5.931  0.00  0.00     0.113 A 
HETATM    7  N   UNK N   1      24.335  16.004   6.054  0.00  0.00    -0.328 N 
ATOM      8  HN  UNK N   1      24.828  15.273   6.565  1.00  0.00     0.169 HD
HETATM    9  C   UNK N   1      20.812  16.984   4.929  0.00  0.00     0.075 C 
HETATM   10  C   UNK N   1      20.383  18.034   3.893  0.00  0.00     0.278 C 
HETATM   11  N   UNK N   1      21.071  19.309   4.100  0.00  0.00     0.103 N 
HETATM   12  C   UNK N   1      22.492  19.097   3.843  0.00  0.00     0.330 C 
ENDROOT
BRANCH   1  13
HETATM   13  C   UNK N   1      26.520  17.092   5.612  0.00  0.00     0.008 A 
HETATM   14  C   UNK N   1      27.237  18.298   5.534  0.00  0.00     0.017 A 
HETATM   15  C   UNK N   1      28.638  18.287   5.664  0.00  0.00     0.030 A 
HETATM   16  C   UNK N   1      29.323  17.077   5.868  0.00  0.00     0.036 A 
HETATM   17  C   UNK N   1      28.592  15.888   5.942  0.00  0.00     0.030 A 
HETATM   18  C   UNK N   1      27.214  15.896   5.819  0.00  0.00     0.017 A 
BRANCH  16  19
HETATM   19  N   UNK N   1      30.746  17.077   5.996  0.00  0.00    -0.309 N 
HETATM   20  C   UNK N   1      31.428  17.228   7.170  0.00  0.00     0.320 C 
HETATM   21  N   UNK N   1      32.781  17.211   7.160  0.00  0.00    -0.343 N 
HETATM   22  O   UNK N   1      30.833  17.371   8.229  0.00  0.00    -0.247 OA
HETATM   23  H   UNK N   1      33.257  17.095   6.306  0.00  0.00     0.164 HD
HETATM   24  H   UNK N   1      31.276  16.958   5.174  0.00  0.00     0.170 HD
BRANCH  21  25
HETATM   25  C   UNK N   1      33.539  17.358   8.379  0.00  0.00     0.120 C 
HETATM   26  C   UNK N   1      34.581  18.440   8.209  0.00  0.00     0.026 C 
ENDBRANCH  21  25
ENDBRANCH  16  19
ENDBRANCH   1  13
BRANCH   6  27
HETATM   27  N   UNK N   1      22.315  14.770   6.508  0.00  0.00    -0.358 N 
HETATM   28  C   UNK N   1      21.619  14.979   7.779  0.00  0.00     0.151 C 
HETATM   29  C   UNK N   1      21.084  13.688   8.389  0.00  0.00     0.187 C 
HETATM   30  O   UNK N   1      22.027  12.677   8.195  0.00  0.00    -0.388 OA
HETATM   31  C   UNK N   1      21.856  12.328   6.854  0.00  0.00     0.192 C 
HETATM   32  C   UNK N   1      22.415  13.420   5.932  0.00  0.00     0.105 C 
HETATM   33  C   UNK N   1      21.617  13.333   4.640  0.00  0.00     0.034 C 
ENDBRANCH   6  27
BRANCH  11  34
HETATM   34  C   UNK N   1      20.598  20.230   3.063  0.00  0.00     0.270 A 
HETATM   35  C   UNK N   1      21.753  20.980   2.455  0.00  0.00     0.205 A 
HETATM   36  O   UNK N   1      21.645  20.307   1.228  0.00  0.00    -0.387 OA
HETATM   37  C   UNK N   1      20.556  19.567   1.704  0.00  0.00     0.205 A 
ENDBRANCH  11  34
TORSDOF 5
ENDMDL
MODEL 5
REMARK VINA RESULT:      -7.2      1.825      2.502
REMARK  5 active torsions:
REMARK  status: ('A' for Active; 'I' for Inactive)
REMARK    1  A    between atoms: C_2  and  N_3 
REMARK       I    between atoms: N_3  and  C_4 
REMARK       I    between atoms: C_4  and  N_6 
REMARK    2  A    between atoms: N_6  and  C_7 
REMARK    3  A    between atoms: C_10  and  C_13 
REMARK    4  A    between atoms: C_18  and  N_21 
REMARK    5  A    between atoms: N_30  and  C_32 
ROOT
HETATM    1  C   UNK N   1      24.807  16.779   4.868  0.00  0.00     0.117 A 
HETATM    2  N   UNK N   1      24.401  15.844   5.752  0.00  0.00    -0.343 N 
ATOM      3  HN  UNK N   1      25.103  15.296   6.249  1.00  0.00     0.167 HD
HETATM    4  C   UNK N   1      23.101  15.612   5.999  0.00  0.00     0.049 A 
HETATM    5  C   UNK N   1      22.108  16.353   5.333  0.00  0.00     0.012 A 
HETATM    6  C   UNK N   1      22.536  17.340   4.379  0.00  0.00     0.113 A 
HETATM    7  N   UNK N   1      23.884  17.513   4.194  0.00  0.00    -0.328 N 
ATOM      8  HN  UNK N   1      24.204  18.216   3.530  1.00  0.00     0.169 HD
HETATM    9  C   UNK N   1      20.665  16.079   5.683  0.00  0.00     0.075 C 
HETATM   10  C   UNK N   1      20.484  15.182   6.918  0.00  0.00     0.278 C 
HETATM   11  N   UNK N   1      21.418  14.056   6.908  0.00  0.00     0.103 N 
HETATM   12  C   UNK N   1      22.769  14.595   7.040  0.00  0.00     0.330 C 
ENDROOT
BRANCH   1  13
HETATM   13  C   UNK N   1      26.255  16.992   4.701  0.00  0.00     0.008 A 
HETATM   14  C   UNK N   1      27.034  16.266   3.784  0.00  0.00     0.017 A 
HETATM   15  C   UNK N   1      28.407  16.546   3.657  0.00  0.00     0.030 A 
HETATM   16  C   UNK N   1      29.004  17.545   4.446  0.00  0.00     0.036 A 
HETATM   17  C   UNK N   1      28.212  18.255   5.353  0.00  0.00     0.030 A 
HETATM   18  C   UNK N   1      26.861  17.985   5.476  0.00  0.00     0.017 A 
BRANCH  16  19
HETATM   19  N   UNK N   1      30.400  17.819   4.313  0.00  0.00    -0.309 N 
HETATM   20  C   UNK N   1      31.392  17.201   5.019  0.00  0.00     0.320 C 
HETATM   21  N   UNK N   1      32.680  17.552   4.802  0.00  0.00    -0.343 N 
HETATM   22  O   UNK N   1      31.131  16.331   5.840  0.00  0.00    -0.247 OA
HETATM   23  H   UNK N   1      32.887  18.252   4.141  0.00  0.00     0.164 HD
HETATM   24  H   UNK N   1      30.667  18.507   3.660  0.00  0.00     0.170 HD
BRANCH  21  25
HETATM   25  C   UNK N   1      33.758  16.917   5.521  0.00  0.00     0.120 C 
HETATM   26  C   UNK N   1      33.990  17.629   6.834  0.00  0.00     0.026 C 
ENDBRANCH  21  25
ENDBRANCH  16  19
ENDBRANCH   1  13
BRANCH   6  27
HETATM   27  N   UNK N   1      21.642  18.205   3.640  0.00  0.00    -0.358 N 
HETATM   28  C   UNK N   1      22.063  19.597   3.475  0.00  0.00     0.151 C 
HETATM   29  C   UNK N   1      21.002  20.471   2.817  0.00  0.00     0.187 C 
HETATM   30  O   UNK N   1      19.750  20.109   3.319  0.00  0.00    -0.388 OA
HETATM   31  C   UNK N   1      19.458  18.926   2.638  0.00  0.00     0.192 C 
HETATM   32  C   UNK N   1      20.321  17.770   3.161  0.00  0.00     0.105 C 
HETATM   33  C   UNK N   1      20.469  16.795   2.005  0.00  0.00     0.034 C 
ENDBRANCH   6  27
BRANCH  11  34
HETATM   34  C   UNK N   1      21.167  13.275   8.123  0.00  0.00     0.270 A 
HETATM   35  C   UNK N   1      22.347  13.353   9.055  0.00  0.00     0.205 A 
HETATM   36  O   UNK N   1      21.653  14.134   9.993  0.00  0.00    -0.387 OA
HETATM   37  C   UNK N   1      20.503  14.109   9.196  0.00  0.00     0.205 A 
ENDBRANCH  11  34
TORSDOF 5
ENDMDL
MODEL 6
REMARK VINA RESULT:      -7.1      9.456     14.186
REMARK  5 active torsions:
REMARK  status: ('A' for Active; 'I' for Inactive)
REMARK    1  A    between atoms: C_2  and  N_3 
REMARK       I    between atoms: N_3  and  C_4 
REMARK       I    between atoms: C_4  and  N_6 
REMARK    2  A    between atoms: N_6  and  C_7 
REMARK    3  A    between atoms: C_10  and  C_13 
REMARK    4  A    between atoms: C_18  and  N_21 
REMARK    5  A    between atoms: N_30  and  C_32 
ROOT
HETATM    1  C   UNK N   1      35.606  13.325  12.065  0.00  0.00     0.117 A 
HETATM    2  N   UNK N   1      34.882  14.295  11.467  0.00  0.00    -0.343 N 
ATOM      3  HN  UNK N   1      34.296  14.899  12.044  1.00  0.00     0.167 HD
HETATM    4  C   UNK N   1      34.907  14.489  10.139  0.00  0.00     0.049 A 
HETATM    5  C   UNK N   1      35.707  13.675   9.317  0.00  0.00     0.012 A 
HETATM    6  C   UNK N   1      36.469  12.631   9.947  0.00  0.00     0.113 A 
HETATM    7  N   UNK N   1      36.387  12.509  11.310  0.00  0.00    -0.328 N 
ATOM      8  HN  UNK N   1      36.930  11.781  11.774  1.00  0.00     0.169 HD
HETATM    9  C   UNK N   1      35.729  13.967   7.835  0.00  0.00     0.075 C 
HETATM   10  C   UNK N   1      35.052  15.292   7.453  0.00  0.00     0.278 C 
HETATM   11  N   UNK N   1      33.793  15.483   8.176  0.00  0.00     0.103 N 
HETATM   12  C   UNK N   1      34.111  15.628   9.594  0.00  0.00     0.330 C 
ENDROOT
BRANCH   1  13
HETATM   13  C   UNK N   1      35.548  13.222  13.533  0.00  0.00     0.008 A 
HETATM   14  C   UNK N   1      36.422  13.921  14.383  0.00  0.00     0.017 A 
HETATM   15  C   UNK N   1      36.288  13.797  15.778  0.00  0.00     0.030 A 
HETATM   16  C   UNK N   1      35.288  12.974  16.325  0.00  0.00     0.036 A 
HETATM   17  C   UNK N   1      34.429  12.286  15.463  0.00  0.00     0.030 A 
HETATM   18  C   UNK N   1      34.556  12.410  14.091  0.00  0.00     0.017 A 
BRANCH  16  19
HETATM   19  N   UNK N   1      35.162  12.853  17.743  0.00  0.00    -0.309 N 
HETATM   20  C   UNK N   1      35.427  11.720  18.460  0.00  0.00     0.320 C 
HETATM   21  N   UNK N   1      35.267  11.731  19.803  0.00  0.00    -0.343 N 
HETATM   22  O   UNK N   1      35.811  10.700  17.904  0.00  0.00    -0.247 OA
HETATM   23  H   UNK N   1      34.958  12.553  20.247  0.00  0.00     0.164 HD
HETATM   24  H   UNK N   1      34.862  13.647  18.243  0.00  0.00     0.170 HD
BRANCH  21  25
HETATM   25  C   UNK N   1      35.544  10.558  20.597  0.00  0.00     0.120 C 
HETATM   26  C   UNK N   1      34.250   9.864  20.958  0.00  0.00     0.026 C 
ENDBRANCH  21  25
ENDBRANCH  16  19
ENDBRANCH   1  13
BRANCH   6  27
HETATM   27  N   UNK N   1      37.364  11.734   9.247  0.00  0.00    -0.358 N 
HETATM   28  C   UNK N   1      36.749  10.590   8.572  0.00  0.00     0.151 C 
HETATM   29  C   UNK N   1      37.770   9.619   7.988  0.00  0.00     0.187 C 
HETATM   30  O   UNK N   1      38.831   9.492   8.887  0.00  0.00    -0.388 OA
HETATM   31  C   UNK N   1      39.563  10.665   8.690  0.00  0.00     0.192 C 
HETATM   32  C   UNK N   1      38.828  11.872   9.286  0.00  0.00     0.105 C 
HETATM   33  C   UNK N   1      39.269  13.080   8.475  0.00  0.00     0.034 C 
ENDBRANCH   6  27
BRANCH  11  34
HETATM   34  C   UNK N   1      33.238  16.769   7.746  0.00  0.00     0.270 A 
HETATM   35  C   UNK N   1      33.982  17.909   8.389  0.00  0.00     0.205 A 
HETATM   36  O   UNK N   1      34.575  18.308   7.181  0.00  0.00    -0.387 OA
HETATM   37  C   UNK N   1      33.917  17.281   6.494  0.00  0.00     0.205 A 
ENDBRANCH  11  34
TORSDOF 5
ENDMDL
MODEL 7
REMARK VINA RESULT:      -7.1      6.282     12.683
REMARK  5 active torsions:
REMARK  status: ('A' for Active; 'I' for Inactive)
REMARK    1  A    between atoms: C_2  and  N_3 
REMARK       I    between atoms: N_3  and  C_4 
REMARK       I    between atoms: C_4  and  N_6 
REMARK    2  A    between atoms: N_6  and  C_7 
REMARK    3  A    between atoms: C_10  and  C_13 
REMARK    4  A    between atoms: C_18  and  N_21 
REMARK    5  A    between atoms: N_30  and  C_32 
ROOT
HETATM    1  C   UNK N   1      35.016  14.878   7.858  0.00  0.00     0.117 A 
HETATM    2  N   UNK N   1      34.792  14.854   9.188  0.00  0.00    -0.343 N 
ATOM      3  HN  UNK N   1      33.935  15.272   9.552  1.00  0.00     0.167 HD
HETATM    4  C   UNK N   1      35.659  14.297  10.049  0.00  0.00     0.049 A 
HETATM    5  C   UNK N   1      36.847  13.709   9.579  0.00  0.00     0.012 A 
HETATM    6  C   UNK N   1      37.098  13.745   8.164  0.00  0.00     0.113 A 
HETATM    7  N   UNK N   1      36.154  14.330   7.359  0.00  0.00    -0.328 N 
ATOM      8  HN  UNK N   1      36.311  14.353   6.352  1.00  0.00     0.169 HD
HETATM    9  C   UNK N   1      37.765  13.060  10.589  0.00  0.00     0.075 C 
HETATM   10  C   UNK N   1      37.146  12.915  11.987  0.00  0.00     0.278 C 
HETATM   11  N   UNK N   1      36.424  14.124  12.387  0.00  0.00     0.103 N 
HETATM   12  C   UNK N   1      35.280  14.277  11.493  0.00  0.00     0.330 C 
ENDROOT
BRANCH   1  13
HETATM   13  C   UNK N   1      33.982  15.469   6.991  0.00  0.00     0.008 A 
HETATM   14  C   UNK N   1      32.910  14.728   6.467  0.00  0.00     0.017 A 
HETATM   15  C   UNK N   1      31.942  15.367   5.670  0.00  0.00     0.030 A 
HETATM   16  C   UNK N   1      32.045  16.742   5.393  0.00  0.00     0.036 A 
HETATM   17  C   UNK N   1      33.120  17.461   5.923  0.00  0.00     0.030 A 
HETATM   18  C   UNK N   1      34.070  16.836   6.711  0.00  0.00     0.017 A 
BRANCH  16  19
HETATM   19  N   UNK N   1      31.059  17.381   4.580  0.00  0.00    -0.309 N 
HETATM   20  C   UNK N   1      29.805  17.727   4.996  0.00  0.00     0.320 C 
HETATM   21  N   UNK N   1      28.959  18.329   4.127  0.00  0.00    -0.343 N 
HETATM   22  O   UNK N   1      29.438  17.505   6.142  0.00  0.00    -0.247 OA
HETATM   23  H   UNK N   1      29.257  18.506   3.206  0.00  0.00     0.164 HD
HETATM   24  H   UNK N   1      31.303  17.589   3.649  0.00  0.00     0.170 HD
BRANCH  21  25
HETATM   25  C   UNK N   1      27.629  18.717   4.529  0.00  0.00     0.120 C 
HETATM   26  C   UNK N   1      27.562  20.218   4.703  0.00  0.00     0.026 C 
ENDBRANCH  21  25
ENDBRANCH  16  19
ENDBRANCH   1  13
BRANCH   6  27
HETATM   27  N   UNK N   1      38.253  13.155   7.522  0.00  0.00    -0.358 N 
HETATM   28  C   UNK N   1      39.491  13.937   7.553  0.00  0.00     0.151 C 
HETATM   29  C   UNK N   1      40.614  13.315   6.730  0.00  0.00     0.187 C 
HETATM   30  O   UNK N   1      40.071  12.796   5.553  0.00  0.00    -0.388 OA
HETATM   31  C   UNK N   1      39.471  11.606   5.970  0.00  0.00     0.192 C 
HETATM   32  C   UNK N   1      38.194  11.892   6.772  0.00  0.00     0.105 C 
HETATM   33  C   UNK N   1      38.019  10.717   7.721  0.00  0.00     0.034 C 
ENDBRANCH   6  27
BRANCH  11  34
HETATM   34  C   UNK N   1      35.873  13.877  13.722  0.00  0.00     0.270 A 
HETATM   35  C   UNK N   1      36.494  12.649  14.332  0.00  0.00     0.205 A 
HETATM   36  O   UNK N   1      37.206  13.389  15.290  0.00  0.00    -0.387 OA
HETATM   37  C   UNK N   1      36.671  14.585  14.796  0.00  0.00     0.205 A 
ENDBRANCH  11  34
TORSDOF 5
ENDMDL
MODEL 8
REMARK VINA RESULT:      -7.1      5.990     12.979
REMARK  5 active torsions:
REMARK  status: ('A' for Active; 'I' for Inactive)
REMARK    1  A    between atoms: C_2  and  N_3 
REMARK       I    between atoms: N_3  and  C_4 
REMARK       I    between atoms: C_4  and  N_6 
REMARK    2  A    between atoms: N_6  and  C_7 
REMARK    3  A    between atoms: C_10  and  C_13 
REMARK    4  A    between atoms: C_18  and  N_21 
REMARK    5  A    between atoms: N_30  and  C_32 
ROOT
HETATM    1  C   UNK N   1      34.394  14.847   9.849  0.00  0.00     0.117 A 
HETATM    2  N   UNK N   1      35.495  14.708   9.082  0.00  0.00    -0.343 N 
ATOM      3  HN  UNK N   1      35.535  15.190   8.184  1.00  0.00     0.167 HD
HETATM    4  C   UNK N   1      36.541  13.957   9.463  0.00  0.00     0.049 A 
HETATM    5  C   UNK N   1      36.519  13.282  10.697  0.00  0.00     0.012 A 
HETATM    6  C   UNK N   1      35.341  13.415  11.511  0.00  0.00     0.113 A 
HETATM    7  N   UNK N   1      34.323  14.207  11.045  0.00  0.00    -0.328 N 
ATOM      8  HN  UNK N   1      33.486  14.320  11.615  1.00  0.00     0.169 HD
HETATM    9  C   UNK N   1      37.740  12.487  11.092  0.00  0.00     0.075 C 
HETATM   10  C   UNK N   1      38.957  12.725  10.185  0.00  0.00     0.278 C 
HETATM   11  N   UNK N   1      38.580  12.754   8.772  0.00  0.00     0.103 N 
HETATM   12  C   UNK N   1      37.730  13.922   8.561  0.00  0.00     0.330 C 
ENDROOT
BRANCH   1  13
HETATM   13  C   UNK N   1      33.319  15.731   9.366  0.00  0.00     0.008 A 
HETATM   14  C   UNK N   1      33.567  16.972   8.756  0.00  0.00     0.017 A 
HETATM   15  C   UNK N   1      32.491  17.750   8.291  0.00  0.00     0.030 A 
HETATM   16  C   UNK N   1      31.170  17.294   8.438  0.00  0.00     0.036 A 
HETATM   17  C   UNK N   1      30.943  16.056   9.048  0.00  0.00     0.030 A 
HETATM   18  C   UNK N   1      32.000  15.288   9.501  0.00  0.00     0.017 A 
BRANCH  16  19
HETATM   19  N   UNK N   1      30.083  18.093   7.965  0.00  0.00    -0.309 N 
HETATM   20  C   UNK N   1      29.400  17.879   6.802  0.00  0.00     0.320 C 
HETATM   21  N   UNK N   1      28.388  18.710   6.463  0.00  0.00    -0.343 N 
HETATM   22  O   UNK N   1      29.688  16.944   6.066  0.00  0.00    -0.247 OA
HETATM   23  H   UNK N   1      28.159  19.461   7.056  0.00  0.00     0.164 HD
HETATM   24  H   UNK N   1      29.805  18.856   8.522  0.00  0.00     0.170 HD
BRANCH  21  25
HETATM   25  C   UNK N   1      27.636  18.513   5.247  0.00  0.00     0.120 C 
HETATM   26  C   UNK N   1      27.526  19.820   4.494  0.00  0.00     0.026 C 
ENDBRANCH  21  25
ENDBRANCH  16  19
ENDBRANCH   1  13
BRANCH   6  27
HETATM   27  N   UNK N   1      35.177  12.814  12.818  0.00  0.00    -0.358 N 
HETATM   28  C   UNK N   1      34.719  11.424  12.848  0.00  0.00     0.151 C 
HETATM   29  C   UNK N   1      34.432  10.917  14.256  0.00  0.00     0.187 C 
HETATM   30  O   UNK N   1      33.813  11.938  14.981  0.00  0.00    -0.388 OA
HETATM   31  C   UNK N   1      34.870  12.790  15.307  0.00  0.00     0.192 C 
HETATM   32  C   UNK N   1      35.345  13.565  14.071  0.00  0.00     0.105 C 
HETATM   33  C   UNK N   1      36.813  13.882  14.309  0.00  0.00     0.034 C 
ENDBRANCH   6  27
BRANCH  11  34
HETATM   34  C   UNK N   1      39.804  12.992   8.002  0.00  0.00     0.270 A 
HETATM   35  C   UNK N   1      39.976  11.936   6.943  0.00  0.00     0.205 A 
HETATM   36  O   UNK N   1      39.718  12.833   5.895  0.00  0.00    -0.387 OA
HETATM   37  C   UNK N   1      39.548  13.883   6.805  0.00  0.00     0.205 A 
ENDBRANCH  11  34
TORSDOF 5
ENDMDL
MODEL 9
REMARK VINA RESULT:      -7.1      8.423     13.593
REMARK  5 active torsions:
REMARK  status: ('A' for Active; 'I' for Inactive)
REMARK    1  A    between atoms: C_2  and  N_3 
REMARK       I    between atoms: N_3  and  C_4 
REMARK       I    between atoms: C_4  and  N_6 
REMARK    2  A    between atoms: N_6  and  C_7 
REMARK    3  A    between atoms: C_10  and  C_13 
REMARK    4  A    between atoms: C_18  and  N_21 
REMARK    5  A    between atoms: N_30  and  C_32 
ROOT
HETATM    1  C   UNK N   1      35.830  13.801  11.458  0.00  0.00     0.117 A 
HETATM    2  N   UNK N   1      36.856  13.250  10.778  0.00  0.00    -0.343 N 
ATOM      3  HN  UNK N   1      37.515  12.653  11.278  1.00  0.00     0.167 HD
HETATM    4  C   UNK N   1      37.038  13.461   9.464  0.00  0.00     0.049 A 
HETATM    5  C   UNK N   1      36.145  14.276   8.745  0.00  0.00     0.012 A 
HETATM    6  C   UNK N   1      35.058  14.877   9.469  0.00  0.00     0.113 A 
HETATM    7  N   UNK N   1      34.946  14.602  10.808  0.00  0.00    -0.328 N 
ATOM      8  HN  UNK N   1      34.174  15.012  11.332  1.00  0.00     0.169 HD
HETATM    9  C   UNK N   1      36.374  14.443   7.262  0.00  0.00     0.075 C 
HETATM   10  C   UNK N   1      37.430  13.487   6.685  0.00  0.00     0.278 C 
HETATM   11  N   UNK N   1      38.601  13.385   7.558  0.00  0.00     0.103 N 
HETATM   12  C   UNK N   1      38.175  12.754   8.804  0.00  0.00     0.330 C 
ENDROOT
BRANCH   1  13
HETATM   13  C   UNK N   1      35.687  13.471  12.887  0.00  0.00     0.008 A 
HETATM   14  C   UNK N   1      36.385  14.149  13.900  0.00  0.00     0.017 A 
HETATM   15  C   UNK N   1      36.175  13.800  15.247  0.00  0.00     0.030 A 
HETATM   16  C   UNK N   1      35.275  12.773  15.583  0.00  0.00     0.036 A 
HETATM   17  C   UNK N   1      34.591  12.110  14.559  0.00  0.00     0.030 A 
HETATM   18  C   UNK N   1      34.793  12.455  13.235  0.00  0.00     0.017 A 
BRANCH  16  19
HETATM   19  N   UNK N   1      35.071  12.423  16.953  0.00  0.00    -0.309 N 
HETATM   20  C   UNK N   1      35.655  11.364  17.587  0.00  0.00     0.320 C 
HETATM   21  N   UNK N   1      35.380  11.136  18.892  0.00  0.00    -0.343 N 
HETATM   22  O   UNK N   1      36.427  10.623  16.993  0.00  0.00    -0.247 OA
HETATM   23  H   UNK N   1      34.759  11.734  19.367  0.00  0.00     0.164 HD
HETATM   24  H   UNK N   1      34.464  12.991  17.481  0.00  0.00     0.170 HD
BRANCH  21  25
HETATM   25  C   UNK N   1      35.983  10.032  19.600  0.00  0.00     0.120 C 
HETATM   26  C   UNK N   1      36.871  10.555  20.707  0.00  0.00     0.026 C 
ENDBRANCH  21  25
ENDBRANCH  16  19
ENDBRANCH   1  13
BRANCH   6  27
HETATM   27  N   UNK N   1      34.037  15.710   8.869  0.00  0.00    -0.358 N 
HETATM   28  C   UNK N   1      34.399  17.104   8.607  0.00  0.00     0.151 C 
HETATM   29  C   UNK N   1      33.226  17.946   8.115  0.00  0.00     0.187 C 
HETATM   30  O   UNK N   1      32.082  17.577   8.825  0.00  0.00    -0.388 OA
HETATM   31  C   UNK N   1      31.704  16.373   8.228  0.00  0.00     0.192 C 
HETATM   32  C   UNK N   1      32.664  15.243   8.626  0.00  0.00     0.105 C 
HETATM   33  C   UNK N   1      32.637  14.242   7.482  0.00  0.00     0.034 C 
ENDBRANCH   6  27
BRANCH  11  34
HETATM   34  C   UNK N   1      39.534  12.451   6.922  0.00  0.00     0.270 A 
HETATM   35  C   UNK N   1      40.841  13.135   6.618  0.00  0.00     0.205 A 
HETATM   36  O   UNK N   1      41.538  12.411   7.598  0.00  0.00    -0.387 OA
HETATM   37  C   UNK N   1      40.373  11.716   7.945  0.00  0.00     0.205 A 
ENDBRANCH  11  34
TORSDOF 5
ENDMDL
