MODEL 1
REMARK VINA RESULT:      -6.7      0.000      0.000
REMARK  7 active torsions:
REMARK  status: ('A' for Active; 'I' for Inactive)
REMARK    1  A    between atoms: C_3  and  O_20 
REMARK    2  A    between atoms: C_4  and  C_18 
REMARK    3  A    between atoms: C_5  and  O_7 
REMARK    4  A    between atoms: O_7  and  C_8 
REMARK    5  A    between atoms: C_8  and  C_9 
REMARK    6  A    between atoms: C_12  and  C_15 
REMARK    7  A    between atoms: C_15  and  O_17 
ROOT
HETATM    1  O   UNK N   1      29.201  16.566   5.725  0.00  0.00    -0.346 OA
ENDROOT
BRANCH   1   2
HETATM    2  C   UNK N   1      28.616  17.796   5.842  0.00  0.00     0.085 A 
HETATM    3  C   UNK N   1      28.078  18.398   7.053  0.00  0.00     0.068 A 
HETATM    4  C   UNK N   1      27.510  19.691   6.961  0.00  0.00     0.081 A 
HETATM    5  C   UNK N   1      27.464  20.375   5.750  0.00  0.00     0.037 A 
HETATM    6  C   UNK N   1      27.977  19.800   4.599  0.00  0.00     0.005 A 
HETATM    7  C   UNK N   1      28.543  18.531   4.649  0.00  0.00     0.038 A 
BRANCH   3   8
HETATM    8  C   UNK N   1      28.034  17.827   8.437  0.00  0.00     0.275 C 
HETATM    9  O   UNK N   1      28.548  18.295   9.433  0.00  0.00    -0.301 OA
ENDBRANCH   3   8
BRANCH   4  10
HETATM   10  O   UNK N   1      26.999  20.290   8.055  0.00  0.00    -0.360 OA
HETATM   11  H   UNK N   1      26.775  21.199   8.029  0.00  0.00     0.217 HD
ENDBRANCH   4  10
ENDBRANCH   1   2
BRANCH   1  12
HETATM   12  C   UNK N   1      30.445  16.308   5.221  0.00  0.00     0.214 C 
BRANCH  12  13
HETATM   13  C   UNK N   1      31.595  16.806   6.031  0.00  0.00    -0.034 A 
HETATM   14  C   UNK N   1      31.461  16.743   7.419  0.00  0.00     0.010 A 
HETATM   15  C   UNK N   1      32.483  17.186   8.251  0.00  0.00     0.019 A 
HETATM   16  C   UNK N   1      33.662  17.702   7.706  0.00  0.00     0.037 A 
HETATM   17  C   UNK N   1      33.806  17.770   6.308  0.00  0.00     0.019 A 
HETATM   18  C   UNK N   1      32.772  17.322   5.469  0.00  0.00     0.010 A 
BRANCH  16  19
HETATM   19  C   UNK N   1      34.738  18.169   8.603  0.00  0.00     0.176 C 
HETATM   20  O   UNK N   1      35.300  19.234   8.385  0.00  0.00    -0.646 OA
BRANCH  19  21
HETATM   21  O   UNK N   1      35.110  17.430   9.665  0.00  0.00    -0.773 OA
HETATM   22  H   UNK N   1      35.379  17.852  10.458  0.00  0.00     0.167 HD
ENDBRANCH  19  21
ENDBRANCH  16  19
ENDBRANCH  12  13
ENDBRANCH   1  12
TORSDOF 7
ENDMDL
MODEL 2
REMARK VINA RESULT:      -6.4     12.156     14.559
REMARK  7 active torsions:
REMARK  status: ('A' for Active; 'I' for Inactive)
REMARK    1  A    between atoms: C_3  and  O_20 
REMARK    2  A    between atoms: C_4  and  C_18 
REMARK    3  A    between atoms: C_5  and  O_7 
REMARK    4  A    between atoms: O_7  and  C_8 
REMARK    5  A    between atoms: C_8  and  C_9 
REMARK    6  A    between atoms: C_12  and  C_15 
REMARK    7  A    between atoms: C_15  and  O_17 
ROOT
HETATM    1  O   UNK N   1      25.634  25.695  -6.412  0.00  0.00    -0.346 OA
ENDROOT
BRANCH   1   2
HETATM    2  C   UNK N   1      26.358  26.851  -6.325  0.00  0.00     0.085 A 
HETATM    3  C   UNK N   1      26.274  27.861  -5.280  0.00  0.00     0.068 A 
HETATM    4  C   UNK N   1      27.118  28.993  -5.375  0.00  0.00     0.081 A 
HETATM    5  C   UNK N   1      28.005  29.145  -6.435  0.00  0.00     0.037 A 
HETATM    6  C   UNK N   1      28.084  28.182  -7.429  0.00  0.00     0.005 A 
HETATM    7  C   UNK N   1      27.271  27.055  -7.370  0.00  0.00     0.038 A 
BRANCH   3   8
HETATM    8  C   UNK N   1      25.391  27.878  -4.070  0.00  0.00     0.275 C 
HETATM    9  O   UNK N   1      25.730  27.689  -2.919  0.00  0.00    -0.301 OA
ENDBRANCH   3   8
BRANCH   4  10
HETATM   10  O   UNK N   1      27.076  29.955  -4.432  0.00  0.00    -0.360 OA
HETATM   11  H   UNK N   1      26.318  30.500  -4.353  0.00  0.00     0.217 HD
ENDBRANCH   4  10
ENDBRANCH   1   2
BRANCH   1  12
HETATM   12  C   UNK N   1      25.537  24.728  -5.451  0.00  0.00     0.214 C 
BRANCH  12  13
HETATM   13  C   UNK N   1      26.823  24.285  -4.838  0.00  0.00    -0.034 A 
HETATM   14  C   UNK N   1      26.907  24.337  -3.446  0.00  0.00     0.010 A 
HETATM   15  C   UNK N   1      28.068  23.943  -2.790  0.00  0.00     0.019 A 
HETATM   16  C   UNK N   1      29.170  23.488  -3.519  0.00  0.00     0.037 A 
HETATM   17  C   UNK N   1      29.094  23.432  -4.923  0.00  0.00     0.019 A 
HETATM   18  C   UNK N   1      27.920  23.831  -5.584  0.00  0.00     0.010 A 
BRANCH  16  19
HETATM   19  C   UNK N   1      30.396  23.073  -2.808  0.00  0.00     0.176 C 
HETATM   20  O   UNK N   1      31.405  22.788  -3.439  0.00  0.00    -0.646 OA
BRANCH  19  21
HETATM   21  O   UNK N   1      30.416  23.005  -1.464  0.00  0.00    -0.773 OA
HETATM   22  H   UNK N   1      29.623  22.842  -0.992  0.00  0.00     0.167 HD
ENDBRANCH  19  21
ENDBRANCH  16  19
ENDBRANCH  12  13
ENDBRANCH   1  12
TORSDOF 7
ENDMDL
MODEL 3
REMARK VINA RESULT:      -6.3      9.212     12.360
REMARK  7 active torsions:
REMARK  status: ('A' for Active; 'I' for Inactive)
REMARK    1  A    between atoms: C_3  and  O_20 
REMARK    2  A    between atoms: C_4  and  C_18 
REMARK    3  A    between atoms: C_5  and  O_7 
REMARK    4  A    between atoms: O_7  and  C_8 
REMARK    5  A    between atoms: C_8  and  C_9 
REMARK    6  A    between atoms: C_12  and  C_15 
REMARK    7  A    between atoms: C_15  and  O_17 
ROOT
HETATM    1  O   UNK N   1      35.999  11.376  16.060  0.00  0.00    -0.346 OA
ENDROOT
BRANCH   1   2
HETATM    2  C   UNK N   1      35.729  11.355  17.399  0.00  0.00     0.085 A 
HETATM    3  C   UNK N   1      35.362  12.489  18.236  0.00  0.00     0.068 A 
HETATM    4  C   UNK N   1      35.121  12.253  19.611  0.00  0.00     0.081 A 
HETATM    5  C   UNK N   1      35.229  10.977  20.155  0.00  0.00     0.037 A 
HETATM    6  C   UNK N   1      35.578   9.901  19.356  0.00  0.00     0.005 A 
HETATM    7  C   UNK N   1      35.823  10.092  18.000  0.00  0.00     0.038 A 
BRANCH   3   8
HETATM    8  C   UNK N   1      35.197  13.924  17.841  0.00  0.00     0.275 C 
HETATM    9  O   UNK N   1      35.741  14.885  18.346  0.00  0.00    -0.301 OA
ENDBRANCH   3   8
BRANCH   4  10
HETATM   10  O   UNK N   1      34.779  13.271  20.426  0.00  0.00    -0.360 OA
HETATM   11  H   UNK N   1      35.411  13.927  20.645  0.00  0.00     0.217 HD
ENDBRANCH   4  10
ENDBRANCH   1   2
BRANCH   1  12
HETATM   12  C   UNK N   1      35.096  11.586  15.056  0.00  0.00     0.214 C 
BRANCH  12  13
HETATM   13  C   UNK N   1      35.384  12.732  14.145  0.00  0.00    -0.034 A 
HETATM   14  C   UNK N   1      34.813  12.684  12.873  0.00  0.00     0.010 A 
HETATM   15  C   UNK N   1      35.029  13.710  11.959  0.00  0.00     0.019 A 
HETATM   16  C   UNK N   1      35.824  14.806  12.305  0.00  0.00     0.037 A 
HETATM   17  C   UNK N   1      36.404  14.863  13.585  0.00  0.00     0.019 A 
HETATM   18  C   UNK N   1      36.185  13.826  14.507  0.00  0.00     0.010 A 
BRANCH  16  19
HETATM   19  C   UNK N   1      36.044  15.887  11.323  0.00  0.00     0.176 C 
HETATM   20  O   UNK N   1      35.185  16.742  11.148  0.00  0.00    -0.646 OA
BRANCH  19  21
HETATM   21  O   UNK N   1      37.186  15.944  10.614  0.00  0.00    -0.773 OA
HETATM   22  H   UNK N   1      37.621  15.152  10.363  0.00  0.00     0.167 HD
ENDBRANCH  19  21
ENDBRANCH  16  19
ENDBRANCH  12  13
ENDBRANCH   1  12
TORSDOF 7
ENDMDL
MODEL 4
REMARK VINA RESULT:      -6.3      5.686      8.002
REMARK  7 active torsions:
REMARK  status: ('A' for Active; 'I' for Inactive)
REMARK    1  A    between atoms: C_3  and  O_20 
REMARK    2  A    between atoms: C_4  and  C_18 
REMARK    3  A    between atoms: C_5  and  O_7 
REMARK    4  A    between atoms: O_7  and  C_8 
REMARK    5  A    between atoms: C_8  and  C_9 
REMARK    6  A    between atoms: C_12  and  C_15 
REMARK    7  A    between atoms: C_15  and  O_17 
ROOT
HETATM    1  O   UNK N   1      23.243  20.455   3.429  0.00  0.00    -0.346 OA
ENDROOT
BRANCH   1   2
HETATM    2  C   UNK N   1      22.202  19.569   3.415  0.00  0.00     0.085 A 
HETATM    3  C   UNK N   1      21.058  19.576   2.515  0.00  0.00     0.068 A 
HETATM    4  C   UNK N   1      20.082  18.563   2.667  0.00  0.00     0.081 A 
HETATM    5  C   UNK N   1      20.206  17.582   3.647  0.00  0.00     0.037 A 
HETATM    6  C   UNK N   1      21.296  17.577   4.501  0.00  0.00     0.005 A 
HETATM    7  C   UNK N   1      22.276  18.557   4.384  0.00  0.00     0.038 A 
BRANCH   3   8
HETATM    8  C   UNK N   1      20.749  20.538   1.409  0.00  0.00     0.275 C 
HETATM    9  O   UNK N   1      21.098  20.448   0.249  0.00  0.00    -0.301 OA
ENDBRANCH   3   8
BRANCH   4  10
HETATM   10  O   UNK N   1      19.005  18.528   1.858  0.00  0.00    -0.360 OA
HETATM   11  H   UNK N   1      19.093  18.228   0.975  0.00  0.00     0.217 HD
ENDBRANCH   4  10
ENDBRANCH   1   2
BRANCH   1  12
HETATM   12  C   UNK N   1      24.364  20.397   2.649  0.00  0.00     0.214 C 
BRANCH  12  13
HETATM   13  C   UNK N   1      25.538  19.694   3.242  0.00  0.00    -0.034 A 
HETATM   14  C   UNK N   1      26.570  20.496   3.730  0.00  0.00     0.010 A 
HETATM   15  C   UNK N   1      27.703  19.925   4.300  0.00  0.00     0.019 A 
HETATM   16  C   UNK N   1      27.823  18.536   4.391  0.00  0.00     0.037 A 
HETATM   17  C   UNK N   1      26.787  17.719   3.901  0.00  0.00     0.019 A 
HETATM   18  C   UNK N   1      25.643  18.298   3.325  0.00  0.00     0.010 A 
BRANCH  16  19
HETATM   19  C   UNK N   1      29.032  17.944   4.998  0.00  0.00     0.176 C 
HETATM   20  O   UNK N   1      28.956  17.358   6.070  0.00  0.00    -0.646 OA
BRANCH  19  21
HETATM   21  O   UNK N   1      30.224  18.044   4.382  0.00  0.00    -0.773 OA
HETATM   22  H   UNK N   1      30.668  18.869   4.351  0.00  0.00     0.167 HD
ENDBRANCH  19  21
ENDBRANCH  16  19
ENDBRANCH  12  13
ENDBRANCH   1  12
TORSDOF 7
ENDMDL
MODEL 5
REMARK VINA RESULT:      -6.2      3.472      7.873
REMARK  7 active torsions:
REMARK  status: ('A' for Active; 'I' for Inactive)
REMARK    1  A    between atoms: C_3  and  O_20 
REMARK    2  A    between atoms: C_4  and  C_18 
REMARK    3  A    between atoms: C_5  and  O_7 
REMARK    4  A    between atoms: O_7  and  C_8 
REMARK    5  A    between atoms: C_8  and  C_9 
REMARK    6  A    between atoms: C_12  and  C_15 
REMARK    7  A    between atoms: C_15  and  O_17 
ROOT
HETATM    1  O   UNK N   1      27.777  18.237   5.599  0.00  0.00    -0.346 OA
ENDROOT
BRANCH   1   2
HETATM    2  C   UNK N   1      28.930  17.873   6.237  0.00  0.00     0.085 A 
HETATM    3  C   UNK N   1      29.176  17.877   7.672  0.00  0.00     0.068 A 
HETATM    4  C   UNK N   1      30.448  17.461   8.132  0.00  0.00     0.081 A 
HETATM    5  C   UNK N   1      31.441  17.058   7.245  0.00  0.00     0.037 A 
HETATM    6  C   UNK N   1      31.204  17.056   5.880  0.00  0.00     0.005 A 
HETATM    7  C   UNK N   1      29.967  17.458   5.389  0.00  0.00     0.038 A 
BRANCH   3   8
HETATM    8  C   UNK N   1      28.244  18.272   8.775  0.00  0.00     0.275 C 
HETATM    9  O   UNK N   1      27.691  17.529   9.561  0.00  0.00    -0.301 OA
ENDBRANCH   3   8
BRANCH   4  10
HETATM   10  O   UNK N   1      30.723  17.447   9.451  0.00  0.00    -0.360 OA
HETATM   11  H   UNK N   1      30.278  18.036  10.028  0.00  0.00     0.217 HD
ENDBRANCH   4  10
ENDBRANCH   1   2
BRANCH   1  12
HETATM   12  C   UNK N   1      27.687  18.946   4.434  0.00  0.00     0.214 C 
BRANCH  12  13
HETATM   13  C   UNK N   1      26.309  19.323   4.003  0.00  0.00    -0.034 A 
HETATM   14  C   UNK N   1      25.256  18.589   4.552  0.00  0.00     0.010 A 
HETATM   15  C   UNK N   1      23.939  18.872   4.206  0.00  0.00     0.019 A 
HETATM   16  C   UNK N   1      23.652  19.897   3.302  0.00  0.00     0.037 A 
HETATM   17  C   UNK N   1      24.707  20.642   2.744  0.00  0.00     0.019 A 
HETATM   18  C   UNK N   1      26.037  20.356   3.094  0.00  0.00     0.010 A 
BRANCH  16  19
HETATM   19  C   UNK N   1      22.248  20.185   2.944  0.00  0.00     0.176 C 
HETATM   20  O   UNK N   1      21.350  19.942   3.739  0.00  0.00    -0.646 OA
BRANCH  19  21
HETATM   21  O   UNK N   1      21.944  20.716   1.746  0.00  0.00    -0.773 OA
HETATM   22  H   UNK N   1      22.627  21.026   1.184  0.00  0.00     0.167 HD
ENDBRANCH  19  21
ENDBRANCH  16  19
ENDBRANCH  12  13
ENDBRANCH   1  12
TORSDOF 7
ENDMDL
MODEL 6
REMARK VINA RESULT:      -6.2      2.481      7.003
REMARK  7 active torsions:
REMARK  status: ('A' for Active; 'I' for Inactive)
REMARK    1  A    between atoms: C_3  and  O_20 
REMARK    2  A    between atoms: C_4  and  C_18 
REMARK    3  A    between atoms: C_5  and  O_7 
REMARK    4  A    between atoms: O_7  and  C_8 
REMARK    5  A    between atoms: C_8  and  C_9 
REMARK    6  A    between atoms: C_12  and  C_15 
REMARK    7  A    between atoms: C_15  and  O_17 
ROOT
HETATM    1  O   UNK N   1      29.491  17.138   6.425  0.00  0.00    -0.346 OA
ENDROOT
BRANCH   1   2
HETATM    2  C   UNK N   1      30.752  17.268   5.913  0.00  0.00     0.085 A 
HETATM    3  C   UNK N   1      31.992  17.408   6.663  0.00  0.00     0.068 A 
HETATM    4  C   UNK N   1      33.201  17.530   5.939  0.00  0.00     0.081 A 
HETATM    5  C   UNK N   1      33.213  17.518   4.547  0.00  0.00     0.037 A 
HETATM    6  C   UNK N   1      32.033  17.384   3.836  0.00  0.00     0.005 A 
HETATM    7  C   UNK N   1      30.824  17.261   4.512  0.00  0.00     0.038 A 
BRANCH   3   8
HETATM    8  C   UNK N   1      32.183  17.444   8.149  0.00  0.00     0.275 C 
HETATM    9  O   UNK N   1      32.954  16.768   8.799  0.00  0.00    -0.301 OA
ENDBRANCH   3   8
BRANCH   4  10
HETATM   10  O   UNK N   1      34.374  17.663   6.589  0.00  0.00    -0.360 OA
HETATM   11  H   UNK N   1      35.131  17.972   6.131  0.00  0.00     0.217 HD
ENDBRANCH   4  10
ENDBRANCH   1   2
BRANCH   1  12
HETATM   12  C   UNK N   1      28.678  18.156   6.838  0.00  0.00     0.214 C 
BRANCH  12  13
HETATM   13  C   UNK N   1      27.709  18.670   5.827  0.00  0.00    -0.034 A 
HETATM   14  C   UNK N   1      27.380  20.024   5.903  0.00  0.00     0.010 A 
HETATM   15  C   UNK N   1      26.485  20.587   5.000  0.00  0.00     0.019 A 
HETATM   16  C   UNK N   1      25.901  19.803   4.002  0.00  0.00     0.037 A 
HETATM   17  C   UNK N   1      26.227  18.437   3.918  0.00  0.00     0.019 A 
HETATM   18  C   UNK N   1      27.132  17.869   4.831  0.00  0.00     0.010 A 
BRANCH  16  19
HETATM   19  C   UNK N   1      24.952  20.416   3.051  0.00  0.00     0.176 C 
HETATM   20  O   UNK N   1      25.337  20.779   1.948  0.00  0.00    -0.646 OA
BRANCH  19  21
HETATM   21  O   UNK N   1      23.660  20.581   3.387  0.00  0.00    -0.773 OA
HETATM   22  H   UNK N   1      22.987  20.179   2.872  0.00  0.00     0.167 HD
ENDBRANCH  19  21
ENDBRANCH  16  19
ENDBRANCH  12  13
ENDBRANCH   1  12
TORSDOF 7
ENDMDL
MODEL 7
REMARK VINA RESULT:      -6.1     10.880     13.966
REMARK  7 active torsions:
REMARK  status: ('A' for Active; 'I' for Inactive)
REMARK    1  A    between atoms: C_3  and  O_20 
REMARK    2  A    between atoms: C_4  and  C_18 
REMARK    3  A    between atoms: C_5  and  O_7 
REMARK    4  A    between atoms: O_7  and  C_8 
REMARK    5  A    between atoms: C_8  and  C_9 
REMARK    6  A    between atoms: C_12  and  C_15 
REMARK    7  A    between atoms: C_15  and  O_17 
ROOT
HETATM    1  O   UNK N   1      29.153  22.013  -5.634  0.00  0.00    -0.346 OA
ENDROOT
BRANCH   1   2
HETATM    2  C   UNK N   1      30.301  21.543  -5.060  0.00  0.00     0.085 A 
HETATM    3  C   UNK N   1      30.759  21.779  -3.698  0.00  0.00     0.068 A 
HETATM    4  C   UNK N   1      31.985  21.198  -3.296  0.00  0.00     0.081 A 
HETATM    5  C   UNK N   1      32.738  20.423  -4.172  0.00  0.00     0.037 A 
HETATM    6  C   UNK N   1      32.300  20.200  -5.467  0.00  0.00     0.005 A 
HETATM    7  C   UNK N   1      31.100  20.754  -5.900  0.00  0.00     0.038 A 
BRANCH   3   8
HETATM    8  C   UNK N   1      30.096  22.577  -2.618  0.00  0.00     0.275 C 
HETATM    9  O   UNK N   1      30.587  23.488  -1.982  0.00  0.00    -0.301 OA
ENDBRANCH   3   8
BRANCH   4  10
HETATM   10  O   UNK N   1      32.450  21.388  -2.045  0.00  0.00    -0.360 OA
HETATM   11  H   UNK N   1      32.516  20.662  -1.456  0.00  0.00     0.217 HD
ENDBRANCH   4  10
ENDBRANCH   1   2
BRANCH   1  12
HETATM   12  C   UNK N   1      28.994  23.224  -6.249  0.00  0.00     0.214 C 
BRANCH  12  13
HETATM   13  C   UNK N   1      28.150  24.218  -5.525  0.00  0.00    -0.034 A 
HETATM   14  C   UNK N   1      28.815  25.287  -4.922  0.00  0.00     0.010 A 
HETATM   15  C   UNK N   1      28.108  26.261  -4.226  0.00  0.00     0.019 A 
HETATM   16  C   UNK N   1      26.717  26.182  -4.121  0.00  0.00     0.037 A 
HETATM   17  C   UNK N   1      26.038  25.109  -4.725  0.00  0.00     0.019 A 
HETATM   18  C   UNK N   1      26.754  24.125  -5.428  0.00  0.00     0.010 A 
BRANCH  16  19
HETATM   19  C   UNK N   1      25.980  27.225  -3.379  0.00  0.00     0.176 C 
HETATM   20  O   UNK N   1      25.914  27.178  -2.157  0.00  0.00    -0.646 OA
BRANCH  19  21
HETATM   21  O   UNK N   1      25.376  28.232  -4.035  0.00  0.00    -0.773 OA
HETATM   22  H   UNK N   1      24.738  28.762  -3.596  0.00  0.00     0.167 HD
ENDBRANCH  19  21
ENDBRANCH  16  19
ENDBRANCH  12  13
ENDBRANCH   1  12
TORSDOF 7
ENDMDL
MODEL 8
REMARK VINA RESULT:      -6.1      2.090      3.152
REMARK  7 active torsions:
REMARK  status: ('A' for Active; 'I' for Inactive)
REMARK    1  A    between atoms: C_3  and  O_20 
REMARK    2  A    between atoms: C_4  and  C_18 
REMARK    3  A    between atoms: C_5  and  O_7 
REMARK    4  A    between atoms: O_7  and  C_8 
REMARK    5  A    between atoms: C_8  and  C_9 
REMARK    6  A    between atoms: C_12  and  C_15 
REMARK    7  A    between atoms: C_15  and  O_17 
ROOT
HETATM    1  O   UNK N   1      27.709  17.505   6.769  0.00  0.00    -0.346 OA
ENDROOT
BRANCH   1   2
HETATM    2  C   UNK N   1      27.386  18.691   6.172  0.00  0.00     0.085 A 
HETATM    3  C   UNK N   1      26.908  18.885   4.810  0.00  0.00     0.068 A 
HETATM    4  C   UNK N   1      26.627  20.204   4.382  0.00  0.00     0.081 A 
HETATM    5  C   UNK N   1      26.801  21.291   5.232  0.00  0.00     0.037 A 
HETATM    6  C   UNK N   1      27.256  21.104   6.527  0.00  0.00     0.005 A 
HETATM    7  C   UNK N   1      27.543  19.823   6.985  0.00  0.00     0.038 A 
BRANCH   3   8
HETATM    8  C   UNK N   1      26.660  17.851   3.754  0.00  0.00     0.275 C 
HETATM    9  O   UNK N   1      25.598  17.597   3.222  0.00  0.00    -0.301 OA
ENDBRANCH   3   8
BRANCH   4  10
HETATM   10  O   UNK N   1      26.183  20.433   3.130  0.00  0.00    -0.360 OA
HETATM   11  H   UNK N   1      25.825  21.270   2.907  0.00  0.00     0.217 HD
ENDBRANCH   4  10
ENDBRANCH   1   2
BRANCH   1  12
HETATM   12  C   UNK N   1      28.447  17.349   7.909  0.00  0.00     0.214 C 
BRANCH  12  13
HETATM   13  C   UNK N   1      29.928  17.435   7.747  0.00  0.00    -0.034 A 
HETATM   14  C   UNK N   1      30.455  16.980   6.537  0.00  0.00     0.010 A 
HETATM   15  C   UNK N   1      31.825  17.023   6.300  0.00  0.00     0.019 A 
HETATM   16  C   UNK N   1      32.693  17.524   7.273  0.00  0.00     0.037 A 
HETATM   17  C   UNK N   1      32.171  17.984   8.495  0.00  0.00     0.019 A 
HETATM   18  C   UNK N   1      30.787  17.940   8.733  0.00  0.00     0.010 A 
BRANCH  16  19
HETATM   19  C   UNK N   1      34.145  17.563   7.006  0.00  0.00     0.176 C 
HETATM   20  O   UNK N   1      34.833  18.457   7.482  0.00  0.00    -0.646 OA
BRANCH  19  21
HETATM   21  O   UNK N   1      34.725  16.620   6.241  0.00  0.00    -0.773 OA
HETATM   22  H   UNK N   1      35.613  16.724   5.961  0.00  0.00     0.167 HD
ENDBRANCH  19  21
ENDBRANCH  16  19
ENDBRANCH  12  13
ENDBRANCH   1  12
TORSDOF 7
ENDMDL
MODEL 9
REMARK VINA RESULT:      -6.1     12.411     14.829
REMARK  7 active torsions:
REMARK  status: ('A' for Active; 'I' for Inactive)
REMARK    1  A    between atoms: C_3  and  O_20 
REMARK    2  A    between atoms: C_4  and  C_18 
REMARK    3  A    between atoms: C_5  and  O_7 
REMARK    4  A    between atoms: O_7  and  C_8 
REMARK    5  A    between atoms: C_8  and  C_9 
REMARK    6  A    between atoms: C_12  and  C_15 
REMARK    7  A    between atoms: C_15  and  O_17 
ROOT
HETATM    1  O   UNK N   1      25.515  25.701  -6.075  0.00  0.00    -0.346 OA
ENDROOT
BRANCH   1   2
HETATM    2  C   UNK N   1      26.056  26.911  -5.742  0.00  0.00     0.085 A 
HETATM    3  C   UNK N   1      27.140  27.603  -6.425  0.00  0.00     0.068 A 
HETATM    4  C   UNK N   1      27.556  28.858  -5.918  0.00  0.00     0.081 A 
HETATM    5  C   UNK N   1      26.950  29.420  -4.799  0.00  0.00     0.037 A 
HETATM    6  C   UNK N   1      25.918  28.760  -4.152  0.00  0.00     0.005 A 
HETATM    7  C   UNK N   1      25.482  27.526  -4.620  0.00  0.00     0.038 A 
BRANCH   3   8
HETATM    8  C   UNK N   1      27.911  27.165  -7.632  0.00  0.00     0.275 C 
HETATM    9  O   UNK N   1      28.155  27.828  -8.619  0.00  0.00    -0.301 OA
ENDBRANCH   3   8
BRANCH   4  10
HETATM   10  O   UNK N   1      28.556  29.536  -6.515  0.00  0.00    -0.360 OA
HETATM   11  H   UNK N   1      28.375  30.342  -6.957  0.00  0.00     0.217 HD
ENDBRANCH   4  10
ENDBRANCH   1   2
BRANCH   1  12
HETATM   12  C   UNK N   1      25.516  24.575  -5.299  0.00  0.00     0.214 C 
BRANCH  12  13
HETATM   13  C   UNK N   1      26.826  24.198  -4.694  0.00  0.00    -0.034 A 
HETATM   14  C   UNK N   1      26.887  24.157  -3.301  0.00  0.00     0.010 A 
HETATM   15  C   UNK N   1      28.069  23.816  -2.652  0.00  0.00     0.019 A 
HETATM   16  C   UNK N   1      29.215  23.508  -3.390  0.00  0.00     0.037 A 
HETATM   17  C   UNK N   1      29.163  23.547  -4.796  0.00  0.00     0.019 A 
HETATM   18  C   UNK N   1      27.968  23.893  -5.449  0.00  0.00     0.010 A 
BRANCH  16  19
HETATM   19  C   UNK N   1      30.462  23.148  -2.687  0.00  0.00     0.176 C 
HETATM   20  O   UNK N   1      30.463  23.006  -1.471  0.00  0.00    -0.646 OA
BRANCH  19  21
HETATM   21  O   UNK N   1      31.606  22.971  -3.373  0.00  0.00    -0.773 OA
HETATM   22  H   UNK N   1      32.325  22.520  -2.976  0.00  0.00     0.167 HD
ENDBRANCH  19  21
ENDBRANCH  16  19
ENDBRANCH  12  13
ENDBRANCH   1  12
TORSDOF 7
ENDMDL
