MODEL 1
REMARK VINA RESULT:      -8.1      0.000      0.000
REMARK  14 active torsions:
REMARK  status: ('A' for Active; 'I' for Inactive)
REMARK    1  A    between atoms: C_2  and  C_3 
REMARK    2  A    between atoms: C_2  and  N_10 
REMARK       I    between atoms: C_3  and  N_5 
REMARK    3  A    between atoms: N_5  and  C_6 
REMARK    4  A    between atoms: C_6  and  C_7 
REMARK       I    between atoms: C_7  and  N_9 
REMARK       I    between atoms: N_10  and  C_11 
REMARK    5  A    between atoms: C_11  and  C_13 
REMARK    6  A    between atoms: C_13  and  N_14 
REMARK       I    between atoms: N_14  and  C_15 
REMARK    7  A    between atoms: C_17  and  C_15 
REMARK    8  A    between atoms: C_19  and  O_44 
REMARK       I    between atoms: N_21  and  C_22 
REMARK    9  A    between atoms: C_24  and  C_22 
REMARK       I    between atoms: N_28  and  C_29 
REMARK   10  A    between atoms: C_29  and  C_31 
REMARK   11  A    between atoms: C_31  and  C_32 
REMARK   12  A    between atoms: C_31  and  N_40 
REMARK   13  A    between atoms: C_32  and  C_33 
REMARK   14  A    between atoms: C_36  and  O_39 
REMARK       I    between atoms: N_40  and  C_41 
ROOT
HETATM    1  C   UNK N   1      21.512  12.422  10.059  0.00  0.00     0.181 C 
HETATM    2  C   UNK N   1      22.076  12.477  11.474  0.00  0.00     0.068 C 
HETATM    3  C   UNK N   1      23.404  11.752  11.370  0.00  0.00     0.138 C 
HETATM    4  C   UNK N   1      23.898  12.083   9.977  0.00  0.00     0.158 C 
HETATM    5  N   UNK N   1      22.674  12.196   9.230  0.00  0.00    -0.334 N 
HETATM    6  C   UNK N   1      22.618  12.034   7.875  0.00  0.00     0.243 C 
HETATM    7  O   UNK N   1      21.526  12.024   7.314  0.00  0.00    -0.271 OA
ENDROOT
BRANCH   1   8
HETATM    8  C   UNK N   1      20.802  13.725   9.745  0.00  0.00     0.241 C 
HETATM    9  N   UNK N   1      21.470  14.769   9.176  0.00  0.00    -0.351 N 
HETATM   10  H   UNK N   1      22.438  14.681   9.019  0.00  0.00     0.163 HD
HETATM   11  O   UNK N   1      19.604  13.816   9.969  0.00  0.00    -0.271 OA
BRANCH   9  12
HETATM   12  C   UNK N   1      20.812  16.006   8.791  0.00  0.00     0.225 C 
BRANCH  12  13
HETATM   13  C   UNK N   1      20.557  16.070   7.307  0.00  0.00     0.236 C 
HETATM   14  N   UNK N   1      20.477  14.925   6.584  0.00  0.00    -0.347 N 
HETATM   15  H   UNK N   1      20.494  14.052   7.040  0.00  0.00     0.163 HD
HETATM   16  O   UNK N   1      20.476  17.157   6.746  0.00  0.00    -0.272 OA
BRANCH  14  17
HETATM   17  C   UNK N   1      20.364  14.985   5.145  0.00  0.00     0.172 C 
HETATM   18  C   UNK N   1      20.782  13.679   4.487  0.00  0.00     0.042 C 
BRANCH  17  19
HETATM   19  C   UNK N   1      19.078  15.589   4.640  0.00  0.00     0.240 C 
HETATM   20  O   UNK N   1      18.032  15.190   5.120  0.00  0.00    -0.271 OA
HETATM   21  N   UNK N   1      19.033  16.597   3.730  0.00  0.00    -0.351 N 
HETATM   22  H   UNK N   1      18.147  16.928   3.458  0.00  0.00     0.163 HD
BRANCH  21  23
HETATM   23  C   UNK N   1      20.192  17.214   3.134  0.00  0.00     0.225 C 
BRANCH  23  24
HETATM   24  C   UNK N   1      19.774  18.384   2.296  0.00  0.00     0.233 C 
HETATM   25  O   UNK N   1      20.575  18.933   1.556  0.00  0.00    -0.272 OA
HETATM   26  N   UNK N   1      18.506  18.833   2.358  0.00  0.00    -0.369 N 
HETATM   27  H   UNK N   1      18.220  19.717   2.032  0.00  0.00     0.159 HD
HETATM   28  H   UNK N   1      17.824  18.242   2.753  0.00  0.00     0.159 HD
ENDBRANCH  23  24
ENDBRANCH  21  23
ENDBRANCH  17  19
ENDBRANCH  14  17
ENDBRANCH  12  13
ENDBRANCH   9  12
ENDBRANCH   1   8
BRANCH   6  29
HETATM   29  C   UNK N   1      23.881  11.881   7.045  0.00  0.00     0.179 C 
HETATM   30  C   UNK N   1      23.856  10.565   6.282  0.00  0.00     0.037 C 
HETATM   31  C   UNK N   1      24.259  10.894   4.851  0.00  0.00     0.022 C 
HETATM   32  C   UNK N   1      24.033  12.386   4.687  0.00  0.00     0.127 C 
HETATM   33  N   UNK N   1      23.995  12.899   6.025  0.00  0.00    -0.337 N 
HETATM   34  C   UNK N   1      24.147  14.232   6.321  0.00  0.00     0.243 C 
HETATM   35  O   UNK N   1      24.210  14.583   7.489  0.00  0.00    -0.271 OA
BRANCH  34  36
HETATM   36  C   UNK N   1      24.272  15.278   5.215  0.00  0.00     0.181 C 
BRANCH  36  37
HETATM   37  C   UNK N   1      23.897  16.699   5.689  0.00  0.00     0.073 C 
BRANCH  37  38
HETATM   38  C   UNK N   1      24.274  17.904   4.870  0.00  0.00    -0.056 A 
HETATM   39  C   UNK N   1      25.604  18.309   4.685  0.00  0.00     0.010 A 
HETATM   40  C   UNK N   1      25.907  19.344   3.791  0.00  0.00     0.037 A 
HETATM   41  C   UNK N   1      24.883  19.966   3.069  0.00  0.00     0.065 A 
HETATM   42  C   UNK N   1      23.558  19.571   3.256  0.00  0.00     0.037 A 
HETATM   43  C   UNK N   1      23.258  18.539   4.148  0.00  0.00     0.010 A 
BRANCH  41  44
HETATM   44  O   UNK N   1      25.170  20.936   2.188  0.00  0.00    -0.361 OA
HETATM   45  H   UNK N   1      25.720  21.653   2.434  0.00  0.00     0.217 HD
ENDBRANCH  41  44
ENDBRANCH  37  38
ENDBRANCH  36  37
BRANCH  36  46
HETATM   46  N   UNK N   1      25.653  15.305   4.773  0.00  0.00    -0.348 N 
HETATM   47  C   UNK N   1      26.047  15.200   3.478  0.00  0.00     0.214 C 
HETATM   48  O   UNK N   1      27.238  15.224   3.214  0.00  0.00    -0.274 OA
HETATM   49  C   UNK N   1      25.060  15.053   2.364  0.00  0.00     0.117 C 
HETATM   50  H   UNK N   1      26.351  15.405   5.458  0.00  0.00     0.163 HD
ENDBRANCH  36  46
ENDBRANCH  34  36
ENDBRANCH   6  29
BRANCH   3  51
HETATM   51  O   UNK N   1      24.294  12.194  12.347  0.00  0.00    -0.394 OA
HETATM   52  H   UNK N   1      24.845  11.794  13.037  0.00  0.00     0.210 HD
ENDBRANCH   3  51
TORSDOF 14
ENDMDL
MODEL 2
REMARK VINA RESULT:      -7.5      4.856     10.347
REMARK  14 active torsions:
REMARK  status: ('A' for Active; 'I' for Inactive)
REMARK    1  A    between atoms: C_2  and  C_3 
REMARK    2  A    between atoms: C_2  and  N_10 
REMARK       I    between atoms: C_3  and  N_5 
REMARK    3  A    between atoms: N_5  and  C_6 
REMARK    4  A    between atoms: C_6  and  C_7 
REMARK       I    between atoms: C_7  and  N_9 
REMARK       I    between atoms: N_10  and  C_11 
REMARK    5  A    between atoms: C_11  and  C_13 
REMARK    6  A    between atoms: C_13  and  N_14 
REMARK       I    between atoms: N_14  and  C_15 
REMARK    7  A    between atoms: C_17  and  C_15 
REMARK    8  A    between atoms: C_19  and  O_44 
REMARK       I    between atoms: N_21  and  C_22 
REMARK    9  A    between atoms: C_24  and  C_22 
REMARK       I    between atoms: N_28  and  C_29 
REMARK   10  A    between atoms: C_29  and  C_31 
REMARK   11  A    between atoms: C_31  and  C_32 
REMARK   12  A    between atoms: C_31  and  N_40 
REMARK   13  A    between atoms: C_32  and  C_33 
REMARK   14  A    between atoms: C_36  and  O_39 
REMARK       I    between atoms: N_40  and  C_41 
ROOT
HETATM    1  C   UNK N   1      27.384  18.603   3.792  0.00  0.00     0.181 C 
HETATM    2  C   UNK N   1      28.188  19.679   4.514  0.00  0.00     0.068 C 
HETATM    3  C   UNK N   1      27.134  20.628   5.052  0.00  0.00     0.138 C 
HETATM    4  C   UNK N   1      25.960  19.729   5.380  0.00  0.00     0.158 C 
HETATM    5  N   UNK N   1      26.069  18.697   4.384  0.00  0.00    -0.334 N 
HETATM    6  C   UNK N   1      25.006  17.933   3.993  0.00  0.00     0.243 C 
HETATM    7  O   UNK N   1      25.138  17.152   3.055  0.00  0.00    -0.271 OA
ENDROOT
BRANCH   1   8
HETATM    8  C   UNK N   1      28.037  17.251   4.008  0.00  0.00     0.241 C 
HETATM    9  N   UNK N   1      28.474  16.871   5.243  0.00  0.00    -0.351 N 
HETATM   10  H   UNK N   1      28.406  17.513   5.986  0.00  0.00     0.163 HD
HETATM   11  O   UNK N   1      28.130  16.481   3.064  0.00  0.00    -0.271 OA
BRANCH   9  12
HETATM   12  C   UNK N   1      29.037  15.558   5.507  0.00  0.00     0.225 C 
BRANCH  12  13
HETATM   13  C   UNK N   1      30.370  15.646   6.203  0.00  0.00     0.236 C 
HETATM   14  N   UNK N   1      30.963  16.854   6.378  0.00  0.00    -0.347 N 
HETATM   15  H   UNK N   1      30.484  17.679   6.133  0.00  0.00     0.163 HD
HETATM   16  O   UNK N   1      30.943  14.624   6.563  0.00  0.00    -0.272 OA
BRANCH  14  17
HETATM   17  C   UNK N   1      32.298  16.931   6.926  0.00  0.00     0.172 C 
HETATM   18  C   UNK N   1      33.292  17.498   5.924  0.00  0.00     0.042 C 
BRANCH  17  19
HETATM   19  C   UNK N   1      32.375  17.505   8.318  0.00  0.00     0.240 C 
HETATM   20  O   UNK N   1      31.525  18.313   8.649  0.00  0.00    -0.271 OA
HETATM   21  N   UNK N   1      33.298  17.118   9.237  0.00  0.00    -0.351 N 
HETATM   22  H   UNK N   1      33.272  17.549  10.121  0.00  0.00     0.163 HD
BRANCH  21  23
HETATM   23  C   UNK N   1      34.314  16.121   9.005  0.00  0.00     0.225 C 
BRANCH  23  24
HETATM   24  C   UNK N   1      35.364  16.206  10.072  0.00  0.00     0.233 C 
HETATM   25  O   UNK N   1      35.694  17.287  10.531  0.00  0.00    -0.272 OA
HETATM   26  N   UNK N   1      35.946  15.080  10.528  0.00  0.00    -0.369 N 
HETATM   27  H   UNK N   1      36.788  15.067  11.039  0.00  0.00     0.159 HD
HETATM   28  H   UNK N   1      35.504  14.221  10.340  0.00  0.00     0.159 HD
ENDBRANCH  23  24
ENDBRANCH  21  23
ENDBRANCH  17  19
ENDBRANCH  14  17
ENDBRANCH  12  13
ENDBRANCH   9  12
ENDBRANCH   1   8
BRANCH   6  29
HETATM   29  C   UNK N   1      23.668  18.017   4.706  0.00  0.00     0.179 C 
HETATM   30  C   UNK N   1      22.654  18.754   3.843  0.00  0.00     0.037 C 
HETATM   31  C   UNK N   1      21.384  17.916   3.867  0.00  0.00     0.022 C 
HETATM   32  C   UNK N   1      21.811  16.525   4.304  0.00  0.00     0.127 C 
HETATM   33  N   UNK N   1      23.083  16.715   4.935  0.00  0.00    -0.337 N 
HETATM   34  C   UNK N   1      23.657  15.779   5.761  0.00  0.00     0.243 C 
HETATM   35  O   UNK N   1      24.692  16.052   6.348  0.00  0.00    -0.271 OA
BRANCH  34  36
HETATM   36  C   UNK N   1      23.005  14.416   5.984  0.00  0.00     0.181 C 
BRANCH  36  37
HETATM   37  C   UNK N   1      24.004  13.347   6.478  0.00  0.00     0.073 C 
BRANCH  37  38
HETATM   38  C   UNK N   1      24.127  13.034   7.944  0.00  0.00    -0.056 A 
HETATM   39  C   UNK N   1      23.402  12.004   8.563  0.00  0.00     0.010 A 
HETATM   40  C   UNK N   1      23.668  11.658   9.895  0.00  0.00     0.037 A 
HETATM   41  C   UNK N   1      24.669  12.330  10.605  0.00  0.00     0.065 A 
HETATM   42  C   UNK N   1      25.386  13.360   9.996  0.00  0.00     0.037 A 
HETATM   43  C   UNK N   1      25.119  13.704   8.669  0.00  0.00     0.010 A 
BRANCH  41  44
HETATM   44  O   UNK N   1      24.949  11.982  11.870  0.00  0.00    -0.361 OA
HETATM   45  H   UNK N   1      25.786  11.624  12.090  0.00  0.00     0.217 HD
ENDBRANCH  41  44
ENDBRANCH  37  38
ENDBRANCH  36  37
BRANCH  36  46
HETATM   46  N   UNK N   1      21.976  14.566   6.994  0.00  0.00    -0.348 N 
HETATM   47  C   UNK N   1      20.729  14.040   6.905  0.00  0.00     0.214 C 
HETATM   48  O   UNK N   1      19.934  14.235   7.810  0.00  0.00    -0.274 OA
HETATM   49  C   UNK N   1      20.299  13.227   5.726  0.00  0.00     0.117 C 
HETATM   50  H   UNK N   1      22.198  15.087   7.799  0.00  0.00     0.163 HD
ENDBRANCH  36  46
ENDBRANCH  34  36
ENDBRANCH   6  29
BRANCH   3  51
HETATM   51  O   UNK N   1      27.595  21.299   6.183  0.00  0.00    -0.394 OA
HETATM   52  H   UNK N   1      27.283  21.464   7.086  0.00  0.00     0.210 HD
ENDBRANCH   3  51
TORSDOF 14
ENDMDL
MODEL 3
REMARK VINA RESULT:      -7.5      2.462      4.456
REMARK  14 active torsions:
REMARK  status: ('A' for Active; 'I' for Inactive)
REMARK    1  A    between atoms: C_2  and  C_3 
REMARK    2  A    between atoms: C_2  and  N_10 
REMARK       I    between atoms: C_3  and  N_5 
REMARK    3  A    between atoms: N_5  and  C_6 
REMARK    4  A    between atoms: C_6  and  C_7 
REMARK       I    between atoms: C_7  and  N_9 
REMARK       I    between atoms: N_10  and  C_11 
REMARK    5  A    between atoms: C_11  and  C_13 
REMARK    6  A    between atoms: C_13  and  N_14 
REMARK       I    between atoms: N_14  and  C_15 
REMARK    7  A    between atoms: C_17  and  C_15 
REMARK    8  A    between atoms: C_19  and  O_44 
REMARK       I    between atoms: N_21  and  C_22 
REMARK    9  A    between atoms: C_24  and  C_22 
REMARK       I    between atoms: N_28  and  C_29 
REMARK   10  A    between atoms: C_29  and  C_31 
REMARK   11  A    between atoms: C_31  and  C_32 
REMARK   12  A    between atoms: C_31  and  N_40 
REMARK   13  A    between atoms: C_32  and  C_33 
REMARK   14  A    between atoms: C_36  and  O_39 
REMARK       I    between atoms: N_40  and  C_41 
ROOT
HETATM    1  C   UNK N   1      21.055  13.209   8.727  0.00  0.00     0.181 C 
HETATM    2  C   UNK N   1      21.892  13.481   9.971  0.00  0.00     0.068 C 
HETATM    3  C   UNK N   1      22.857  12.313  10.029  0.00  0.00     0.138 C 
HETATM    4  C   UNK N   1      23.126  11.984   8.575  0.00  0.00     0.158 C 
HETATM    5  N   UNK N   1      21.878  12.316   7.943  0.00  0.00    -0.334 N 
HETATM    6  C   UNK N   1      21.487  11.776   6.750  0.00  0.00     0.243 C 
HETATM    7  O   UNK N   1      20.359  12.009   6.325  0.00  0.00    -0.271 OA
ENDROOT
BRANCH   1   8
HETATM    8  C   UNK N   1      20.759  14.518   8.019  0.00  0.00     0.241 C 
HETATM    9  N   UNK N   1      21.564  14.972   7.015  0.00  0.00    -0.351 N 
HETATM   10  H   UNK N   1      22.374  14.459   6.792  0.00  0.00     0.163 HD
HETATM   11  O   UNK N   1      19.758  15.146   8.330  0.00  0.00    -0.271 OA
BRANCH   9  12
HETATM   12  C   UNK N   1      21.276  16.180   6.263  0.00  0.00     0.225 C 
BRANCH  12  13
HETATM   13  C   UNK N   1      22.533  16.908   5.863  0.00  0.00     0.236 C 
HETATM   14  N   UNK N   1      23.632  16.206   5.489  0.00  0.00    -0.347 N 
HETATM   15  H   UNK N   1      23.582  15.227   5.392  0.00  0.00     0.163 HD
HETATM   16  O   UNK N   1      22.579  18.131   5.927  0.00  0.00    -0.272 OA
BRANCH  14  17
HETATM   17  C   UNK N   1      24.876  16.893   5.231  0.00  0.00     0.172 C 
HETATM   18  C   UNK N   1      26.017  16.336   6.068  0.00  0.00     0.042 C 
BRANCH  17  19
HETATM   19  C   UNK N   1      25.182  17.114   3.772  0.00  0.00     0.240 C 
HETATM   20  O   UNK N   1      25.400  16.134   3.080  0.00  0.00    -0.271 OA
HETATM   21  N   UNK N   1      25.162  18.337   3.180  0.00  0.00    -0.351 N 
HETATM   22  H   UNK N   1      25.377  18.384   2.220  0.00  0.00     0.163 HD
BRANCH  21  23
HETATM   23  C   UNK N   1      24.850  19.569   3.860  0.00  0.00     0.225 C 
BRANCH  23  24
HETATM   24  C   UNK N   1      23.590  20.156   3.298  0.00  0.00     0.233 C 
HETATM   25  O   UNK N   1      23.580  21.297   2.862  0.00  0.00    -0.272 OA
HETATM   26  N   UNK N   1      22.462  19.421   3.273  0.00  0.00    -0.369 N 
HETATM   27  H   UNK N   1      21.562  19.802   3.146  0.00  0.00     0.159 HD
HETATM   28  H   UNK N   1      22.542  18.447   3.388  0.00  0.00     0.159 HD
ENDBRANCH  23  24
ENDBRANCH  21  23
ENDBRANCH  17  19
ENDBRANCH  14  17
ENDBRANCH  12  13
ENDBRANCH   9  12
ENDBRANCH   1   8
BRANCH   6  29
HETATM   29  C   UNK N   1      22.425  10.908   5.931  0.00  0.00     0.179 C 
HETATM   30  C   UNK N   1      21.858   9.503   5.791  0.00  0.00     0.037 C 
HETATM   31  C   UNK N   1      21.988   9.136   4.319  0.00  0.00     0.022 C 
HETATM   32  C   UNK N   1      22.152  10.449   3.575  0.00  0.00     0.127 C 
HETATM   33  N   UNK N   1      22.574  11.385   4.575  0.00  0.00    -0.337 N 
HETATM   34  C   UNK N   1      23.153  12.593   4.272  0.00  0.00     0.243 C 
HETATM   35  O   UNK N   1      23.584  13.294   5.176  0.00  0.00    -0.271 OA
BRANCH  34  36
HETATM   36  C   UNK N   1      23.300  13.061   2.826  0.00  0.00     0.181 C 
BRANCH  36  37
HETATM   37  C   UNK N   1      22.596  14.409   2.557  0.00  0.00     0.073 C 
BRANCH  37  38
HETATM   38  C   UNK N   1      21.367  14.471   1.692  0.00  0.00    -0.056 A 
HETATM   39  C   UNK N   1      20.596  13.340   1.386  0.00  0.00     0.010 A 
HETATM   40  C   UNK N   1      19.379  13.479   0.705  0.00  0.00     0.037 A 
HETATM   41  C   UNK N   1      18.924  14.751   0.340  0.00  0.00     0.065 A 
HETATM   42  C   UNK N   1      19.692  15.878   0.635  0.00  0.00     0.037 A 
HETATM   43  C   UNK N   1      20.904  15.737   1.315  0.00  0.00     0.010 A 
BRANCH  41  44
HETATM   44  O   UNK N   1      17.746  14.893  -0.285  0.00  0.00    -0.361 OA
HETATM   45  H   UNK N   1      17.494  14.300  -0.965  0.00  0.00     0.217 HD
ENDBRANCH  41  44
ENDBRANCH  37  38
ENDBRANCH  36  37
BRANCH  36  46
HETATM   46  N   UNK N   1      24.712  13.230   2.546  0.00  0.00    -0.348 N 
HETATM   47  C   UNK N   1      25.443  12.403   1.757  0.00  0.00     0.214 C 
HETATM   48  O   UNK N   1      26.631  12.631   1.594  0.00  0.00    -0.274 OA
HETATM   49  C   UNK N   1      24.833  11.216   1.081  0.00  0.00     0.117 C 
HETATM   50  H   UNK N   1      25.171  13.997   2.957  0.00  0.00     0.163 HD
ENDBRANCH  36  46
ENDBRANCH  34  36
ENDBRANCH   6  29
BRANCH   3  51
HETATM   51  O   UNK N   1      24.028  12.663  10.699  0.00  0.00    -0.394 OA
HETATM   52  H   UNK N   1      24.276  12.939  11.594  0.00  0.00     0.210 HD
ENDBRANCH   3  51
TORSDOF 14
ENDMDL
MODEL 4
REMARK VINA RESULT:      -7.5      2.367      7.450
REMARK  14 active torsions:
REMARK  status: ('A' for Active; 'I' for Inactive)
REMARK    1  A    between atoms: C_2  and  C_3 
REMARK    2  A    between atoms: C_2  and  N_10 
REMARK       I    between atoms: C_3  and  N_5 
REMARK    3  A    between atoms: N_5  and  C_6 
REMARK    4  A    between atoms: C_6  and  C_7 
REMARK       I    between atoms: C_7  and  N_9 
REMARK       I    between atoms: N_10  and  C_11 
REMARK    5  A    between atoms: C_11  and  C_13 
REMARK    6  A    between atoms: C_13  and  N_14 
REMARK       I    between atoms: N_14  and  C_15 
REMARK    7  A    between atoms: C_17  and  C_15 
REMARK    8  A    between atoms: C_19  and  O_44 
REMARK       I    between atoms: N_21  and  C_22 
REMARK    9  A    between atoms: C_24  and  C_22 
REMARK       I    between atoms: N_28  and  C_29 
REMARK   10  A    between atoms: C_29  and  C_31 
REMARK   11  A    between atoms: C_31  and  C_32 
REMARK   12  A    between atoms: C_31  and  N_40 
REMARK   13  A    between atoms: C_32  and  C_33 
REMARK   14  A    between atoms: C_36  and  O_39 
REMARK       I    between atoms: N_40  and  C_41 
ROOT
HETATM    1  C   UNK N   1      20.111  14.483   1.238  0.00  0.00     0.181 C 
HETATM    2  C   UNK N   1      18.769  14.263   0.550  0.00  0.00     0.068 C 
HETATM    3  C   UNK N   1      18.410  12.830   0.893  0.00  0.00     0.138 C 
HETATM    4  C   UNK N   1      18.977  12.629   2.283  0.00  0.00     0.158 C 
HETATM    5  N   UNK N   1      20.143  13.471   2.269  0.00  0.00    -0.334 N 
HETATM    6  C   UNK N   1      21.204  13.277   3.107  0.00  0.00     0.243 C 
HETATM    7  O   UNK N   1      22.218  13.955   2.964  0.00  0.00    -0.271 OA
ENDROOT
BRANCH   1   8
HETATM    8  C   UNK N   1      20.172  15.895   1.791  0.00  0.00     0.241 C 
HETATM    9  N   UNK N   1      20.124  16.127   3.134  0.00  0.00    -0.351 N 
HETATM   10  H   UNK N   1      19.995  15.362   3.740  0.00  0.00     0.163 HD
HETATM   11  O   UNK N   1      20.311  16.829   1.014  0.00  0.00    -0.271 OA
BRANCH   9  12
HETATM   12  C   UNK N   1      20.254  17.455   3.707  0.00  0.00     0.225 C 
BRANCH  12  13
HETATM   13  C   UNK N   1      21.633  17.696   4.262  0.00  0.00     0.236 C 
HETATM   14  N   UNK N   1      22.640  16.834   3.970  0.00  0.00    -0.347 N 
HETATM   15  H   UNK N   1      22.493  16.104   3.326  0.00  0.00     0.163 HD
HETATM   16  O   UNK N   1      21.833  18.639   5.018  0.00  0.00    -0.272 OA
BRANCH  14  17
HETATM   17  C   UNK N   1      23.929  16.988   4.605  0.00  0.00     0.172 C 
HETATM   18  C   UNK N   1      24.139  15.975   5.719  0.00  0.00     0.042 C 
BRANCH  17  19
HETATM   19  C   UNK N   1      25.084  17.156   3.649  0.00  0.00     0.240 C 
HETATM   20  O   UNK N   1      25.484  16.169   3.058  0.00  0.00    -0.271 OA
HETATM   21  N   UNK N   1      25.652  18.358   3.368  0.00  0.00    -0.351 N 
HETATM   22  H   UNK N   1      26.403  18.371   2.732  0.00  0.00     0.163 HD
BRANCH  21  23
HETATM   23  C   UNK N   1      25.233  19.614   3.939  0.00  0.00     0.225 C 
BRANCH  23  24
HETATM   24  C   UNK N   1      24.500  20.422   2.909  0.00  0.00     0.233 C 
HETATM   25  O   UNK N   1      25.108  20.960   1.998  0.00  0.00    -0.272 OA
HETATM   26  N   UNK N   1      23.163  20.555   2.991  0.00  0.00    -0.369 N 
HETATM   27  H   UNK N   1      22.650  21.244   2.509  0.00  0.00     0.159 HD
HETATM   28  H   UNK N   1      22.669  19.926   3.565  0.00  0.00     0.159 HD
ENDBRANCH  23  24
ENDBRANCH  21  23
ENDBRANCH  17  19
ENDBRANCH  14  17
ENDBRANCH  12  13
ENDBRANCH   9  12
ENDBRANCH   1   8
BRANCH   6  29
HETATM   29  C   UNK N   1      21.150  12.251   4.226  0.00  0.00     0.179 C 
HETATM   30  C   UNK N   1      22.247  11.212   4.044  0.00  0.00     0.037 C 
HETATM   31  C   UNK N   1      22.914  11.055   5.404  0.00  0.00     0.022 C 
HETATM   32  C   UNK N   1      22.553  12.301   6.192  0.00  0.00     0.127 C 
HETATM   33  N   UNK N   1      21.404  12.836   5.523  0.00  0.00    -0.337 N 
HETATM   34  C   UNK N   1      20.564  13.759   6.098  0.00  0.00     0.243 C 
HETATM   35  O   UNK N   1      19.546  14.091   5.509  0.00  0.00    -0.271 OA
BRANCH  34  36
HETATM   36  C   UNK N   1      20.862  14.350   7.475  0.00  0.00     0.181 C 
BRANCH  36  37
HETATM   37  C   UNK N   1      22.181  13.822   8.080  0.00  0.00     0.073 C 
BRANCH  37  38
HETATM   38  C   UNK N   1      22.211  13.262   9.477  0.00  0.00    -0.056 A 
HETATM   39  C   UNK N   1      21.047  12.989  10.210  0.00  0.00     0.010 A 
HETATM   40  C   UNK N   1      21.130  12.327  11.442  0.00  0.00     0.037 A 
HETATM   41  C   UNK N   1      22.375  11.926  11.937  0.00  0.00     0.065 A 
HETATM   42  C   UNK N   1      23.537  12.203  11.215  0.00  0.00     0.037 A 
HETATM   43  C   UNK N   1      23.452  12.862   9.987  0.00  0.00     0.010 A 
BRANCH  41  44
HETATM   44  O   UNK N   1      22.458  11.264  13.102  0.00  0.00    -0.361 OA
HETATM   45  H   UNK N   1      22.262  11.697  13.909  0.00  0.00     0.217 HD
ENDBRANCH  41  44
ENDBRANCH  37  38
ENDBRANCH  36  37
BRANCH  36  46
HETATM   46  N   UNK N   1      20.978  15.788   7.334  0.00  0.00    -0.348 N 
HETATM   47  C   UNK N   1      20.261  16.690   8.049  0.00  0.00     0.214 C 
HETATM   48  O   UNK N   1      20.429  17.881   7.845  0.00  0.00    -0.274 OA
HETATM   49  C   UNK N   1      19.266  16.265   9.082  0.00  0.00     0.117 C 
HETATM   50  H   UNK N   1      21.621  16.132   6.673  0.00  0.00     0.163 HD
ENDBRANCH  36  46
ENDBRANCH  34  36
ENDBRANCH   6  29
BRANCH   3  51
HETATM   51  O   UNK N   1      17.029  12.641   0.873  0.00  0.00    -0.394 OA
HETATM   52  H   UNK N   1      16.394  12.108   0.369  0.00  0.00     0.210 HD
ENDBRANCH   3  51
TORSDOF 14
ENDMDL
MODEL 5
REMARK VINA RESULT:      -7.4      2.624      7.406
REMARK  14 active torsions:
REMARK  status: ('A' for Active; 'I' for Inactive)
REMARK    1  A    between atoms: C_2  and  C_3 
REMARK    2  A    between atoms: C_2  and  N_10 
REMARK       I    between atoms: C_3  and  N_5 
REMARK    3  A    between atoms: N_5  and  C_6 
REMARK    4  A    between atoms: C_6  and  C_7 
REMARK       I    between atoms: C_7  and  N_9 
REMARK       I    between atoms: N_10  and  C_11 
REMARK    5  A    between atoms: C_11  and  C_13 
REMARK    6  A    between atoms: C_13  and  N_14 
REMARK       I    between atoms: N_14  and  C_15 
REMARK    7  A    between atoms: C_17  and  C_15 
REMARK    8  A    between atoms: C_19  and  O_44 
REMARK       I    between atoms: N_21  and  C_22 
REMARK    9  A    between atoms: C_24  and  C_22 
REMARK       I    between atoms: N_28  and  C_29 
REMARK   10  A    between atoms: C_29  and  C_31 
REMARK   11  A    between atoms: C_31  and  C_32 
REMARK   12  A    between atoms: C_31  and  N_40 
REMARK   13  A    between atoms: C_32  and  C_33 
REMARK   14  A    between atoms: C_36  and  O_39 
REMARK       I    between atoms: N_40  and  C_41 
ROOT
HETATM    1  C   UNK N   1      28.461  16.679   5.732  0.00  0.00     0.181 C 
HETATM    2  C   UNK N   1      29.097  16.793   7.113  0.00  0.00     0.068 C 
HETATM    3  C   UNK N   1      29.051  18.278   7.418  0.00  0.00     0.138 C 
HETATM    4  C   UNK N   1      27.777  18.754   6.753  0.00  0.00     0.158 C 
HETATM    5  N   UNK N   1      27.679  17.888   5.608  0.00  0.00    -0.334 N 
HETATM    6  C   UNK N   1      26.971  18.221   4.489  0.00  0.00     0.243 C 
HETATM    7  O   UNK N   1      27.026  17.492   3.502  0.00  0.00    -0.271 OA
ENDROOT
BRANCH   1   8
HETATM    8  C   UNK N   1      27.620  15.418   5.664  0.00  0.00     0.241 C 
HETATM    9  N   UNK N   1      26.287  15.447   5.949  0.00  0.00    -0.351 N 
HETATM   10  H   UNK N   1      25.888  16.293   6.254  0.00  0.00     0.163 HD
HETATM   11  O   UNK N   1      28.146  14.375   5.303  0.00  0.00    -0.271 OA
BRANCH   9  12
HETATM   12  C   UNK N   1      25.432  14.279   5.824  0.00  0.00     0.225 C 
BRANCH  12  13
HETATM   13  C   UNK N   1      24.359  14.250   6.882  0.00  0.00     0.236 C 
HETATM   14  N   UNK N   1      23.071  14.513   6.546  0.00  0.00    -0.347 N 
HETATM   15  H   UNK N   1      22.822  14.634   5.601  0.00  0.00     0.163 HD
HETATM   16  O   UNK N   1      24.658  14.041   8.051  0.00  0.00    -0.272 OA
BRANCH  14  17
HETATM   17  C   UNK N   1      22.062  14.615   7.575  0.00  0.00     0.172 C 
HETATM   18  C   UNK N   1      21.249  15.894   7.450  0.00  0.00     0.042 C 
BRANCH  17  19
HETATM   19  C   UNK N   1      21.268  13.355   7.804  0.00  0.00     0.240 C 
HETATM   20  O   UNK N   1      20.687  12.866   6.851  0.00  0.00    -0.271 OA
HETATM   21  N   UNK N   1      21.222  12.706   8.997  0.00  0.00    -0.351 N 
HETATM   22  H   UNK N   1      20.675  11.889   9.053  0.00  0.00     0.163 HD
BRANCH  21  23
HETATM   23  C   UNK N   1      21.918  13.131  10.186  0.00  0.00     0.225 C 
BRANCH  23  24
HETATM   24  C   UNK N   1      23.040  12.182  10.487  0.00  0.00     0.233 C 
HETATM   25  O   UNK N   1      23.375  11.966  11.641  0.00  0.00    -0.272 OA
HETATM   26  N   UNK N   1      23.683  11.564   9.478  0.00  0.00    -0.369 N 
HETATM   27  H   UNK N   1      24.559  11.125   9.573  0.00  0.00     0.159 HD
HETATM   28  H   UNK N   1      23.250  11.550   8.593  0.00  0.00     0.159 HD
ENDBRANCH  23  24
ENDBRANCH  21  23
ENDBRANCH  17  19
ENDBRANCH  14  17
ENDBRANCH  12  13
ENDBRANCH   9  12
ENDBRANCH   1   8
BRANCH   6  29
HETATM   29  C   UNK N   1      26.101  19.465   4.445  0.00  0.00     0.179 C 
HETATM   30  C   UNK N   1      26.782  20.557   3.634  0.00  0.00     0.037 C 
HETATM   31  C   UNK N   1      25.724  21.108   2.687  0.00  0.00     0.022 C 
HETATM   32  C   UNK N   1      24.642  20.045   2.609  0.00  0.00     0.127 C 
HETATM   33  N   UNK N   1      24.842  19.233   3.773  0.00  0.00    -0.337 N 
HETATM   34  C   UNK N   1      23.887  18.375   4.261  0.00  0.00     0.243 C 
HETATM   35  O   UNK N   1      24.087  17.794   5.317  0.00  0.00    -0.271 OA
BRANCH  34  36
HETATM   36  C   UNK N   1      22.565  18.162   3.526  0.00  0.00     0.181 C 
BRANCH  36  37
HETATM   37  C   UNK N   1      21.988  16.744   3.730  0.00  0.00     0.073 C 
BRANCH  37  38
HETATM   38  C   UNK N   1      22.303  15.643   2.754  0.00  0.00    -0.056 A 
HETATM   39  C   UNK N   1      21.385  15.195   1.793  0.00  0.00     0.010 A 
HETATM   40  C   UNK N   1      21.782  14.276   0.813  0.00  0.00     0.037 A 
HETATM   41  C   UNK N   1      23.103  13.814   0.783  0.00  0.00     0.065 A 
HETATM   42  C   UNK N   1      24.017  14.251   1.741  0.00  0.00     0.037 A 
HETATM   43  C   UNK N   1      23.619  15.167   2.717  0.00  0.00     0.010 A 
BRANCH  41  44
HETATM   44  O   UNK N   1      23.497  12.958  -0.172  0.00  0.00    -0.361 OA
HETATM   45  H   UNK N   1      23.801  13.276  -0.999  0.00  0.00     0.217 HD
ENDBRANCH  41  44
ENDBRANCH  37  38
ENDBRANCH  36  37
BRANCH  36  46
HETATM   46  N   UNK N   1      21.602  19.115   4.042  0.00  0.00    -0.348 N 
HETATM   47  C   UNK N   1      20.900  19.989   3.278  0.00  0.00     0.214 C 
HETATM   48  O   UNK N   1      20.120  20.757   3.815  0.00  0.00    -0.274 OA
HETATM   49  C   UNK N   1      21.059  20.038   1.791  0.00  0.00     0.117 C 
HETATM   50  H   UNK N   1      21.448  19.129   5.014  0.00  0.00     0.163 HD
ENDBRANCH  36  46
ENDBRANCH  34  36
ENDBRANCH   6  29
BRANCH   3  51
HETATM   51  O   UNK N   1      29.027  18.507   8.792  0.00  0.00    -0.394 OA
HETATM   52  H   UNK N   1      28.377  18.447   9.509  0.00  0.00     0.210 HD
ENDBRANCH   3  51
TORSDOF 14
ENDMDL
MODEL 6
REMARK VINA RESULT:      -7.3      6.448     11.156
REMARK  14 active torsions:
REMARK  status: ('A' for Active; 'I' for Inactive)
REMARK    1  A    between atoms: C_2  and  C_3 
REMARK    2  A    between atoms: C_2  and  N_10 
REMARK       I    between atoms: C_3  and  N_5 
REMARK    3  A    between atoms: N_5  and  C_6 
REMARK    4  A    between atoms: C_6  and  C_7 
REMARK       I    between atoms: C_7  and  N_9 
REMARK       I    between atoms: N_10  and  C_11 
REMARK    5  A    between atoms: C_11  and  C_13 
REMARK    6  A    between atoms: C_13  and  N_14 
REMARK       I    between atoms: N_14  and  C_15 
REMARK    7  A    between atoms: C_17  and  C_15 
REMARK    8  A    between atoms: C_19  and  O_44 
REMARK       I    between atoms: N_21  and  C_22 
REMARK    9  A    between atoms: C_24  and  C_22 
REMARK       I    between atoms: N_28  and  C_29 
REMARK   10  A    between atoms: C_29  and  C_31 
REMARK   11  A    between atoms: C_31  and  C_32 
REMARK   12  A    between atoms: C_31  and  N_40 
REMARK   13  A    between atoms: C_32  and  C_33 
REMARK   14  A    between atoms: C_36  and  O_39 
REMARK       I    between atoms: N_40  and  C_41 
ROOT
HETATM    1  C   UNK N   1      30.173  13.408   3.583  0.00  0.00     0.181 C 
HETATM    2  C   UNK N   1      30.682  12.809   2.277  0.00  0.00     0.068 C 
HETATM    3  C   UNK N   1      29.419  12.520   1.488  0.00  0.00     0.138 C 
HETATM    4  C   UNK N   1      28.469  13.628   1.891  0.00  0.00     0.158 C 
HETATM    5  N   UNK N   1      28.848  13.885   3.255  0.00  0.00    -0.334 N 
HETATM    6  C   UNK N   1      28.004  14.460   4.161  0.00  0.00     0.243 C 
HETATM    7  O   UNK N   1      28.347  14.542   5.337  0.00  0.00    -0.271 OA
ENDROOT
BRANCH   1   8
HETATM    8  C   UNK N   1      31.108  14.515   4.032  0.00  0.00     0.241 C 
HETATM    9  N   UNK N   1      31.516  14.606   5.331  0.00  0.00    -0.351 N 
HETATM   10  H   UNK N   1      31.150  13.970   5.986  0.00  0.00     0.163 HD
HETATM   11  O   UNK N   1      31.531  15.306   3.202  0.00  0.00    -0.271 OA
BRANCH   9  12
HETATM   12  C   UNK N   1      32.468  15.604   5.786  0.00  0.00     0.225 C 
BRANCH  12  13
HETATM   13  C   UNK N   1      33.093  15.226   7.104  0.00  0.00     0.236 C 
HETATM   14  N   UNK N   1      34.325  15.695   7.427  0.00  0.00    -0.347 N 
HETATM   15  H   UNK N   1      34.772  16.351   6.844  0.00  0.00     0.163 HD
HETATM   16  O   UNK N   1      32.513  14.454   7.859  0.00  0.00    -0.272 OA
BRANCH  14  17
HETATM   17  C   UNK N   1      34.983  15.231   8.627  0.00  0.00     0.172 C 
HETATM   18  C   UNK N   1      36.313  14.560   8.323  0.00  0.00     0.042 C 
BRANCH  17  19
HETATM   19  C   UNK N   1      34.996  16.225   9.761  0.00  0.00     0.240 C 
HETATM   20  O   UNK N   1      35.182  17.398   9.489  0.00  0.00    -0.271 OA
HETATM   21  N   UNK N   1      34.747  15.888  11.053  0.00  0.00    -0.351 N 
HETATM   22  H   UNK N   1      34.778  16.605  11.727  0.00  0.00     0.163 HD
BRANCH  21  23
HETATM   23  C   UNK N   1      34.441  14.553  11.506  0.00  0.00     0.225 C 
BRANCH  23  24
HETATM   24  C   UNK N   1      35.373  14.165  12.615  0.00  0.00     0.233 C 
HETATM   25  O   UNK N   1      34.964  13.529  13.573  0.00  0.00    -0.272 OA
HETATM   26  N   UNK N   1      36.671  14.520  12.553  0.00  0.00    -0.369 N 
HETATM   27  H   UNK N   1      37.279  14.513  13.329  0.00  0.00     0.159 HD
HETATM   28  H   UNK N   1      37.033  14.803  11.682  0.00  0.00     0.159 HD
ENDBRANCH  23  24
ENDBRANCH  21  23
ENDBRANCH  17  19
ENDBRANCH  14  17
ENDBRANCH  12  13
ENDBRANCH   9  12
ENDBRANCH   1   8
BRANCH   6  29
HETATM   29  C   UNK N   1      26.655  15.017   3.740  0.00  0.00     0.179 C 
HETATM   30  C   UNK N   1      25.531  14.147   4.284  0.00  0.00     0.037 C 
HETATM   31  C   UNK N   1      24.513  15.099   4.896  0.00  0.00     0.022 C 
HETATM   32  C   UNK N   1      25.254  16.401   5.140  0.00  0.00     0.127 C 
HETATM   33  N   UNK N   1      26.406  16.331   4.290  0.00  0.00    -0.337 N 
HETATM   34  C   UNK N   1      27.156  17.431   3.952  0.00  0.00     0.243 C 
HETATM   35  O   UNK N   1      28.060  17.312   3.139  0.00  0.00    -0.271 OA
BRANCH  34  36
HETATM   36  C   UNK N   1      26.858  18.805   4.548  0.00  0.00     0.181 C 
BRANCH  36  37
HETATM   37  C   UNK N   1      28.013  19.343   5.420  0.00  0.00     0.073 C 
BRANCH  37  38
HETATM   38  C   UNK N   1      28.439  18.611   6.663  0.00  0.00    -0.056 A 
HETATM   39  C   UNK N   1      29.519  17.717   6.685  0.00  0.00     0.010 A 
HETATM   40  C   UNK N   1      29.966  17.180   7.900  0.00  0.00     0.037 A 
HETATM   41  C   UNK N   1      29.343  17.548   9.097  0.00  0.00     0.065 A 
HETATM   42  C   UNK N   1      28.262  18.430   9.079  0.00  0.00     0.037 A 
HETATM   43  C   UNK N   1      27.818  18.964   7.867  0.00  0.00     0.010 A 
BRANCH  41  44
HETATM   44  O   UNK N   1      29.787  17.062  10.266  0.00  0.00    -0.361 OA
HETATM   45  H   UNK N   1      30.285  16.269  10.292  0.00  0.00     0.217 HD
ENDBRANCH  41  44
ENDBRANCH  37  38
ENDBRANCH  36  37
BRANCH  36  46
HETATM   46  N   UNK N   1      26.650  19.736   3.457  0.00  0.00    -0.348 N 
HETATM   47  C   UNK N   1      25.434  20.157   3.027  0.00  0.00     0.214 C 
HETATM   48  O   UNK N   1      25.370  20.937   2.091  0.00  0.00    -0.274 OA
HETATM   49  C   UNK N   1      24.166  19.689   3.668  0.00  0.00     0.117 C 
HETATM   50  H   UNK N   1      27.446  20.086   2.995  0.00  0.00     0.163 HD
ENDBRANCH  36  46
ENDBRANCH  34  36
ENDBRANCH   6  29
BRANCH   3  51
HETATM   51  O   UNK N   1      29.671  12.536   0.117  0.00  0.00    -0.394 OA
HETATM   52  H   UNK N   1      29.205  12.273  -0.692  0.00  0.00     0.210 HD
ENDBRANCH   3  51
TORSDOF 14
ENDMDL
MODEL 7
REMARK VINA RESULT:      -7.3      4.199      9.660
REMARK  14 active torsions:
REMARK  status: ('A' for Active; 'I' for Inactive)
REMARK    1  A    between atoms: C_2  and  C_3 
REMARK    2  A    between atoms: C_2  and  N_10 
REMARK       I    between atoms: C_3  and  N_5 
REMARK    3  A    between atoms: N_5  and  C_6 
REMARK    4  A    between atoms: C_6  and  C_7 
REMARK       I    between atoms: C_7  and  N_9 
REMARK       I    between atoms: N_10  and  C_11 
REMARK    5  A    between atoms: C_11  and  C_13 
REMARK    6  A    between atoms: C_13  and  N_14 
REMARK       I    between atoms: N_14  and  C_15 
REMARK    7  A    between atoms: C_17  and  C_15 
REMARK    8  A    between atoms: C_19  and  O_44 
REMARK       I    between atoms: N_21  and  C_22 
REMARK    9  A    between atoms: C_24  and  C_22 
REMARK       I    between atoms: N_28  and  C_29 
REMARK   10  A    between atoms: C_29  and  C_31 
REMARK   11  A    between atoms: C_31  and  C_32 
REMARK   12  A    between atoms: C_31  and  N_40 
REMARK   13  A    between atoms: C_32  and  C_33 
REMARK   14  A    between atoms: C_36  and  O_39 
REMARK       I    between atoms: N_40  and  C_41 
ROOT
HETATM    1  C   UNK N   1      27.573  18.979   4.474  0.00  0.00     0.181 C 
HETATM    2  C   UNK N   1      26.832  20.288   4.235  0.00  0.00     0.068 C 
HETATM    3  C   UNK N   1      25.872  19.967   3.106  0.00  0.00     0.138 C 
HETATM    4  C   UNK N   1      25.495  18.520   3.341  0.00  0.00     0.158 C 
HETATM    5  N   UNK N   1      26.694  17.975   3.920  0.00  0.00    -0.334 N 
HETATM    6  C   UNK N   1      26.994  16.643   3.879  0.00  0.00     0.243 C 
HETATM    7  O   UNK N   1      28.088  16.259   4.285  0.00  0.00    -0.271 OA
ENDROOT
BRANCH   1   8
HETATM    8  C   UNK N   1      27.818  18.798   5.961  0.00  0.00     0.241 C 
HETATM    9  N   UNK N   1      28.790  17.956   6.416  0.00  0.00    -0.351 N 
HETATM   10  H   UNK N   1      29.298  17.424   5.761  0.00  0.00     0.163 HD
HETATM   11  O   UNK N   1      27.158  19.455   6.754  0.00  0.00    -0.271 OA
BRANCH   9  12
HETATM   12  C   UNK N   1      29.106  17.811   7.826  0.00  0.00     0.225 C 
BRANCH  12  13
HETATM   13  C   UNK N   1      30.586  17.655   8.058  0.00  0.00     0.236 C 
HETATM   14  N   UNK N   1      31.342  16.966   7.166  0.00  0.00    -0.347 N 
HETATM   15  H   UNK N   1      30.943  16.646   6.324  0.00  0.00     0.163 HD
HETATM   16  O   UNK N   1      31.097  18.103   9.078  0.00  0.00    -0.272 OA
BRANCH  14  17
HETATM   17  C   UNK N   1      32.734  16.702   7.450  0.00  0.00     0.172 C 
HETATM   18  C   UNK N   1      33.005  15.218   7.637  0.00  0.00     0.042 C 
BRANCH  17  19
HETATM   19  C   UNK N   1      33.707  17.437   6.562  0.00  0.00     0.240 C 
HETATM   20  O   UNK N   1      34.518  18.175   7.094  0.00  0.00    -0.271 OA
HETATM   21  N   UNK N   1      33.766  17.268   5.216  0.00  0.00    -0.351 N 
HETATM   22  H   UNK N   1      34.433  17.793   4.717  0.00  0.00     0.163 HD
BRANCH  21  23
HETATM   23  C   UNK N   1      32.917  16.375   4.466  0.00  0.00     0.225 C 
BRANCH  23  24
HETATM   24  C   UNK N   1      31.865  17.161   3.741  0.00  0.00     0.233 C 
HETATM   25  O   UNK N   1      31.050  17.824   4.362  0.00  0.00    -0.272 OA
HETATM   26  N   UNK N   1      31.820  17.134   2.395  0.00  0.00    -0.369 N 
HETATM   27  H   UNK N   1      31.039  17.420   1.867  0.00  0.00     0.159 HD
HETATM   28  H   UNK N   1      32.614  16.811   1.911  0.00  0.00     0.159 HD
ENDBRANCH  23  24
ENDBRANCH  21  23
ENDBRANCH  17  19
ENDBRANCH  14  17
ENDBRANCH  12  13
ENDBRANCH   9  12
ENDBRANCH   1   8
BRANCH   6  29
HETATM   29  C   UNK N   1      25.997  15.623   3.359  0.00  0.00     0.179 C 
HETATM   30  C   UNK N   1      26.554  14.918   2.131  0.00  0.00     0.037 C 
HETATM   31  C   UNK N   1      26.311  13.430   2.348  0.00  0.00     0.022 C 
HETATM   32  C   UNK N   1      26.086  13.257   3.839  0.00  0.00     0.127 C 
HETATM   33  N   UNK N   1      25.742  14.566   4.311  0.00  0.00    -0.337 N 
HETATM   34  C   UNK N   1      25.137  14.790   5.524  0.00  0.00     0.243 C 
HETATM   35  O   UNK N   1      24.777  15.921   5.814  0.00  0.00    -0.271 OA
BRANCH  34  36
HETATM   36  C   UNK N   1      24.878  13.646   6.502  0.00  0.00     0.181 C 
BRANCH  36  37
HETATM   37  C   UNK N   1      24.917  14.098   7.978  0.00  0.00     0.073 C 
BRANCH  37  38
HETATM   38  C   UNK N   1      24.158  13.338   9.031  0.00  0.00    -0.056 A 
HETATM   39  C   UNK N   1      24.785  12.477   9.945  0.00  0.00     0.010 A 
HETATM   40  C   UNK N   1      24.053  11.915  10.999  0.00  0.00     0.037 A 
HETATM   41  C   UNK N   1      22.696  12.223  11.150  0.00  0.00     0.065 A 
HETATM   42  C   UNK N   1      22.067  13.072  10.239  0.00  0.00     0.037 A 
HETATM   43  C   UNK N   1      22.799  13.631   9.189  0.00  0.00     0.010 A 
BRANCH  41  44
HETATM   44  O   UNK N   1      21.998  11.712  12.176  0.00  0.00    -0.361 OA
HETATM   45  H   UNK N   1      22.234  10.884  12.545  0.00  0.00     0.217 HD
ENDBRANCH  41  44
ENDBRANCH  37  38
ENDBRANCH  36  37
BRANCH  36  46
HETATM   46  N   UNK N   1      23.557  13.112   6.233  0.00  0.00    -0.348 N 
HETATM   47  C   UNK N   1      23.290  11.803   6.000  0.00  0.00     0.214 C 
HETATM   48  O   UNK N   1      22.141  11.460   5.774  0.00  0.00    -0.274 OA
HETATM   49  C   UNK N   1      24.367  10.765   6.011  0.00  0.00     0.117 C 
HETATM   50  H   UNK N   1      22.802  13.744   6.217  0.00  0.00     0.163 HD
ENDBRANCH  36  46
ENDBRANCH  34  36
ENDBRANCH   6  29
BRANCH   3  51
HETATM   51  O   UNK N   1      24.754  20.799   3.147  0.00  0.00    -0.394 OA
HETATM   52  H   UNK N   1      24.398  21.479   3.740  0.00  0.00     0.210 HD
ENDBRANCH   3  51
TORSDOF 14
ENDMDL
MODEL 8
REMARK VINA RESULT:      -7.3      3.066      7.376
REMARK  14 active torsions:
REMARK  status: ('A' for Active; 'I' for Inactive)
REMARK    1  A    between atoms: C_2  and  C_3 
REMARK    2  A    between atoms: C_2  and  N_10 
REMARK       I    between atoms: C_3  and  N_5 
REMARK    3  A    between atoms: N_5  and  C_6 
REMARK    4  A    between atoms: C_6  and  C_7 
REMARK       I    between atoms: C_7  and  N_9 
REMARK       I    between atoms: N_10  and  C_11 
REMARK    5  A    between atoms: C_11  and  C_13 
REMARK    6  A    between atoms: C_13  and  N_14 
REMARK       I    between atoms: N_14  and  C_15 
REMARK    7  A    between atoms: C_17  and  C_15 
REMARK    8  A    between atoms: C_19  and  O_44 
REMARK       I    between atoms: N_21  and  C_22 
REMARK    9  A    between atoms: C_24  and  C_22 
REMARK       I    between atoms: N_28  and  C_29 
REMARK   10  A    between atoms: C_29  and  C_31 
REMARK   11  A    between atoms: C_31  and  C_32 
REMARK   12  A    between atoms: C_31  and  N_40 
REMARK   13  A    between atoms: C_32  and  C_33 
REMARK   14  A    between atoms: C_36  and  O_39 
REMARK       I    between atoms: N_40  and  C_41 
ROOT
HETATM    1  C   UNK N   1      22.519  12.888   2.988  0.00  0.00     0.181 C 
HETATM    2  C   UNK N   1      22.918  12.173   1.703  0.00  0.00     0.068 C 
HETATM    3  C   UNK N   1      22.826  13.250   0.639  0.00  0.00     0.138 C 
HETATM    4  C   UNK N   1      23.230  14.519   1.361  0.00  0.00     0.158 C 
HETATM    5  N   UNK N   1      22.751  14.284   2.697  0.00  0.00    -0.334 N 
HETATM    6  C   UNK N   1      22.478  15.297   3.572  0.00  0.00     0.243 C 
HETATM    7  O   UNK N   1      21.959  15.035   4.653  0.00  0.00    -0.271 OA
ENDROOT
BRANCH   1   8
HETATM    8  C   UNK N   1      23.365  12.373   4.138  0.00  0.00     0.241 C 
HETATM    9  N   UNK N   1      22.826  12.182   5.376  0.00  0.00    -0.351 N 
HETATM   10  H   UNK N   1      21.886  12.435   5.526  0.00  0.00     0.163 HD
HETATM   11  O   UNK N   1      24.535  12.087   3.930  0.00  0.00    -0.271 OA
BRANCH   9  12
HETATM   12  C   UNK N   1      23.581  11.622   6.483  0.00  0.00     0.225 C 
BRANCH  12  13
HETATM   13  C   UNK N   1      23.339  12.372   7.767  0.00  0.00     0.236 C 
HETATM   14  N   UNK N   1      22.070  12.571   8.206  0.00  0.00    -0.347 N 
HETATM   15  H   UNK N   1      21.314  12.149   7.737  0.00  0.00     0.163 HD
HETATM   16  O   UNK N   1      24.284  12.849   8.386  0.00  0.00    -0.272 OA
BRANCH  14  17
HETATM   17  C   UNK N   1      21.828  13.401   9.364  0.00  0.00     0.172 C 
HETATM   18  C   UNK N   1      21.313  14.778   8.978  0.00  0.00     0.042 C 
BRANCH  17  19
HETATM   19  C   UNK N   1      21.087  12.716  10.485  0.00  0.00     0.240 C 
HETATM   20  O   UNK N   1      19.923  13.024  10.671  0.00  0.00    -0.271 OA
HETATM   21  N   UNK N   1      21.630  11.732  11.248  0.00  0.00    -0.351 N 
HETATM   22  H   UNK N   1      21.071  11.343  11.959  0.00  0.00     0.163 HD
BRANCH  21  23
HETATM   23  C   UNK N   1      22.969  11.220  11.091  0.00  0.00     0.225 C 
BRANCH  23  24
HETATM   24  C   UNK N   1      23.927  12.039  11.903  0.00  0.00     0.233 C 
HETATM   25  O   UNK N   1      23.768  12.164  13.107  0.00  0.00    -0.272 OA
HETATM   26  N   UNK N   1      24.970  12.641  11.300  0.00  0.00    -0.369 N 
HETATM   27  H   UNK N   1      25.493  13.370  11.707  0.00  0.00     0.159 HD
HETATM   28  H   UNK N   1      25.226  12.333  10.400  0.00  0.00     0.159 HD
ENDBRANCH  23  24
ENDBRANCH  21  23
ENDBRANCH  17  19
ENDBRANCH  14  17
ENDBRANCH  12  13
ENDBRANCH   9  12
ENDBRANCH   1   8
BRANCH   6  29
HETATM   29  C   UNK N   1      22.818  16.740   3.242  0.00  0.00     0.179 C 
HETATM   30  C   UNK N   1      21.575  17.612   3.344  0.00  0.00     0.037 C 
HETATM   31  C   UNK N   1      21.982  18.840   4.146  0.00  0.00     0.022 C 
HETATM   32  C   UNK N   1      23.247  18.452   4.892  0.00  0.00     0.127 C 
HETATM   33  N   UNK N   1      23.753  17.314   4.183  0.00  0.00    -0.337 N 
HETATM   34  C   UNK N   1      25.043  16.861   4.316  0.00  0.00     0.243 C 
HETATM   35  O   UNK N   1      25.436  15.951   3.602  0.00  0.00    -0.271 OA
BRANCH  34  36
HETATM   36  C   UNK N   1      26.006  17.499   5.317  0.00  0.00     0.181 C 
BRANCH  36  37
HETATM   37  C   UNK N   1      26.845  16.457   6.088  0.00  0.00     0.073 C 
BRANCH  37  38
HETATM   38  C   UNK N   1      28.040  16.884   6.895  0.00  0.00    -0.056 A 
HETATM   39  C   UNK N   1      27.930  17.436   8.180  0.00  0.00     0.010 A 
HETATM   40  C   UNK N   1      29.080  17.673   8.946  0.00  0.00     0.037 A 
HETATM   41  C   UNK N   1      30.340  17.346   8.434  0.00  0.00     0.065 A 
HETATM   42  C   UNK N   1      30.455  16.805   7.153  0.00  0.00     0.037 A 
HETATM   43  C   UNK N   1      29.308  16.569   6.392  0.00  0.00     0.010 A 
BRANCH  41  44
HETATM   44  O   UNK N   1      31.441  17.542   9.175  0.00  0.00    -0.361 OA
HETATM   45  H   UNK N   1      32.245  17.115   8.954  0.00  0.00     0.217 HD
ENDBRANCH  41  44
ENDBRANCH  37  38
ENDBRANCH  36  37
BRANCH  36  46
HETATM   46  N   UNK N   1      26.918  18.355   4.584  0.00  0.00    -0.348 N 
HETATM   47  C   UNK N   1      27.110  19.673   4.844  0.00  0.00     0.214 C 
HETATM   48  O   UNK N   1      27.897  20.306   4.159  0.00  0.00    -0.274 OA
HETATM   49  C   UNK N   1      26.382  20.373   5.947  0.00  0.00     0.117 C 
HETATM   50  H   UNK N   1      27.432  17.952   3.848  0.00  0.00     0.163 HD
ENDBRANCH  36  46
ENDBRANCH  34  36
ENDBRANCH   6  29
BRANCH   3  51
HETATM   51  O   UNK N   1      23.680  12.976  -0.428  0.00  0.00    -0.394 OA
HETATM   52  H   UNK N   1      23.606  12.586  -1.312  0.00  0.00     0.210 HD
ENDBRANCH   3  51
TORSDOF 14
ENDMDL
MODEL 9
REMARK VINA RESULT:      -7.3      1.385      2.382
REMARK  14 active torsions:
REMARK  status: ('A' for Active; 'I' for Inactive)
REMARK    1  A    between atoms: C_2  and  C_3 
REMARK    2  A    between atoms: C_2  and  N_10 
REMARK       I    between atoms: C_3  and  N_5 
REMARK    3  A    between atoms: N_5  and  C_6 
REMARK    4  A    between atoms: C_6  and  C_7 
REMARK       I    between atoms: C_7  and  N_9 
REMARK       I    between atoms: N_10  and  C_11 
REMARK    5  A    between atoms: C_11  and  C_13 
REMARK    6  A    between atoms: C_13  and  N_14 
REMARK       I    between atoms: N_14  and  C_15 
REMARK    7  A    between atoms: C_17  and  C_15 
REMARK    8  A    between atoms: C_19  and  O_44 
REMARK       I    between atoms: N_21  and  C_22 
REMARK    9  A    between atoms: C_24  and  C_22 
REMARK       I    between atoms: N_28  and  C_29 
REMARK   10  A    between atoms: C_29  and  C_31 
REMARK   11  A    between atoms: C_31  and  C_32 
REMARK   12  A    between atoms: C_31  and  N_40 
REMARK   13  A    between atoms: C_32  and  C_33 
REMARK   14  A    between atoms: C_36  and  O_39 
REMARK       I    between atoms: N_40  and  C_41 
ROOT
HETATM    1  C   UNK N   1      21.512  12.602   9.509  0.00  0.00     0.181 C 
HETATM    2  C   UNK N   1      22.038  12.679  10.937  0.00  0.00     0.068 C 
HETATM    3  C   UNK N   1      23.321  11.870  10.901  0.00  0.00     0.138 C 
HETATM    4  C   UNK N   1      23.874  12.114   9.513  0.00  0.00     0.158 C 
HETATM    5  N   UNK N   1      22.681  12.273   8.725  0.00  0.00    -0.334 N 
HETATM    6  C   UNK N   1      22.653  12.060   7.376  0.00  0.00     0.243 C 
HETATM    7  O   UNK N   1      21.579  12.095   6.782  0.00  0.00    -0.271 OA
ENDROOT
BRANCH   1   8
HETATM    8  C   UNK N   1      20.894  13.933   9.123  0.00  0.00     0.241 C 
HETATM    9  N   UNK N   1      21.570  14.820   8.339  0.00  0.00    -0.351 N 
HETATM   10  H   UNK N   1      22.492  14.604   8.068  0.00  0.00     0.163 HD
HETATM   11  O   UNK N   1      19.756  14.185   9.491  0.00  0.00    -0.271 OA
BRANCH   9  12
HETATM   12  C   UNK N   1      20.987  16.071   7.886  0.00  0.00     0.225 C 
BRANCH  12  13
HETATM   13  C   UNK N   1      20.332  15.931   6.536  0.00  0.00     0.236 C 
HETATM   14  N   UNK N   1      21.033  16.223   5.411  0.00  0.00    -0.347 N 
HETATM   15  H   UNK N   1      21.992  16.439   5.469  0.00  0.00     0.163 HD
HETATM   16  O   UNK N   1      19.153  15.606   6.457  0.00  0.00    -0.272 OA
BRANCH  14  17
HETATM   17  C   UNK N   1      20.372  16.217   4.126  0.00  0.00     0.172 C 
HETATM   18  C   UNK N   1      20.031  17.622   3.656  0.00  0.00     0.042 C 
BRANCH  17  19
HETATM   19  C   UNK N   1      21.009  15.319   3.096  0.00  0.00     0.240 C 
HETATM   20  O   UNK N   1      22.102  15.635   2.662  0.00  0.00    -0.271 OA
HETATM   21  N   UNK N   1      20.457  14.149   2.680  0.00  0.00    -0.351 N 
HETATM   22  H   UNK N   1      20.945  13.629   2.002  0.00  0.00     0.163 HD
BRANCH  21  23
HETATM   23  C   UNK N   1      19.206  13.619   3.162  0.00  0.00     0.225 C 
BRANCH  23  24
HETATM   24  C   UNK N   1      19.451  12.360   3.940  0.00  0.00     0.233 C 
HETATM   25  O   UNK N   1      18.543  11.827   4.557  0.00  0.00    -0.272 OA
HETATM   26  N   UNK N   1      20.682  11.813   3.956  0.00  0.00    -0.369 N 
HETATM   27  H   UNK N   1      20.975  11.142   4.615  0.00  0.00     0.159 HD
HETATM   28  H   UNK N   1      21.325  12.100   3.268  0.00  0.00     0.159 HD
ENDBRANCH  23  24
ENDBRANCH  21  23
ENDBRANCH  17  19
ENDBRANCH  14  17
ENDBRANCH  12  13
ENDBRANCH   9  12
ENDBRANCH   1   8
BRANCH   6  29
HETATM   29  C   UNK N   1      23.927  11.798   6.591  0.00  0.00     0.179 C 
HETATM   30  C   UNK N   1      23.759  10.571   5.706  0.00  0.00     0.037 C 
HETATM   31  C   UNK N   1      24.286  10.962   4.332  0.00  0.00     0.022 C 
HETATM   32  C   UNK N   1      24.284  12.480   4.301  0.00  0.00     0.127 C 
HETATM   33  N   UNK N   1      24.243  12.873   5.679  0.00  0.00    -0.337 N 
HETATM   34  C   UNK N   1      24.565  14.139   6.107  0.00  0.00     0.243 C 
HETATM   35  O   UNK N   1      24.611  14.372   7.305  0.00  0.00    -0.271 OA
BRANCH  34  36
HETATM   36  C   UNK N   1      24.902  15.248   5.112  0.00  0.00     0.181 C 
BRANCH  36  37
HETATM   37  C   UNK N   1      24.898  16.651   5.757  0.00  0.00     0.073 C 
BRANCH  37  38
HETATM   38  C   UNK N   1      24.878  17.887   4.899  0.00  0.00    -0.056 A 
HETATM   39  C   UNK N   1      26.047  18.512   4.440  0.00  0.00     0.010 A 
HETATM   40  C   UNK N   1      25.968  19.567   3.521  0.00  0.00     0.037 A 
HETATM   41  C   UNK N   1      24.721  19.989   3.048  0.00  0.00     0.065 A 
HETATM   42  C   UNK N   1      23.555  19.376   3.509  0.00  0.00     0.037 A 
HETATM   43  C   UNK N   1      23.636  18.325   4.424  0.00  0.00     0.010 A 
BRANCH  41  44
HETATM   44  O   UNK N   1      24.641  20.978   2.145  0.00  0.00    -0.361 OA
HETATM   45  H   UNK N   1      25.285  21.658   2.127  0.00  0.00     0.217 HD
ENDBRANCH  41  44
ENDBRANCH  37  38
ENDBRANCH  36  37
BRANCH  36  46
HETATM   46  N   UNK N   1      26.231  14.999   4.590  0.00  0.00    -0.348 N 
HETATM   47  C   UNK N   1      26.562  15.056   3.275  0.00  0.00     0.214 C 
HETATM   48  O   UNK N   1      27.711  14.819   2.940  0.00  0.00    -0.274 OA
HETATM   49  C   UNK N   1      25.556  15.399   2.223  0.00  0.00     0.117 C 
HETATM   50  H   UNK N   1      26.940  14.773   5.232  0.00  0.00     0.163 HD
ENDBRANCH  36  46
ENDBRANCH  34  36
ENDBRANCH   6  29
BRANCH   3  51
HETATM   51  O   UNK N   1      24.209  12.296  11.887  0.00  0.00    -0.394 OA
HETATM   52  H   UNK N   1      25.122  12.622  11.926  0.00  0.00     0.210 HD
ENDBRANCH   3  51
TORSDOF 14
ENDMDL
