MODEL 1
REMARK VINA RESULT:      -9.2      0.000      0.000
REMARK  6 active torsions:
REMARK  status: ('A' for Active; 'I' for Inactive)
REMARK    1  A    between atoms: C_3  and  C_25 
REMARK    2  A    between atoms: C_5  and  N_7 
REMARK    3  A    between atoms: C_9  and  C_19 
REMARK       I    between atoms: C_19  and  N_21 
REMARK    4  A    between atoms: N_21  and  C_22 
REMARK    5  A    between atoms: C_26  and  C_27 
REMARK    6  A    between atoms: N_31  and  O_33 
ROOT
HETATM    1  N   UNK N   1      22.680  17.497   3.885  0.00  0.00    -0.306 N 
HETATM    2  C   UNK N   1      23.877  18.137   4.004  0.00  0.00     0.120 A 
HETATM    3  C   UNK N   1      24.055  19.475   3.646  0.00  0.00     0.099 A 
HETATM    4  C   UNK N   1      22.953  20.194   3.148  0.00  0.00     0.203 A 
HETATM    5  O   UNK N   1      23.067  21.365   2.823  0.00  0.00    -0.286 OA
HETATM    6  C   UNK N   1      21.716  19.549   3.015  0.00  0.00     0.060 A 
HETATM    7  C   UNK N   1      21.586  18.188   3.386  0.00  0.00     0.126 A 
HETATM    8  N   UNK N   1      20.369  17.585   3.244  0.00  0.00    -0.351 N 
ATOM      9  HN  UNK N   1      20.274  16.606   3.515  1.00  0.00     0.166 HD
HETATM   10  C   UNK N   1      19.280  18.237   2.759  0.00  0.00     0.090 A 
HETATM   11  C   UNK N   1      19.376  19.574   2.384  0.00  0.00     0.018 A 
HETATM   12  C   UNK N   1      20.597  20.231   2.513  0.00  0.00     0.021 A 
ENDROOT
BRANCH   1  13
HETATM   13  C   UNK N   1      22.633  16.095   4.288  0.00  0.00     0.042 A 
HETATM   14  C   UNK N   1      22.451  15.739   5.620  0.00  0.00     0.050 A 
HETATM   15  C   UNK N   1      22.390  14.417   6.028  0.00  0.00     0.020 A 
HETATM   16  C   UNK N   1      22.497  13.387   5.092  0.00  0.00     0.021 A 
HETATM   17  C   UNK N   1      22.688  13.710   3.742  0.00  0.00     0.004 A 
HETATM   18  C   UNK N   1      22.751  15.055   3.340  0.00  0.00     0.030 A 
BRANCH  15  19
HETATM   19  C   UNK N   1      22.136  14.204   7.414  0.00  0.00    -0.061 C 
HETATM   20  C   UNK N   1      22.054  13.741   8.518  0.00  0.00    -0.060 C 
BRANCH  20  21
HETATM   21  C   UNK N   1      22.247  13.082   9.769  0.00  0.00     0.036 A 
HETATM   22  C   UNK N   1      21.182  12.630  10.545  0.00  0.00     0.023 A 
HETATM   23  C   UNK N   1      21.447  12.003  11.766  0.00  0.00     0.021 A 
HETATM   24  C   UNK N   1      22.774  11.837  12.181  0.00  0.00     0.122 A 
HETATM   25  N   UNK N   1      23.798  12.278  11.400  0.00  0.00    -0.246 N 
HETATM   26  C   UNK N   1      23.556  12.890  10.214  0.00  0.00     0.142 A 
BRANCH  25  27
HETATM   27  O   UNK N   1      25.053  12.113  11.804  0.00  0.00    -0.284 OA
ATOM     28  HO  UNK N   1      25.356  12.548  12.592  1.00  0.00     0.245 HD
ENDBRANCH  25  27
ENDBRANCH  20  21
ENDBRANCH  15  19
ENDBRANCH   1  13
BRANCH   3  29
HETATM   29  C   UNK N   1      25.413  20.060   3.802  0.00  0.00     0.257 C 
HETATM   30  O   UNK N   1      25.981  20.522   2.821  0.00  0.00    -0.267 OA
HETATM   31  N   UNK N   1      26.024  20.096   5.015  0.00  0.00    -0.352 N 
HETATM   32  H   UNK N   1      25.556  19.711   5.790  0.00  0.00     0.163 HD
BRANCH  31  33
HETATM   33  C   UNK N   1      27.336  20.674   5.214  0.00  0.00     0.084 A 
HETATM   34  C   UNK N   1      27.238  21.778   6.248  0.00  0.00     0.027 A 
HETATM   35  C   UNK N   1      27.820  20.441   6.637  0.00  0.00     0.027 A 
ENDBRANCH  31  33
ENDBRANCH   3  29
TORSDOF 6
ENDMDL
MODEL 2
REMARK VINA RESULT:      -8.5     12.762     16.191
REMARK  6 active torsions:
REMARK  status: ('A' for Active; 'I' for Inactive)
REMARK    1  A    between atoms: C_3  and  C_25 
REMARK    2  A    between atoms: C_5  and  N_7 
REMARK    3  A    between atoms: C_9  and  C_19 
REMARK       I    between atoms: C_19  and  N_21 
REMARK    4  A    between atoms: N_21  and  C_22 
REMARK    5  A    between atoms: C_26  and  C_27 
REMARK    6  A    between atoms: N_31  and  O_33 
ROOT
HETATM    1  N   UNK N   1      36.378  14.327  12.928  0.00  0.00    -0.306 N 
HETATM    2  C   UNK N   1      35.833  15.367  12.236  0.00  0.00     0.120 A 
HETATM    3  C   UNK N   1      35.713  15.365  10.845  0.00  0.00     0.099 A 
HETATM    4  C   UNK N   1      36.166  14.242  10.128  0.00  0.00     0.203 A 
HETATM    5  O   UNK N   1      36.079  14.201   8.912  0.00  0.00    -0.286 OA
HETATM    6  C   UNK N   1      36.733  13.166  10.825  0.00  0.00     0.060 A 
HETATM    7  C   UNK N   1      36.838  13.217  12.236  0.00  0.00     0.126 A 
HETATM    8  N   UNK N   1      37.396  12.154  12.888  0.00  0.00    -0.351 N 
ATOM      9  HN  UNK N   1      37.469  12.188  13.905  1.00  0.00     0.166 HD
HETATM   10  C   UNK N   1      37.856  11.053  12.237  0.00  0.00     0.090 A 
HETATM   11  C   UNK N   1      37.768  10.975  10.851  0.00  0.00     0.018 A 
HETATM   12  C   UNK N   1      37.204  12.034  10.144  0.00  0.00     0.021 A 
ENDROOT
BRANCH   1  13
HETATM   13  C   UNK N   1      36.452  14.461  14.380  0.00  0.00     0.042 A 
HETATM   14  C   UNK N   1      35.825  13.543  15.215  0.00  0.00     0.050 A 
HETATM   15  C   UNK N   1      35.889  13.638  16.596  0.00  0.00     0.020 A 
HETATM   16  C   UNK N   1      36.611  14.671  17.195  0.00  0.00     0.021 A 
HETATM   17  C   UNK N   1      37.250  15.618  16.383  0.00  0.00     0.004 A 
HETATM   18  C   UNK N   1      37.176  15.512  14.984  0.00  0.00     0.030 A 
BRANCH  15  19
HETATM   19  C   UNK N   1      35.252  12.591  17.322  0.00  0.00    -0.061 C 
HETATM   20  C   UNK N   1      35.017  11.607  17.969  0.00  0.00    -0.060 C 
BRANCH  20  21
HETATM   21  C   UNK N   1      34.992  10.527  18.901  0.00  0.00     0.036 A 
HETATM   22  C   UNK N   1      34.563   9.249  18.549  0.00  0.00     0.023 A 
HETATM   23  C   UNK N   1      34.555   8.242  19.519  0.00  0.00     0.021 A 
HETATM   24  C   UNK N   1      34.981   8.537  20.820  0.00  0.00     0.122 A 
HETATM   25  N   UNK N   1      35.404   9.791  21.137  0.00  0.00    -0.246 N 
HETATM   26  C   UNK N   1      35.416  10.778  20.207  0.00  0.00     0.142 A 
BRANCH  25  27
HETATM   27  O   UNK N   1      35.807  10.058  22.375  0.00  0.00    -0.284 OA
ATOM     28  HO  UNK N   1      35.170  10.301  23.036  1.00  0.00     0.245 HD
ENDBRANCH  25  27
ENDBRANCH  20  21
ENDBRANCH  15  19
ENDBRANCH   1  13
BRANCH   3  29
HETATM   29  C   UNK N   1      35.120  16.566  10.199  0.00  0.00     0.257 C 
HETATM   30  O   UNK N   1      35.647  17.658  10.370  0.00  0.00    -0.267 OA
HETATM   31  N   UNK N   1      34.014  16.465   9.418  0.00  0.00    -0.352 N 
HETATM   32  H   UNK N   1      33.599  15.581   9.299  0.00  0.00     0.163 HD
BRANCH  31  33
HETATM   33  C   UNK N   1      33.417  17.605   8.755  0.00  0.00     0.084 A 
HETATM   34  C   UNK N   1      33.754  17.550   7.278  0.00  0.00     0.027 A 
HETATM   35  C   UNK N   1      32.372  17.157   7.743  0.00  0.00     0.027 A 
ENDBRANCH  31  33
ENDBRANCH   3  29
TORSDOF 6
ENDMDL
MODEL 3
REMARK VINA RESULT:      -8.4      4.642      6.886
REMARK  6 active torsions:
REMARK  status: ('A' for Active; 'I' for Inactive)
REMARK    1  A    between atoms: C_3  and  C_25 
REMARK    2  A    between atoms: C_5  and  N_7 
REMARK    3  A    between atoms: C_9  and  C_19 
REMARK       I    between atoms: C_19  and  N_21 
REMARK    4  A    between atoms: N_21  and  C_22 
REMARK    5  A    between atoms: C_26  and  C_27 
REMARK    6  A    between atoms: N_31  and  O_33 
ROOT
HETATM    1  N   UNK N   1      28.191  16.835   5.920  0.00  0.00    -0.306 N 
HETATM    2  C   UNK N   1      29.068  16.455   4.949  0.00  0.00     0.120 A 
HETATM    3  C   UNK N   1      30.452  16.552   5.104  0.00  0.00     0.099 A 
HETATM    4  C   UNK N   1      30.963  17.056   6.315  0.00  0.00     0.203 A 
HETATM    5  O   UNK N   1      32.167  17.158   6.490  0.00  0.00    -0.286 OA
HETATM    6  C   UNK N   1      30.074  17.456   7.322  0.00  0.00     0.060 A 
HETATM    7  C   UNK N   1      28.678  17.343   7.115  0.00  0.00     0.126 A 
HETATM    8  N   UNK N   1      27.835  17.742   8.114  0.00  0.00    -0.351 N 
ATOM      9  HN  UNK N   1      26.829  17.657   7.967  1.00  0.00     0.166 HD
HETATM   10  C   UNK N   1      28.283  18.243   9.295  0.00  0.00     0.090 A 
HETATM   11  C   UNK N   1      29.650  18.367   9.527  0.00  0.00     0.018 A 
HETATM   12  C   UNK N   1      30.547  17.972   8.538  0.00  0.00     0.021 A 
ENDROOT
BRANCH   1  13
HETATM   13  C   UNK N   1      26.769  16.689   5.626  0.00  0.00     0.042 A 
HETATM   14  C   UNK N   1      25.990  15.756   6.303  0.00  0.00     0.050 A 
HETATM   15  C   UNK N   1      24.636  15.606   6.052  0.00  0.00     0.020 A 
HETATM   16  C   UNK N   1      24.003  16.411   5.105  0.00  0.00     0.021 A 
HETATM   17  C   UNK N   1      24.759  17.357   4.400  0.00  0.00     0.004 A 
HETATM   18  C   UNK N   1      26.132  17.500   4.661  0.00  0.00     0.030 A 
BRANCH  15  19
HETATM   19  C   UNK N   1      23.955  14.656   6.867  0.00  0.00    -0.061 C 
HETATM   20  C   UNK N   1      23.637  13.896   7.741  0.00  0.00    -0.060 C 
BRANCH  20  21
HETATM   21  C   UNK N   1      23.370  13.220   8.969  0.00  0.00     0.036 A 
HETATM   22  C   UNK N   1      22.076  12.910   9.383  0.00  0.00     0.023 A 
HETATM   23  C   UNK N   1      21.890  12.256  10.604  0.00  0.00     0.021 A 
HETATM   24  C   UNK N   1      23.005  11.922  11.383  0.00  0.00     0.122 A 
HETATM   25  N   UNK N   1      24.259  12.227  10.952  0.00  0.00    -0.246 N 
HETATM   26  C   UNK N   1      24.455  12.863   9.770  0.00  0.00     0.142 A 
BRANCH  25  27
HETATM   27  O   UNK N   1      25.310  11.904  11.700  0.00  0.00    -0.284 OA
ATOM     28  HO  UNK N   1      25.703  12.556  12.267  1.00  0.00     0.245 HD
ENDBRANCH  25  27
ENDBRANCH  20  21
ENDBRANCH  15  19
ENDBRANCH   1  13
BRANCH   3  29
HETATM   29  C   UNK N   1      31.309  16.125   3.967  0.00  0.00     0.257 C 
HETATM   30  O   UNK N   1      31.177  16.674   2.880  0.00  0.00    -0.267 OA
HETATM   31  N   UNK N   1      32.238  15.147   4.120  0.00  0.00    -0.352 N 
HETATM   32  H   UNK N   1      32.324  14.711   4.998  0.00  0.00     0.163 HD
BRANCH  31  33
HETATM   33  C   UNK N   1      33.106  14.715   3.044  0.00  0.00     0.084 A 
HETATM   34  C   UNK N   1      34.385  14.157   3.636  0.00  0.00     0.027 A 
HETATM   35  C   UNK N   1      33.334  13.212   3.102  0.00  0.00     0.027 A 
ENDBRANCH  31  33
ENDBRANCH   3  29
TORSDOF 6
ENDMDL
MODEL 4
REMARK VINA RESULT:      -8.2      9.050     13.714
REMARK  6 active torsions:
REMARK  status: ('A' for Active; 'I' for Inactive)
REMARK    1  A    between atoms: C_3  and  C_25 
REMARK    2  A    between atoms: C_5  and  N_7 
REMARK    3  A    between atoms: C_9  and  C_19 
REMARK       I    between atoms: C_19  and  N_21 
REMARK    4  A    between atoms: N_21  and  C_22 
REMARK    5  A    between atoms: C_26  and  C_27 
REMARK    6  A    between atoms: N_31  and  O_33 
ROOT
HETATM    1  N   UNK N   1      34.318  14.571  10.014  0.00  0.00    -0.306 N 
HETATM    2  C   UNK N   1      34.809  14.705  11.278  0.00  0.00     0.120 A 
HETATM    3  C   UNK N   1      35.178  13.610  12.063  0.00  0.00     0.099 A 
HETATM    4  C   UNK N   1      35.045  12.316  11.525  0.00  0.00     0.203 A 
HETATM    5  O   UNK N   1      35.356  11.334  12.178  0.00  0.00    -0.286 OA
HETATM    6  C   UNK N   1      34.538  12.162  10.227  0.00  0.00     0.060 A 
HETATM    7  C   UNK N   1      34.172  13.303   9.473  0.00  0.00     0.126 A 
HETATM    8  N   UNK N   1      33.679  13.121   8.212  0.00  0.00    -0.351 N 
ATOM      9  HN  UNK N   1      33.418  13.942   7.666  1.00  0.00     0.166 HD
HETATM   10  C   UNK N   1      33.524  11.891   7.654  0.00  0.00     0.090 A 
HETATM   11  C   UNK N   1      33.874  10.751   8.372  0.00  0.00     0.018 A 
HETATM   12  C   UNK N   1      34.383  10.888   9.661  0.00  0.00     0.021 A 
ENDROOT
BRANCH   1  13
HETATM   13  C   UNK N   1      33.962  15.796   9.306  0.00  0.00     0.042 A 
HETATM   14  C   UNK N   1      32.691  15.969   8.770  0.00  0.00     0.050 A 
HETATM   15  C   UNK N   1      32.323  17.127   8.105  0.00  0.00     0.020 A 
HETATM   16  C   UNK N   1      33.231  18.176   7.965  0.00  0.00     0.021 A 
HETATM   17  C   UNK N   1      34.524  18.034   8.489  0.00  0.00     0.004 A 
HETATM   18  C   UNK N   1      34.887  16.854   9.160  0.00  0.00     0.030 A 
BRANCH  15  19
HETATM   19  C   UNK N   1      30.968  17.188   7.665  0.00  0.00    -0.061 C 
HETATM   20  C   UNK N   1      29.906  17.543   7.232  0.00  0.00    -0.060 C 
BRANCH  20  21
HETATM   21  C   UNK N   1      28.821  18.117   6.505  0.00  0.00     0.036 A 
HETATM   22  C   UNK N   1      28.505  17.725   5.205  0.00  0.00     0.023 A 
HETATM   23  C   UNK N   1      27.434  18.339   4.550  0.00  0.00     0.021 A 
HETATM   24  C   UNK N   1      26.699  19.330   5.213  0.00  0.00     0.122 A 
HETATM   25  N   UNK N   1      27.021  19.689   6.485  0.00  0.00    -0.246 N 
HETATM   26  C   UNK N   1      28.059  19.103   7.133  0.00  0.00     0.142 A 
BRANCH  25  27
HETATM   27  O   UNK N   1      26.316  20.631   7.104  0.00  0.00    -0.284 OA
ATOM     28  HO  UNK N   1      26.608  21.534   7.075  1.00  0.00     0.245 HD
ENDBRANCH  25  27
ENDBRANCH  20  21
ENDBRANCH  15  19
ENDBRANCH   1  13
BRANCH   3  29
HETATM   29  C   UNK N   1      35.682  13.880  13.436  0.00  0.00     0.257 C 
HETATM   30  O   UNK N   1      36.338  14.892  13.644  0.00  0.00    -0.267 OA
HETATM   31  N   UNK N   1      35.416  13.026  14.458  0.00  0.00    -0.352 N 
HETATM   32  H   UNK N   1      34.894  12.214  14.271  0.00  0.00     0.163 HD
BRANCH  31  33
HETATM   33  C   UNK N   1      35.869  13.262  15.813  0.00  0.00     0.084 A 
HETATM   34  C   UNK N   1      34.672  13.259  16.742  0.00  0.00     0.027 A 
HETATM   35  C   UNK N   1      35.583  12.056  16.696  0.00  0.00     0.027 A 
ENDBRANCH  31  33
ENDBRANCH   3  29
TORSDOF 6
ENDMDL
MODEL 5
REMARK VINA RESULT:      -8.2      3.037      8.004
REMARK  6 active torsions:
REMARK  status: ('A' for Active; 'I' for Inactive)
REMARK    1  A    between atoms: C_3  and  C_25 
REMARK    2  A    between atoms: C_5  and  N_7 
REMARK    3  A    between atoms: C_9  and  C_19 
REMARK       I    between atoms: C_19  and  N_21 
REMARK    4  A    between atoms: N_21  and  C_22 
REMARK    5  A    between atoms: C_26  and  C_27 
REMARK    6  A    between atoms: N_31  and  O_33 
ROOT
HETATM    1  N   UNK N   1      20.208  16.686   3.965  0.00  0.00    -0.306 N 
HETATM    2  C   UNK N   1      20.256  16.530   5.317  0.00  0.00     0.120 A 
HETATM    3  C   UNK N   1      19.930  15.328   5.949  0.00  0.00     0.099 A 
HETATM    4  C   UNK N   1      19.543  14.231   5.156  0.00  0.00     0.203 A 
HETATM    5  O   UNK N   1      19.250  13.163   5.670  0.00  0.00    -0.286 OA
HETATM    6  C   UNK N   1      19.485  14.377   3.763  0.00  0.00     0.060 A 
HETATM    7  C   UNK N   1      19.820  15.618   3.170  0.00  0.00     0.126 A 
HETATM    8  N   UNK N   1      19.752  15.731   1.810  0.00  0.00    -0.351 N 
ATOM      9  HN  UNK N   1      19.997  16.624   1.381  1.00  0.00     0.166 HD
HETATM   10  C   UNK N   1      19.375  14.702   1.006  0.00  0.00     0.090 A 
HETATM   11  C   UNK N   1      19.039  13.471   1.561  0.00  0.00     0.018 A 
HETATM   12  C   UNK N   1      19.095  13.308   2.943  0.00  0.00     0.021 A 
ENDROOT
BRANCH   1  13
HETATM   13  C   UNK N   1      20.566  17.998   3.434  0.00  0.00     0.042 A 
HETATM   14  C   UNK N   1      21.853  18.503   3.584  0.00  0.00     0.050 A 
HETATM   15  C   UNK N   1      22.223  19.739   3.079  0.00  0.00     0.020 A 
HETATM   16  C   UNK N   1      21.300  20.518   2.382  0.00  0.00     0.021 A 
HETATM   17  C   UNK N   1      19.992  20.042   2.217  0.00  0.00     0.004 A 
HETATM   18  C   UNK N   1      19.627  18.788   2.735  0.00  0.00     0.030 A 
BRANCH  15  19
HETATM   19  C   UNK N   1      23.591  20.098   3.254  0.00  0.00    -0.061 C 
HETATM   20  C   UNK N   1      24.699  20.264   3.687  0.00  0.00    -0.060 C 
BRANCH  20  21
HETATM   21  C   UNK N   1      25.979  20.167   4.311  0.00  0.00     0.036 A 
HETATM   22  C   UNK N   1      26.351  20.983   5.377  0.00  0.00     0.023 A 
HETATM   23  C   UNK N   1      27.626  20.839   5.932  0.00  0.00     0.021 A 
HETATM   24  C   UNK N   1      28.499  19.877   5.410  0.00  0.00     0.122 A 
HETATM   25  N   UNK N   1      28.109  19.085   4.375  0.00  0.00    -0.246 N 
HETATM   26  C   UNK N   1      26.875  19.214   3.825  0.00  0.00     0.142 A 
BRANCH  25  27
HETATM   27  O   UNK N   1      28.946  18.174   3.888  0.00  0.00    -0.284 OA
ATOM     28  HO  UNK N   1      28.604  17.423   3.418  1.00  0.00     0.245 HD
ENDBRANCH  25  27
ENDBRANCH  20  21
ENDBRANCH  15  19
ENDBRANCH   1  13
BRANCH   3  29
HETATM   29  C   UNK N   1      20.000  15.283   7.433  0.00  0.00     0.257 C 
HETATM   30  O   UNK N   1      19.146  15.866   8.090  0.00  0.00    -0.267 OA
HETATM   31  N   UNK N   1      20.988  14.601   8.067  0.00  0.00    -0.352 N 
HETATM   32  H   UNK N   1      21.671  14.146   7.523  0.00  0.00     0.163 HD
BRANCH  31  33
HETATM   33  C   UNK N   1      21.081  14.515   9.509  0.00  0.00     0.084 A 
HETATM   34  C   UNK N   1      20.720  13.109   9.945  0.00  0.00     0.027 A 
HETATM   35  C   UNK N   1      22.168  13.535   9.924  0.00  0.00     0.027 A 
ENDBRANCH  31  33
ENDBRANCH   3  29
TORSDOF 6
ENDMDL
MODEL 6
REMARK VINA RESULT:      -8.1      4.789      8.558
REMARK  6 active torsions:
REMARK  status: ('A' for Active; 'I' for Inactive)
REMARK    1  A    between atoms: C_3  and  C_25 
REMARK    2  A    between atoms: C_5  and  N_7 
REMARK    3  A    between atoms: C_9  and  C_19 
REMARK       I    between atoms: C_19  and  N_21 
REMARK    4  A    between atoms: N_21  and  C_22 
REMARK    5  A    between atoms: C_26  and  C_27 
REMARK    6  A    between atoms: N_31  and  O_33 
ROOT
HETATM    1  N   UNK N   1      28.946  18.020   5.520  0.00  0.00    -0.306 N 
HETATM    2  C   UNK N   1      29.989  17.613   4.743  0.00  0.00     0.120 A 
HETATM    3  C   UNK N   1      31.162  17.076   5.277  0.00  0.00     0.099 A 
HETATM    4  C   UNK N   1      31.270  16.943   6.674  0.00  0.00     0.203 A 
HETATM    5  O   UNK N   1      32.279  16.479   7.180  0.00  0.00    -0.286 OA
HETATM    6  C   UNK N   1      30.208  17.361   7.488  0.00  0.00     0.060 A 
HETATM    7  C   UNK N   1      29.041  17.905   6.899  0.00  0.00     0.126 A 
HETATM    8  N   UNK N   1      28.023  18.304   7.717  0.00  0.00    -0.351 N 
ATOM      9  HN  UNK N   1      27.179  18.693   7.294  1.00  0.00     0.166 HD
HETATM   10  C   UNK N   1      28.087  18.204   9.071  0.00  0.00     0.090 A 
HETATM   11  C   UNK N   1      29.222  17.675   9.679  0.00  0.00     0.018 A 
HETATM   12  C   UNK N   1      30.284  17.252   8.884  0.00  0.00     0.021 A 
ENDROOT
BRANCH   1  13
HETATM   13  C   UNK N   1      27.782  18.571   4.835  0.00  0.00     0.042 A 
HETATM   14  C   UNK N   1      26.628  17.813   4.663  0.00  0.00     0.050 A 
HETATM   15  C   UNK N   1      25.504  18.316   4.027  0.00  0.00     0.020 A 
HETATM   16  C   UNK N   1      25.495  19.625   3.547  0.00  0.00     0.021 A 
HETATM   17  C   UNK N   1      26.643  20.415   3.698  0.00  0.00     0.004 A 
HETATM   18  C   UNK N   1      27.778  19.894   4.342  0.00  0.00     0.030 A 
BRANCH  15  19
HETATM   19  C   UNK N   1      24.376  17.447   3.980  0.00  0.00    -0.061 C 
HETATM   20  C   UNK N   1      23.297  16.940   4.128  0.00  0.00    -0.060 C 
BRANCH  20  21
HETATM   21  C   UNK N   1      21.910  16.634   4.267  0.00  0.00     0.036 A 
HETATM   22  C   UNK N   1      21.455  15.585   5.063  0.00  0.00     0.023 A 
HETATM   23  C   UNK N   1      20.082  15.336   5.143  0.00  0.00     0.021 A 
HETATM   24  C   UNK N   1      19.193  16.147   4.426  0.00  0.00     0.122 A 
HETATM   25  N   UNK N   1      19.662  17.171   3.662  0.00  0.00    -0.246 N 
HETATM   26  C   UNK N   1      20.992  17.424   3.574  0.00  0.00     0.142 A 
BRANCH  25  27
HETATM   27  O   UNK N   1      18.808  17.935   2.987  0.00  0.00    -0.284 OA
ATOM     28  HO  UNK N   1      18.400  17.601   2.197  1.00  0.00     0.245 HD
ENDBRANCH  25  27
ENDBRANCH  20  21
ENDBRANCH  15  19
ENDBRANCH   1  13
BRANCH   3  29
HETATM   29  C   UNK N   1      32.240  16.686   4.330  0.00  0.00     0.257 C 
HETATM   30  O   UNK N   1      32.875  17.561   3.754  0.00  0.00    -0.267 OA
HETATM   31  N   UNK N   1      32.534  15.380   4.104  0.00  0.00    -0.352 N 
HETATM   32  H   UNK N   1      32.007  14.691   4.570  0.00  0.00     0.163 HD
BRANCH  31  33
HETATM   33  C   UNK N   1      33.588  14.958   3.207  0.00  0.00     0.084 A 
HETATM   34  C   UNK N   1      34.639  14.205   3.998  0.00  0.00     0.027 A 
HETATM   35  C   UNK N   1      33.664  13.440   3.136  0.00  0.00     0.027 A 
ENDBRANCH  31  33
ENDBRANCH   3  29
TORSDOF 6
ENDMDL
MODEL 7
REMARK VINA RESULT:      -8.1      6.626     10.810
REMARK  6 active torsions:
REMARK  status: ('A' for Active; 'I' for Inactive)
REMARK    1  A    between atoms: C_3  and  C_25 
REMARK    2  A    between atoms: C_5  and  N_7 
REMARK    3  A    between atoms: C_9  and  C_19 
REMARK       I    between atoms: C_19  and  N_21 
REMARK    4  A    between atoms: N_21  and  C_22 
REMARK    5  A    between atoms: C_26  and  C_27 
REMARK    6  A    between atoms: N_31  and  O_33 
ROOT
HETATM    1  N   UNK N   1      31.773  17.175   7.328  0.00  0.00    -0.306 N 
HETATM    2  C   UNK N   1      32.718  17.087   8.305  0.00  0.00     0.120 A 
HETATM    3  C   UNK N   1      34.010  16.615   8.063  0.00  0.00     0.099 A 
HETATM    4  C   UNK N   1      34.352  16.221   6.756  0.00  0.00     0.203 A 
HETATM    5  O   UNK N   1      35.470  15.803   6.503  0.00  0.00    -0.286 OA
HETATM    6  C   UNK N   1      33.389  16.302   5.741  0.00  0.00     0.060 A 
HETATM    7  C   UNK N   1      32.090  16.782   6.037  0.00  0.00     0.126 A 
HETATM    8  N   UNK N   1      31.172  16.848   5.027  0.00  0.00    -0.351 N 
ATOM      9  HN  UNK N   1      30.237  17.197   5.239  1.00  0.00     0.166 HD
HETATM   10  C   UNK N   1      31.455  16.470   3.753  0.00  0.00     0.090 A 
HETATM   11  C   UNK N   1      32.722  15.992   3.431  0.00  0.00     0.018 A 
HETATM   12  C   UNK N   1      33.691  15.909   4.428  0.00  0.00     0.021 A 
ENDROOT
BRANCH   1  13
HETATM   13  C   UNK N   1      30.459  17.677   7.718  0.00  0.00     0.042 A 
HETATM   14  C   UNK N   1      29.506  18.007   6.760  0.00  0.00     0.050 A 
HETATM   15  C   UNK N   1      28.247  18.473   7.103  0.00  0.00     0.020 A 
HETATM   16  C   UNK N   1      27.891  18.614   8.444  0.00  0.00     0.021 A 
HETATM   17  C   UNK N   1      28.829  18.297   9.436  0.00  0.00     0.004 A 
HETATM   18  C   UNK N   1      30.103  17.826   9.077  0.00  0.00     0.030 A 
BRANCH  15  19
HETATM   19  C   UNK N   1      27.355  18.710   6.017  0.00  0.00    -0.061 C 
HETATM   20  C   UNK N   1      26.400  18.750   5.291  0.00  0.00    -0.060 C 
BRANCH  20  21
HETATM   21  C   UNK N   1      25.107  18.854   4.695  0.00  0.00     0.036 A 
HETATM   22  C   UNK N   1      24.153  17.844   4.803  0.00  0.00     0.023 A 
HETATM   23  C   UNK N   1      22.911  18.011   4.184  0.00  0.00     0.021 A 
HETATM   24  C   UNK N   1      22.650  19.189   3.473  0.00  0.00     0.122 A 
HETATM   25  N   UNK N   1      23.594  20.166   3.390  0.00  0.00    -0.246 N 
HETATM   26  C   UNK N   1      24.804  20.017   3.985  0.00  0.00     0.142 A 
BRANCH  25  27
HETATM   27  O   UNK N   1      23.334  21.280   2.714  0.00  0.00    -0.284 OA
ATOM     28  HO  UNK N   1      23.202  22.096   3.182  1.00  0.00     0.245 HD
ENDBRANCH  25  27
ENDBRANCH  20  21
ENDBRANCH  15  19
ENDBRANCH   1  13
BRANCH   3  29
HETATM   29  C   UNK N   1      34.949  16.546   9.213  0.00  0.00     0.257 C 
HETATM   30  O   UNK N   1      35.265  17.578   9.791  0.00  0.00    -0.267 OA
HETATM   31  N   UNK N   1      35.451  15.356   9.635  0.00  0.00    -0.352 N 
HETATM   32  H   UNK N   1      35.193  14.538   9.154  0.00  0.00     0.163 HD
BRANCH  31  33
HETATM   33  C   UNK N   1      36.351  15.242  10.763  0.00  0.00     0.084 A 
HETATM   34  C   UNK N   1      35.569  14.777  11.975  0.00  0.00     0.027 A 
HETATM   35  C   UNK N   1      36.448  13.798  11.234  0.00  0.00     0.027 A 
ENDBRANCH  31  33
ENDBRANCH   3  29
TORSDOF 6
ENDMDL
MODEL 8
REMARK VINA RESULT:      -8.1      8.265     10.986
REMARK  6 active torsions:
REMARK  status: ('A' for Active; 'I' for Inactive)
REMARK    1  A    between atoms: C_3  and  C_25 
REMARK    2  A    between atoms: C_5  and  N_7 
REMARK    3  A    between atoms: C_9  and  C_19 
REMARK       I    between atoms: C_19  and  N_21 
REMARK    4  A    between atoms: N_21  and  C_22 
REMARK    5  A    between atoms: C_26  and  C_27 
REMARK    6  A    between atoms: N_31  and  O_33 
ROOT
HETATM    1  N   UNK N   1      31.771  16.437   6.546  0.00  0.00    -0.306 N 
HETATM    2  C   UNK N   1      30.570  17.060   6.705  0.00  0.00     0.120 A 
HETATM    3  C   UNK N   1      29.499  16.864   5.831  0.00  0.00     0.099 A 
HETATM    4  C   UNK N   1      29.663  15.983   4.746  0.00  0.00     0.203 A 
HETATM    5  O   UNK N   1      28.752  15.784   3.960  0.00  0.00    -0.286 OA
HETATM    6  C   UNK N   1      30.895  15.338   4.567  0.00  0.00     0.060 A 
HETATM    7  C   UNK N   1      31.954  15.573   5.477  0.00  0.00     0.126 A 
HETATM    8  N   UNK N   1      33.143  14.932   5.276  0.00  0.00    -0.351 N 
ATOM      9  HN  UNK N   1      33.905  15.098   5.933  1.00  0.00     0.166 HD
HETATM   10  C   UNK N   1      33.350  14.080   4.237  0.00  0.00     0.090 A 
HETATM   11  C   UNK N   1      32.329  13.829   3.325  0.00  0.00     0.018 A 
HETATM   12  C   UNK N   1      31.099  14.460   3.492  0.00  0.00     0.021 A 
ENDROOT
BRANCH   1  13
HETATM   13  C   UNK N   1      32.810  16.738   7.527  0.00  0.00     0.042 A 
HETATM   14  C   UNK N   1      33.106  15.844   8.551  0.00  0.00     0.050 A 
HETATM   15  C   UNK N   1      34.096  16.098   9.487  0.00  0.00     0.020 A 
HETATM   16  C   UNK N   1      34.845  17.273   9.417  0.00  0.00     0.021 A 
HETATM   17  C   UNK N   1      34.568  18.198   8.401  0.00  0.00     0.004 A 
HETATM   18  C   UNK N   1      33.562  17.931   7.458  0.00  0.00     0.030 A 
BRANCH  15  19
HETATM   19  C   UNK N   1      34.330  15.064  10.440  0.00  0.00    -0.061 C 
HETATM   20  C   UNK N   1      34.754  14.396  11.343  0.00  0.00    -0.060 C 
BRANCH  20  21
HETATM   21  C   UNK N   1      35.267  13.878  12.569  0.00  0.00     0.036 A 
HETATM   22  C   UNK N   1      34.883  12.637  13.072  0.00  0.00     0.023 A 
HETATM   23  C   UNK N   1      35.418  12.198  14.287  0.00  0.00     0.021 A 
HETATM   24  C   UNK N   1      36.331  13.011  14.969  0.00  0.00     0.122 A 
HETATM   25  N   UNK N   1      36.698  14.216  14.453  0.00  0.00    -0.246 N 
HETATM   26  C   UNK N   1      36.186  14.655  13.276  0.00  0.00     0.142 A 
BRANCH  25  27
HETATM   27  O   UNK N   1      37.567  14.978  15.110  0.00  0.00    -0.284 OA
ATOM     28  HO  UNK N   1      38.454  15.071  14.784  1.00  0.00     0.245 HD
ENDBRANCH  25  27
ENDBRANCH  20  21
ENDBRANCH  15  19
ENDBRANCH   1  13
BRANCH   3  29
HETATM   29  C   UNK N   1      28.242  17.614   6.095  0.00  0.00     0.257 C 
HETATM   30  O   UNK N   1      27.540  17.289   7.044  0.00  0.00    -0.267 OA
HETATM   31  N   UNK N   1      27.872  18.656   5.307  0.00  0.00    -0.352 N 
HETATM   32  H   UNK N   1      28.444  18.898   4.544  0.00  0.00     0.163 HD
BRANCH  31  33
HETATM   33  C   UNK N   1      26.668  19.426   5.541  0.00  0.00     0.084 A 
HETATM   34  C   UNK N   1      27.038  20.723   6.233  0.00  0.00     0.027 A 
HETATM   35  C   UNK N   1      26.701  20.732   4.761  0.00  0.00     0.027 A 
ENDBRANCH  31  33
ENDBRANCH   3  29
TORSDOF 6
ENDMDL
MODEL 9
REMARK VINA RESULT:      -8.0      4.258      8.391
REMARK  6 active torsions:
REMARK  status: ('A' for Active; 'I' for Inactive)
REMARK    1  A    between atoms: C_3  and  C_25 
REMARK    2  A    between atoms: C_5  and  N_7 
REMARK    3  A    between atoms: C_9  and  C_19 
REMARK       I    between atoms: C_19  and  N_21 
REMARK    4  A    between atoms: N_21  and  C_22 
REMARK    5  A    between atoms: C_26  and  C_27 
REMARK    6  A    between atoms: N_31  and  O_33 
ROOT
HETATM    1  N   UNK N   1      24.400  15.451   5.903  0.00  0.00    -0.306 N 
HETATM    2  C   UNK N   1      24.312  14.340   6.687  0.00  0.00     0.120 A 
HETATM    3  C   UNK N   1      23.193  14.060   7.473  0.00  0.00     0.099 A 
HETATM    4  C   UNK N   1      22.109  14.957   7.450  0.00  0.00     0.203 A 
HETATM    5  O   UNK N   1      21.112  14.749   8.124  0.00  0.00    -0.286 OA
HETATM    6  C   UNK N   1      22.186  16.107   6.653  0.00  0.00     0.060 A 
HETATM    7  C   UNK N   1      23.345  16.351   5.877  0.00  0.00     0.126 A 
HETATM    8  N   UNK N   1      23.393  17.480   5.110  0.00  0.00    -0.351 N 
ATOM      9  HN  UNK N   1      24.226  17.654   4.548  1.00  0.00     0.166 HD
HETATM   10  C   UNK N   1      22.375  18.379   5.064  0.00  0.00     0.090 A 
HETATM   11  C   UNK N   1      21.223  18.168   5.817  0.00  0.00     0.018 A 
HETATM   12  C   UNK N   1      21.129  17.029   6.612  0.00  0.00     0.021 A 
ENDROOT
BRANCH   1  13
HETATM   13  C   UNK N   1      25.630  15.628   5.137  0.00  0.00     0.042 A 
HETATM   14  C   UNK N   1      26.767  16.174   5.725  0.00  0.00     0.050 A 
HETATM   15  C   UNK N   1      27.950  16.341   5.025  0.00  0.00     0.020 A 
HETATM   16  C   UNK N   1      28.039  15.945   3.690  0.00  0.00     0.021 A 
HETATM   17  C   UNK N   1      26.912  15.396   3.065  0.00  0.00     0.004 A 
HETATM   18  C   UNK N   1      25.716  15.233   3.784  0.00  0.00     0.030 A 
BRANCH  15  19
HETATM   19  C   UNK N   1      29.049  16.854   5.774  0.00  0.00    -0.061 C 
HETATM   20  C   UNK N   1      30.125  17.039   6.272  0.00  0.00    -0.060 C 
BRANCH  20  21
HETATM   21  C   UNK N   1      31.512  17.182   6.577  0.00  0.00     0.036 A 
HETATM   22  C   UNK N   1      32.483  17.311   5.586  0.00  0.00     0.023 A 
HETATM   23  C   UNK N   1      33.824  17.436   5.958  0.00  0.00     0.021 A 
HETATM   24  C   UNK N   1      34.164  17.434   7.317  0.00  0.00     0.122 A 
HETATM   25  N   UNK N   1      33.197  17.316   8.267  0.00  0.00    -0.246 N 
HETATM   26  C   UNK N   1      31.891  17.192   7.920  0.00  0.00     0.142 A 
BRANCH  25  27
HETATM   27  O   UNK N   1      33.531  17.315   9.553  0.00  0.00    -0.284 OA
ATOM     28  HO  UNK N   1      32.985  17.772  10.182  1.00  0.00     0.245 HD
ENDBRANCH  25  27
ENDBRANCH  20  21
ENDBRANCH  15  19
ENDBRANCH   1  13
BRANCH   3  29
HETATM   29  C   UNK N   1      23.219  12.827   8.303  0.00  0.00     0.257 C 
HETATM   30  O   UNK N   1      23.616  11.780   7.806  0.00  0.00    -0.267 OA
HETATM   31  N   UNK N   1      22.821  12.849   9.601  0.00  0.00    -0.352 N 
HETATM   32  H   UNK N   1      22.498  13.697   9.981  0.00  0.00     0.163 HD
BRANCH  31  33
HETATM   33  C   UNK N   1      22.851  11.676  10.450  0.00  0.00     0.084 A 
HETATM   34  C   UNK N   1      23.849  11.901  11.568  0.00  0.00     0.027 A 
HETATM   35  C   UNK N   1      22.371  12.012  11.854  0.00  0.00     0.027 A 
ENDBRANCH  31  33
ENDBRANCH   3  29
TORSDOF 6
ENDMDL
