REMARK  20 active torsions:
REMARK  status: ('A' for Active; 'I' for Inactive)
REMARK    1  A    between atoms: C_11  and  C_97 
REMARK    2  A    between atoms: C_14  and  C_94 
REMARK    3  A    between atoms: C_25  and  C_86 
REMARK    4  A    between atoms: C_41  and  C_60 
REMARK    5  A    between atoms: C_54  and  C_55 
REMARK    6  A    between atoms: C_55  and  C_56 
REMARK       I    between atoms: C_56  and  N_58 
REMARK    7  A    between atoms: C_63  and  N_66 
REMARK       I    between atoms: N_66  and  C_67 
REMARK    8  A    between atoms: N_66  and  C_79 
REMARK    9  A    between atoms: C_67  and  O_69 
REMARK   10  A    between atoms: C_70  and  O_69 
REMARK   11  A    between atoms: C_73  and  C_76 
REMARK   12  A    between atoms: C_76  and  O_78 
REMARK   13  A    between atoms: C_79  and  C_80 
REMARK   14  A    between atoms: C_80  and  C_81 
REMARK   15  A    between atoms: C_81  and  C_82 
REMARK   16  A    between atoms: C_82  and  C_83 
REMARK   17  A    between atoms: C_83  and  O_85 
REMARK   18  A    between atoms: C_86  and  O_87 
REMARK   19  A    between atoms: C_86  and  C_88 
REMARK   20  A    between atoms: C_94  and  O_95 
ROOT
HETATM    1  C   UNK N   1      14.575   4.028   0.765  0.00  0.00     0.059 C 
HETATM    2  C   UNK N   1      13.392   3.224   0.361  0.00  0.00     0.013 A 
HETATM    3  S   UNK N   1      11.888   3.826   0.148  0.00  0.00    -0.077 SA
HETATM    4  C   UNK N   1      11.123   2.408  -0.219  0.00  0.00     0.075 A 
HETATM    5  N   UNK N   1      12.033   1.386  -0.195  0.00  0.00    -0.347 N 
ATOM      6  HN  UNK N   1      11.804   0.411  -0.389  1.00  0.00     0.166 HD
HETATM    7  C   UNK N   1      13.310   1.839   0.127  0.00  0.00     0.114 A 
HETATM    8  C   UNK N   1      14.476   0.935   0.292  0.00  0.00     0.269 C 
HETATM    9  O   UNK N   1      15.500   1.352   0.813  0.00  0.00    -0.266 OA
HETATM   10  N   UNK N   1      14.387  -0.359  -0.081  0.00  0.00    -0.345 N 
HETATM   11  C   UNK N   1      15.406  -1.360   0.193  0.00  0.00     0.145 C 
HETATM   12  C   UNK N   1      14.710  -2.689   0.181  0.00  0.00     0.075 A 
HETATM   13  S   UNK N   1      13.108  -2.921  -0.122  0.00  0.00    -0.074 SA
HETATM   14  C   UNK N   1      13.097  -4.559  -0.050  0.00  0.00     0.040 A 
HETATM   15  C   UNK N   1      14.440  -4.952   0.211  0.00  0.00     0.116 A 
HETATM   16  N   UNK N   1      15.311  -3.891   0.364  0.00  0.00    -0.347 N 
ATOM     17  HN  UNK N   1      16.300  -3.999   0.591  1.00  0.00     0.166 HD
HETATM   18  C   UNK N   1      14.975  -6.337   0.328  0.00  0.00     0.269 C 
HETATM   19  O   UNK N   1      15.970  -6.508   1.015  0.00  0.00    -0.266 OA
HETATM   20  N   UNK N   1      14.493  -7.398  -0.370  0.00  0.00    -0.347 N 
HETATM   21  C   UNK N   1      13.479  -7.338  -1.396  0.00  0.00     0.225 C 
HETATM   22  C   UNK N   1      12.315  -8.194  -1.013  0.00  0.00     0.236 C 
HETATM   23  O   UNK N   1      11.541  -8.584  -1.873  0.00  0.00    -0.272 OA
HETATM   24  N   UNK N   1      12.145  -8.533   0.291  0.00  0.00    -0.346 N 
HETATM   25  C   UNK N   1      11.117  -9.410   0.812  0.00  0.00     0.175 C 
HETATM   26  C   UNK N   1       9.749  -8.839   0.723  0.00  0.00     0.077 A 
HETATM   27  S   UNK N   1       8.450  -9.521   1.465  0.00  0.00    -0.084 SA
HETATM   28  C   UNK N   1       7.295  -8.597   0.802  0.00  0.00     0.084 A 
HETATM   29  C   UNK N   1       7.973  -7.710  -0.039  0.00  0.00     0.073 A 
HETATM   30  N   UNK N   1       9.343  -7.812  -0.061  0.00  0.00    -0.349 N 
ATOM     31  HN  UNK N   1       9.965  -7.202  -0.592  1.00  0.00     0.166 HD
HETATM   32  C   UNK N   1       7.226  -6.627  -0.589  0.00  0.00     0.102 A 
HETATM   33  S   UNK N   1       5.740  -6.910  -1.244  0.00  0.00    -0.080 SA
HETATM   34  C   UNK N   1       4.973  -5.587  -0.672  0.00  0.00     0.079 A 
HETATM   35  C   UNK N   1       5.927  -4.912   0.110  0.00  0.00     0.040 A 
HETATM   36  N   UNK N   1       7.171  -5.487   0.133  0.00  0.00    -0.350 N 
ATOM     37  HN  UNK N   1       7.966  -5.097   0.639  1.00  0.00     0.166 HD
HETATM   38  C   UNK N   1       5.656  -3.607   0.757  0.00  0.00     0.142 C 
HETATM   39  N   UNK N   1       4.329  -3.334   0.743  0.00  0.00    -0.380 N 
ATOM     40  HN  UNK N   1       3.757  -3.561   1.557  1.00  0.00     0.160 HD
HETATM   41  C   UNK N   1       3.752  -2.759  -0.348  0.00  0.00     0.038 C 
HETATM   42  C   UNK N   1       4.578  -2.399  -1.419  0.00  0.00     0.024 C 
HETATM   43  C   UNK N   1       5.943  -2.282  -1.160  0.00  0.00    -0.015 C 
HETATM   44  C   UNK N   1       6.463  -2.708   0.096  0.00  0.00     0.070 C 
HETATM   45  C   UNK N   1       6.978  -1.547   0.797  0.00  0.00     0.158 A 
HETATM   46  S   UNK N   1       5.835  -0.457   1.330  0.00  0.00    -0.113 SA
HETATM   47  C   UNK N   1       6.321   0.847   0.442  0.00  0.00     0.082 A 
HETATM   48  C   UNK N   1       7.498   0.415  -0.197  0.00  0.00     0.103 A 
HETATM   49  N   UNK N   1       7.852  -0.872   0.042  0.00  0.00    -0.371 N 
ATOM     50  HN  UNK N   1       8.709  -1.289  -0.321  1.00  0.00     0.161 HD
HETATM   51  C   UNK N   1       7.989   0.966  -1.461  0.00  0.00     0.269 C 
HETATM   52  O   UNK N   1       7.455   0.605  -2.498  0.00  0.00    -0.266 OA
HETATM   53  N   UNK N   1       9.141   1.666  -1.512  0.00  0.00    -0.345 N 
HETATM   54  C   UNK N   1       9.626   2.272  -0.312  0.00  0.00     0.150 C 
HETATM   55  H   UNK N   1      13.581  -0.644  -0.569  0.00  0.00     0.163 HD
HETATM   56  H   UNK N   1      14.868  -8.283  -0.159  0.00  0.00     0.163 HD
HETATM   57  H   UNK N   1      12.778  -8.149   0.940  0.00  0.00     0.163 HD
HETATM   58  H   UNK N   1       9.636   1.758  -2.358  0.00  0.00     0.163 HD
ENDROOT
BRANCH  41  59
HETATM   59  C   UNK N   1       2.432  -3.232  -0.615  0.00  0.00     0.199 A 
HETATM   60  S   UNK N   1       1.139  -2.971   0.384  0.00  0.00    -0.106 SA
HETATM   61  C   UNK N   1       0.451  -4.484   0.297  0.00  0.00     0.096 A 
HETATM   62  C   UNK N   1       1.338  -5.214  -0.518  0.00  0.00     0.115 A 
HETATM   63  N   UNK N   1       2.405  -4.519  -0.981  0.00  0.00    -0.357 N 
ATOM     64  HN  UNK N   1       3.128  -4.943  -1.563  1.00  0.00     0.162 HD
BRANCH  62  65
HETATM   65  N   UNK N   1       1.410  -6.621  -0.470  0.00  0.00    -0.279 N 
HETATM   66  C   UNK N   1       0.448  -7.394  -1.013  0.00  0.00     0.368 C 
HETATM   67  O   UNK N   1      -0.460  -6.881  -1.654  0.00  0.00    -0.238 OA
BRANCH  66  68
HETATM   68  O   UNK N   1       0.474  -8.736  -0.843  0.00  0.00    -0.298 OA
BRANCH  68  69
HETATM   69  C   UNK N   1      -0.207  -9.383   0.191  0.00  0.00     0.133 C 
HETATM   70  C   UNK N   1      -1.352 -10.190  -0.380  0.00  0.00     0.033 C 
HETATM   71  C   UNK N   1      -2.289  -9.249  -1.130  0.00  0.00     0.018 C 
HETATM   72  C   UNK N   1      -2.800  -8.068  -0.278  0.00  0.00     0.084 C 
HETATM   73  C   UNK N   1      -1.808  -7.466   0.735  0.00  0.00     0.018 C 
HETATM   74  C   UNK N   1      -0.785  -8.464   1.287  0.00  0.00     0.033 C 
BRANCH  72  75
HETATM   75  C   UNK N   1      -4.147  -8.269   0.321  0.00  0.00     0.143 C 
HETATM   76  O   UNK N   1      -4.763  -7.305   0.746  0.00  0.00    -0.650 OA
BRANCH  75  77
HETATM   77  O   UNK N   1      -4.709  -9.491   0.357  0.00  0.00    -0.776 OA
HETATM   78  H   UNK N   1      -5.641  -9.578   0.382  0.00  0.00     0.167 HD
ENDBRANCH  75  77
ENDBRANCH  72  75
ENDBRANCH  68  69
ENDBRANCH  66  68
BRANCH  65  79
HETATM   79  C   UNK N   1       2.615  -7.221   0.072  0.00  0.00     0.136 C 
BRANCH  79  80
HETATM   80  C   UNK N   1       2.394  -8.007   1.358  0.00  0.00     0.021 C 
BRANCH  80  81
HETATM   81  C   UNK N   1       2.921  -9.426   1.181  0.00  0.00     0.012 C 
BRANCH  81  82
HETATM   82  C   UNK N   1       4.413  -9.414   0.901  0.00  0.00     0.110 C 
BRANCH  82  83
HETATM   83  C   UNK N   1       4.883 -10.720   0.348  0.00  0.00     0.139 C 
HETATM   84  O   UNK N   1       4.443 -11.133  -0.713  0.00  0.00    -0.650 OA
BRANCH  83  85
HETATM   85  O   UNK N   1       5.829 -11.421   0.999  0.00  0.00    -0.776 OA
HETATM   86  H   UNK N   1       5.736 -12.236   1.452  0.00  0.00     0.167 HD
ENDBRANCH  83  85
ENDBRANCH  82  83
ENDBRANCH  81  82
ENDBRANCH  80  81
ENDBRANCH  79  80
ENDBRANCH  65  79
ENDBRANCH  62  65
ENDBRANCH  41  59
BRANCH  25  87
HETATM   87  C   UNK N   1      11.117 -10.784   0.112  0.00  0.00     0.180 C 
BRANCH  87  88
HETATM   88  O   UNK N   1      10.142 -11.625   0.657  0.00  0.00    -0.388 OA
HETATM   89  H   UNK N   1       9.299 -11.331   1.035  0.00  0.00     0.210 HD
ENDBRANCH  87  88
BRANCH  87  90
HETATM   90  C   UNK N   1      12.410 -11.520   0.131  0.00  0.00    -0.027 A 
HETATM   91  C   UNK N   1      13.530 -11.046   0.828  0.00  0.00     0.010 A 
HETATM   92  C   UNK N   1      14.713 -11.784   0.831  0.00  0.00     0.001 A 
HETATM   93  C   UNK N   1      14.777 -13.001   0.146  0.00  0.00     0.000 A 
HETATM   94  C   UNK N   1      13.661 -13.477  -0.545  0.00  0.00     0.001 A 
HETATM   95  C   UNK N   1      12.481 -12.736  -0.553  0.00  0.00     0.010 A 
ENDBRANCH  87  90
ENDBRANCH  25  87
BRANCH  54  96
HETATM   96  C   UNK N   1       8.929   3.627  -0.251  0.00  0.00     0.134 C 
BRANCH  96  97
HETATM   97  C   UNK N   1       8.104   3.771   0.983  0.00  0.00     0.219 C 
HETATM   98  O   UNK N   1       8.662   3.823   2.066  0.00  0.00    -0.274 OA
HETATM   99  N   UNK N   1       6.754   3.876   0.920  0.00  0.00    -0.365 N 
HETATM  100  C   UNK N   1       6.030   3.829  -0.328  0.00  0.00     0.149 C 
HETATM  101  H   UNK N   1       6.248   3.988   1.757  0.00  0.00     0.161 HD
ENDBRANCH  96  97
ENDBRANCH  54  96
BRANCH  11 102
HETATM  102  C   UNK N   1      16.550  -1.359  -0.848  0.00  0.00     0.007 C 
HETATM  103  C   UNK N   1      17.653  -2.324  -0.434  0.00  0.00     0.012 C 
HETATM  104  C   UNK N   1      17.199  -0.001  -1.026  0.00  0.00     0.012 C 
ENDBRANCH  11 102
BRANCH  14 105
HETATM  105  C   UNK N   1      11.842  -5.351  -0.182  0.00  0.00     0.215 C 
BRANCH 105 106
HETATM  106  O   UNK N   1      10.901  -4.934   0.765  0.00  0.00    -0.391 OA
HETATM  107  C   UNK N   1       9.980  -4.171   0.044  0.00  0.00     0.201 C 
ENDBRANCH 105 106
ENDBRANCH  14 105
TORSDOF 20
