MODEL 1
REMARK VINA RESULT:      -7.6      0.000      0.000
REMARK  8 active torsions:
REMARK  status: ('A' for Active; 'I' for Inactive)
REMARK    1  A    between atoms: C_4  and  N_25 
REMARK    2  A    between atoms: C_13  and  N_9 
REMARK    3  A    between atoms: C_14  and  O_24 
REMARK    4  A    between atoms: C_15  and  O_23 
REMARK    5  A    between atoms: C_16  and  C_18 
REMARK    6  A    between atoms: C_18  and  O_19 
REMARK    7  A    between atoms: O_19  and  N_20 
REMARK    8  A    between atoms: N_25  and  C_26 
ROOT
HETATM    1  C   UNK N   1      29.103  17.252  10.009  0.00  0.00     0.183 A 
HETATM    2  N   UNK N   1      28.137  17.575   9.086  0.00  0.00    -0.337 N 
ATOM      3  HN  UNK N   1      27.190  17.782   9.405  1.00  0.00     0.168 HD
HETATM    4  C   UNK N   1      28.419  17.622   7.749  0.00  0.00     0.133 A 
HETATM    5  C   UNK N   1      29.726  17.324   7.360  0.00  0.00     0.122 A 
HETATM    6  C   UNK N   1      30.658  17.014   8.283  0.00  0.00     0.142 A 
HETATM    7  N   UNK N   1      30.381  16.966   9.608  0.00  0.00    -0.336 N 
ATOM      8  HN  UNK N   1      31.103  16.724  10.287  1.00  0.00     0.168 HD
HETATM    9  N   UNK N   1      31.818  16.738   7.665  0.00  0.00    -0.297 N 
HETATM   10  C   UNK N   1      31.556  16.885   6.342  0.00  0.00     0.188 A 
HETATM   11  N   UNK N   1      30.267  17.258   6.130  0.00  0.00    -0.346 N 
ATOM     12  HN  UNK N   1      29.812  17.445   5.237  1.00  0.00     0.167 HD
ENDROOT
BRANCH   9  13
HETATM   13  C   UNK N   1      33.091  16.291   8.228  0.00  0.00     0.262 C 
HETATM   14  C   UNK N   1      33.915  17.419   8.786  0.00  0.00     0.198 C 
HETATM   15  C   UNK N   1      34.938  16.595   9.474  0.00  0.00     0.182 C 
HETATM   16  C   UNK N   1      34.082  15.487  10.066  0.00  0.00     0.182 C 
HETATM   17  O   UNK N   1      32.915  15.372   9.278  0.00  0.00    -0.353 OA
BRANCH  14  18
HETATM   18  O   UNK N   1      34.501  18.166   7.761  0.00  0.00    -0.388 OA
HETATM   19  H   UNK N   1      35.424  18.453   7.685  0.00  0.00     0.210 HD
ENDBRANCH  14  18
BRANCH  15  20
HETATM   20  O   UNK N   1      35.600  17.325  10.463  0.00  0.00    -0.390 OA
HETATM   21  H   UNK N   1      36.455  17.769  10.567  0.00  0.00     0.210 HD
ENDBRANCH  15  20
BRANCH  16  22
HETATM   22  C   UNK N   1      34.825  14.161  10.022  0.00  0.00     0.242 C 
BRANCH  22  23
HETATM   23  O   UNK N   1      35.820  14.114  10.971  0.00  0.00    -0.219 OA
BRANCH  23  24
HETATM   24  N   UNK N   1      35.566  14.326  12.248  0.00  0.00     0.005 N 
HETATM   25  O   UNK N   1      34.791  13.626  12.822  0.00  0.00    -0.511 OA
HETATM   26  O   UNK N   1      36.154  15.313  12.896  0.00  0.00    -0.511 OA
ENDBRANCH  23  24
ENDBRANCH  22  23
ENDBRANCH  16  22
ENDBRANCH   9  13
BRANCH   4  27
HETATM   27  N   UNK N   1      27.393  17.940   6.815  0.00  0.00    -0.370 N 
HETATM   28  H   UNK N   1      26.619  17.338   6.743  0.00  0.00     0.161 HD
BRANCH  27  29
HETATM   29  C   UNK N   1      27.445  19.109   5.969  0.00  0.00     0.083 C 
HETATM   30  C   UNK N   1      26.256  19.192   5.052  0.00  0.00     0.025 C 
HETATM   31  C   UNK N   1      26.222  20.656   4.652  0.00  0.00     0.002 C 
HETATM   32  C   UNK N   1      26.921  21.423   5.769  0.00  0.00     0.002 C 
HETATM   33  C   UNK N   1      27.359  20.382   6.778  0.00  0.00     0.025 C 
ENDBRANCH  27  29
ENDBRANCH   4  27
TORSDOF 8
ENDMDL
MODEL 2
REMARK VINA RESULT:      -7.3     10.158     12.699
REMARK  8 active torsions:
REMARK  status: ('A' for Active; 'I' for Inactive)
REMARK    1  A    between atoms: C_4  and  N_25 
REMARK    2  A    between atoms: C_13  and  N_9 
REMARK    3  A    between atoms: C_14  and  O_24 
REMARK    4  A    between atoms: C_15  and  O_23 
REMARK    5  A    between atoms: C_16  and  C_18 
REMARK    6  A    between atoms: C_18  and  O_19 
REMARK    7  A    between atoms: O_19  and  N_20 
REMARK    8  A    between atoms: N_25  and  C_26 
ROOT
HETATM    1  C   UNK N   1      20.423  16.751   7.956  0.00  0.00     0.183 A 
HETATM    2  N   UNK N   1      21.038  15.669   8.541  0.00  0.00    -0.337 N 
ATOM      3  HN  UNK N   1      20.922  15.508   9.541  1.00  0.00     0.168 HD
HETATM    4  C   UNK N   1      21.803  14.805   7.807  0.00  0.00     0.133 A 
HETATM    5  C   UNK N   1      21.939  15.071   6.444  0.00  0.00     0.122 A 
HETATM    6  C   UNK N   1      21.324  16.135   5.891  0.00  0.00     0.142 A 
HETATM    7  N   UNK N   1      20.565  16.993   6.615  0.00  0.00    -0.336 N 
ATOM      8  HN  UNK N   1      20.114  17.795   6.176  1.00  0.00     0.168 HD
HETATM    9  N   UNK N   1      21.630  16.195   4.585  0.00  0.00    -0.297 N 
HETATM   10  C   UNK N   1      22.452  15.138   4.367  0.00  0.00     0.188 A 
HETATM   11  N   UNK N   1      22.650  14.421   5.504  0.00  0.00    -0.346 N 
ATOM     12  HN  UNK N   1      23.212  13.578   5.619  1.00  0.00     0.167 HD
ENDROOT
BRANCH   9  13
HETATM   13  C   UNK N   1      21.261  17.196   3.586  0.00  0.00     0.262 C 
HETATM   14  C   UNK N   1      19.789  17.200   3.274  0.00  0.00     0.198 C 
HETATM   15  C   UNK N   1      19.758  18.453   2.481  0.00  0.00     0.182 C 
HETATM   16  C   UNK N   1      20.695  19.340   3.285  0.00  0.00     0.182 C 
HETATM   17  O   UNK N   1      21.582  18.502   3.998  0.00  0.00    -0.353 OA
BRANCH  14  18
HETATM   18  O   UNK N   1      19.443  16.110   2.474  0.00  0.00    -0.388 OA
HETATM   19  H   UNK N   1      18.597  15.936   2.033  0.00  0.00     0.210 HD
ENDBRANCH  14  18
BRANCH  15  20
HETATM   20  O   UNK N   1      18.469  18.984   2.415  0.00  0.00    -0.390 OA
HETATM   21  H   UNK N   1      17.990  19.737   2.792  0.00  0.00     0.210 HD
ENDBRANCH  15  20
BRANCH  16  22
HETATM   22  C   UNK N   1      21.511  20.229   2.359  0.00  0.00     0.242 C 
BRANCH  22  23
HETATM   23  O   UNK N   1      22.477  20.918   3.052  0.00  0.00    -0.219 OA
BRANCH  23  24
HETATM   24  N   UNK N   1      23.757  20.615   2.939  0.00  0.00     0.005 N 
HETATM   25  O   UNK N   1      24.346  20.901   1.943  0.00  0.00    -0.511 OA
HETATM   26  O   UNK N   1      24.389  19.990   3.913  0.00  0.00    -0.511 OA
ENDBRANCH  23  24
ENDBRANCH  22  23
ENDBRANCH  16  22
ENDBRANCH   9  13
BRANCH   4  27
HETATM   27  N   UNK N   1      22.444  13.705   8.443  0.00  0.00    -0.370 N 
HETATM   28  H   UNK N   1      22.974  13.086   7.893  0.00  0.00     0.161 HD
BRANCH  27  29
HETATM   29  C   UNK N   1      22.346  13.461   9.863  0.00  0.00     0.083 C 
HETATM   30  C   UNK N   1      21.112  12.679  10.216  0.00  0.00     0.025 C 
HETATM   31  C   UNK N   1      21.439  12.102  11.582  0.00  0.00     0.002 C 
HETATM   32  C   UNK N   1      22.959  12.029  11.664  0.00  0.00     0.002 C 
HETATM   33  C   UNK N   1      23.475  12.583  10.352  0.00  0.00     0.025 C 
ENDBRANCH  27  29
ENDBRANCH   4  27
TORSDOF 8
ENDMDL
MODEL 3
REMARK VINA RESULT:      -7.2      4.818      9.999
REMARK  8 active torsions:
REMARK  status: ('A' for Active; 'I' for Inactive)
REMARK    1  A    between atoms: C_4  and  N_25 
REMARK    2  A    between atoms: C_13  and  N_9 
REMARK    3  A    between atoms: C_14  and  O_24 
REMARK    4  A    between atoms: C_15  and  O_23 
REMARK    5  A    between atoms: C_16  and  C_18 
REMARK    6  A    between atoms: C_18  and  O_19 
REMARK    7  A    between atoms: O_19  and  N_20 
REMARK    8  A    between atoms: N_25  and  C_26 
ROOT
HETATM    1  C   UNK N   1      34.246  10.968  12.803  0.00  0.00     0.183 A 
HETATM    2  N   UNK N   1      34.741  10.766  14.069  0.00  0.00    -0.337 N 
ATOM      3  HN  UNK N   1      34.491   9.915  14.574  1.00  0.00     0.168 HD
HETATM    4  C   UNK N   1      35.562  11.682  14.666  0.00  0.00     0.133 A 
HETATM    5  C   UNK N   1      35.871  12.833  13.939  0.00  0.00     0.122 A 
HETATM    6  C   UNK N   1      35.377  13.009  12.698  0.00  0.00     0.142 A 
HETATM    7  N   UNK N   1      34.563  12.103  12.104  0.00  0.00    -0.336 N 
ATOM      8  HN  UNK N   1      34.197  12.260  11.165  1.00  0.00     0.168 HD
HETATM    9  N   UNK N   1      35.786  14.196  12.222  0.00  0.00    -0.297 N 
HETATM   10  C   UNK N   1      36.537  14.734  13.216  0.00  0.00     0.188 A 
HETATM   11  N   UNK N   1      36.612  13.902  14.287  0.00  0.00    -0.346 N 
ATOM     12  HN  UNK N   1      37.117  14.053  15.160  1.00  0.00     0.167 HD
ENDROOT
BRANCH   9  13
HETATM   13  C   UNK N   1      35.462  14.857  10.959  0.00  0.00     0.262 C 
HETATM   14  C   UNK N   1      35.810  14.025   9.755  0.00  0.00     0.198 C 
HETATM   15  C   UNK N   1      35.122  14.855   8.736  0.00  0.00     0.182 C 
HETATM   16  C   UNK N   1      33.838  15.218   9.463  0.00  0.00     0.182 C 
HETATM   17  O   UNK N   1      34.092  15.155  10.851  0.00  0.00    -0.353 OA
BRANCH  14  18
HETATM   18  O   UNK N   1      37.188  14.023   9.530  0.00  0.00    -0.388 OA
HETATM   19  H   UNK N   1      37.893  13.758  10.141  0.00  0.00     0.210 HD
ENDBRANCH  14  18
BRANCH  15  20
HETATM   20  O   UNK N   1      34.872  14.128   7.571  0.00  0.00    -0.390 OA
HETATM   21  H   UNK N   1      34.701  13.205   7.331  0.00  0.00     0.210 HD
ENDBRANCH  15  20
BRANCH  16  22
HETATM   22  C   UNK N   1      33.413  16.637   9.115  0.00  0.00     0.242 C 
BRANCH  22  23
HETATM   23  O   UNK N   1      34.455  17.521   9.265  0.00  0.00    -0.219 OA
BRANCH  23  24
HETATM   24  N   UNK N   1      34.789  18.365   8.306  0.00  0.00     0.005 N 
HETATM   25  O   UNK N   1      35.341  19.384   8.582  0.00  0.00    -0.511 OA
HETATM   26  O   UNK N   1      34.508  18.097   7.046  0.00  0.00    -0.511 OA
ENDBRANCH  23  24
ENDBRANCH  22  23
ENDBRANCH  16  22
ENDBRANCH   9  13
BRANCH   4  27
HETATM   27  N   UNK N   1      36.044  11.455  15.986  0.00  0.00    -0.370 N 
HETATM   28  H   UNK N   1      36.931  11.045  16.100  0.00  0.00     0.161 HD
BRANCH  27  29
HETATM   29  C   UNK N   1      35.283  11.802  17.164  0.00  0.00     0.083 C 
HETATM   30  C   UNK N   1      35.768  11.069  18.382  0.00  0.00     0.025 C 
HETATM   31  C   UNK N   1      35.237  11.906  19.532  0.00  0.00     0.002 C 
HETATM   32  C   UNK N   1      35.052  13.317  18.986  0.00  0.00     0.002 C 
HETATM   33  C   UNK N   1      35.463  13.258  17.529  0.00  0.00     0.025 C 
ENDBRANCH  27  29
ENDBRANCH   4  27
TORSDOF 8
ENDMDL
MODEL 4
REMARK VINA RESULT:      -6.9      1.448      2.536
REMARK  8 active torsions:
REMARK  status: ('A' for Active; 'I' for Inactive)
REMARK    1  A    between atoms: C_4  and  N_25 
REMARK    2  A    between atoms: C_13  and  N_9 
REMARK    3  A    between atoms: C_14  and  O_24 
REMARK    4  A    between atoms: C_15  and  O_23 
REMARK    5  A    between atoms: C_16  and  C_18 
REMARK    6  A    between atoms: C_18  and  O_19 
REMARK    7  A    between atoms: O_19  and  N_20 
REMARK    8  A    between atoms: N_25  and  C_26 
ROOT
HETATM    1  C   UNK N   1      32.196  17.338   3.997  0.00  0.00     0.183 A 
HETATM    2  N   UNK N   1      30.869  17.660   3.835  0.00  0.00    -0.337 N 
ATOM      3  HN  UNK N   1      30.534  17.957   2.918  1.00  0.00     0.168 HD
HETATM    4  C   UNK N   1      29.989  17.590   4.880  0.00  0.00     0.133 A 
HETATM    5  C   UNK N   1      30.494  17.186   6.116  0.00  0.00     0.122 A 
HETATM    6  C   UNK N   1      31.798  16.871   6.251  0.00  0.00     0.142 A 
HETATM    7  N   UNK N   1      32.672  16.939   5.218  0.00  0.00    -0.336 N 
ATOM      8  HN  UNK N   1      33.655  16.701   5.345  1.00  0.00     0.168 HD
HETATM    9  N   UNK N   1      32.045  16.546   7.530  0.00  0.00    -0.297 N 
HETATM   10  C   UNK N   1      30.853  16.679   8.164  0.00  0.00     0.188 A 
HETATM   11  N   UNK N   1      29.875  17.066   7.305  0.00  0.00    -0.346 N 
ATOM     12  HN  UNK N   1      28.890  17.228   7.514  1.00  0.00     0.167 HD
ENDROOT
BRANCH   9  13
HETATM   13  C   UNK N   1      33.310  16.199   8.176  0.00  0.00     0.262 C 
HETATM   14  C   UNK N   1      34.071  17.403   8.661  0.00  0.00     0.198 C 
HETATM   15  C   UNK N   1      35.094  16.682   9.457  0.00  0.00     0.182 C 
HETATM   16  C   UNK N   1      34.255  15.597  10.113  0.00  0.00     0.182 C 
HETATM   17  O   UNK N   1      33.124  15.370   9.296  0.00  0.00    -0.353 OA
BRANCH  14  18
HETATM   18  O   UNK N   1      34.671  18.079   7.597  0.00  0.00    -0.388 OA
HETATM   19  H   UNK N   1      34.281  18.759   7.025  0.00  0.00     0.210 HD
ENDBRANCH  14  18
BRANCH  15  20
HETATM   20  O   UNK N   1      35.690  17.520  10.401  0.00  0.00    -0.390 OA
HETATM   21  H   UNK N   1      35.412  18.234  10.994  0.00  0.00     0.210 HD
ENDBRANCH  15  20
BRANCH  16  22
HETATM   22  C   UNK N   1      35.045  14.302  10.214  0.00  0.00     0.242 C 
BRANCH  22  23
HETATM   23  O   UNK N   1      36.163  14.459  10.998  0.00  0.00    -0.219 OA
BRANCH  23  24
HETATM   24  N   UNK N   1      37.324  13.928  10.661  0.00  0.00     0.005 N 
HETATM   25  O   UNK N   1      37.756  13.008  11.283  0.00  0.00    -0.511 OA
HETATM   26  O   UNK N   1      38.016  14.413   9.649  0.00  0.00    -0.511 OA
ENDBRANCH  23  24
ENDBRANCH  22  23
ENDBRANCH  16  22
ENDBRANCH   9  13
BRANCH   4  27
HETATM   27  N   UNK N   1      28.625  17.949   4.687  0.00  0.00    -0.370 N 
HETATM   28  H   UNK N   1      27.965  17.234   4.542  0.00  0.00     0.161 HD
BRANCH  27  29
HETATM   29  C   UNK N   1      28.171  19.320   4.697  0.00  0.00     0.083 C 
HETATM   30  C   UNK N   1      26.965  19.519   3.822  0.00  0.00     0.025 C 
HETATM   31  C   UNK N   1      26.359  20.809   4.344  0.00  0.00     0.002 C 
HETATM   32  C   UNK N   1      26.815  20.940   5.793  0.00  0.00     0.002 C 
HETATM   33  C   UNK N   1      27.688  19.734   6.067  0.00  0.00     0.025 C 
ENDBRANCH  27  29
ENDBRANCH   4  27
TORSDOF 8
ENDMDL
MODEL 5
REMARK VINA RESULT:      -6.9      3.498      8.766
REMARK  8 active torsions:
REMARK  status: ('A' for Active; 'I' for Inactive)
REMARK    1  A    between atoms: C_4  and  N_25 
REMARK    2  A    between atoms: C_13  and  N_9 
REMARK    3  A    between atoms: C_14  and  O_24 
REMARK    4  A    between atoms: C_15  and  O_23 
REMARK    5  A    between atoms: C_16  and  C_18 
REMARK    6  A    between atoms: C_18  and  O_19 
REMARK    7  A    between atoms: O_19  and  N_20 
REMARK    8  A    between atoms: N_25  and  C_26 
ROOT
HETATM    1  C   UNK N   1      34.717  12.219  10.247  0.00  0.00     0.183 A 
HETATM    2  N   UNK N   1      35.574  12.021  11.304  0.00  0.00    -0.337 N 
ATOM      3  HN  UNK N   1      35.790  11.070  11.602  1.00  0.00     0.168 HD
HETATM    4  C   UNK N   1      36.142  13.075  11.965  0.00  0.00     0.133 A 
HETATM    5  C   UNK N   1      35.811  14.358  11.526  0.00  0.00     0.122 A 
HETATM    6  C   UNK N   1      34.972  14.528  10.485  0.00  0.00     0.142 A 
HETATM    7  N   UNK N   1      34.407  13.486   9.829  0.00  0.00    -0.336 N 
ATOM      8  HN  UNK N   1      33.771  13.640   9.048  1.00  0.00     0.168 HD
HETATM    9  N   UNK N   1      34.786  15.841  10.276  0.00  0.00    -0.297 N 
HETATM   10  C   UNK N   1      35.534  16.459  11.225  0.00  0.00     0.188 A 
HETATM   11  N   UNK N   1      36.186  15.559  12.006  0.00  0.00    -0.346 N 
ATOM     12  HN  UNK N   1      36.820  15.750  12.782  1.00  0.00     0.167 HD
ENDROOT
BRANCH   9  13
HETATM   13  C   UNK N   1      33.919  16.519   9.313  0.00  0.00     0.262 C 
HETATM   14  C   UNK N   1      34.686  17.313   8.291  0.00  0.00     0.198 C 
HETATM   15  C   UNK N   1      33.553  17.607   7.379  0.00  0.00     0.182 C 
HETATM   16  C   UNK N   1      32.813  16.280   7.383  0.00  0.00     0.182 C 
HETATM   17  O   UNK N   1      33.117  15.616   8.593  0.00  0.00    -0.353 OA
BRANCH  14  18
HETATM   18  O   UNK N   1      35.184  18.494   8.844  0.00  0.00    -0.388 OA
HETATM   19  H   UNK N   1      35.716  19.179   8.411  0.00  0.00     0.210 HD
ENDBRANCH  14  18
BRANCH  15  20
HETATM   20  O   UNK N   1      34.001  17.948   6.103  0.00  0.00    -0.390 OA
HETATM   21  H   UNK N   1      34.321  17.485   5.313  0.00  0.00     0.210 HD
ENDBRANCH  15  20
BRANCH  16  22
HETATM   22  C   UNK N   1      31.310  16.509   7.324  0.00  0.00     0.242 C 
BRANCH  22  23
HETATM   23  O   UNK N   1      30.977  17.759   7.790  0.00  0.00    -0.219 OA
BRANCH  23  24
HETATM   24  N   UNK N   1      30.341  17.922   8.935  0.00  0.00     0.005 N 
HETATM   25  O   UNK N   1      30.222  19.016   9.394  0.00  0.00    -0.511 OA
HETATM   26  O   UNK N   1      29.846  16.887   9.583  0.00  0.00    -0.511 OA
ENDBRANCH  23  24
ENDBRANCH  22  23
ENDBRANCH  16  22
ENDBRANCH   9  13
BRANCH   4  27
HETATM   27  N   UNK N   1      37.010  12.841  13.068  0.00  0.00    -0.370 N 
HETATM   28  H   UNK N   1      37.980  12.825  12.910  0.00  0.00     0.161 HD
BRANCH  27  29
HETATM   29  C   UNK N   1      36.523  12.625  14.411  0.00  0.00     0.083 C 
HETATM   30  C   UNK N   1      36.846  13.778  15.318  0.00  0.00     0.025 C 
HETATM   31  C   UNK N   1      35.859  13.615  16.460  0.00  0.00     0.002 C 
HETATM   32  C   UNK N   1      34.675  12.839  15.896  0.00  0.00     0.002 C 
HETATM   33  C   UNK N   1      35.013  12.556  14.447  0.00  0.00     0.025 C 
ENDBRANCH  27  29
ENDBRANCH   4  27
TORSDOF 8
ENDMDL
MODEL 6
REMARK VINA RESULT:      -6.8      5.157     10.024
REMARK  8 active torsions:
REMARK  status: ('A' for Active; 'I' for Inactive)
REMARK    1  A    between atoms: C_4  and  N_25 
REMARK    2  A    between atoms: C_13  and  N_9 
REMARK    3  A    between atoms: C_14  and  O_24 
REMARK    4  A    between atoms: C_15  and  O_23 
REMARK    5  A    between atoms: C_16  and  C_18 
REMARK    6  A    between atoms: C_18  and  O_19 
REMARK    7  A    between atoms: O_19  and  N_20 
REMARK    8  A    between atoms: N_25  and  C_26 
ROOT
HETATM    1  C   UNK N   1      33.940  10.336  12.484  0.00  0.00     0.183 A 
HETATM    2  N   UNK N   1      34.818  10.046  13.501  0.00  0.00    -0.337 N 
ATOM      3  HN  UNK N   1      34.639   9.241  14.103  1.00  0.00     0.168 HD
HETATM    4  C   UNK N   1      35.928  10.814  13.722  0.00  0.00     0.133 A 
HETATM    5  C   UNK N   1      36.128  11.907  12.878  0.00  0.00     0.122 A 
HETATM    6  C   UNK N   1      35.255  12.171  11.885  0.00  0.00     0.142 A 
HETATM    7  N   UNK N   1      34.155  11.412  11.664  0.00  0.00    -0.336 N 
ATOM      8  HN  UNK N   1      33.506  11.634  10.909  1.00  0.00     0.168 HD
HETATM    9  N   UNK N   1      35.643  13.282  11.238  0.00  0.00    -0.297 N 
HETATM   10  C   UNK N   1      36.772  13.683  11.874  0.00  0.00     0.188 A 
HETATM   11  N   UNK N   1      37.097  12.840  12.888  0.00  0.00    -0.346 N 
ATOM     12  HN  UNK N   1      37.898  12.901  13.517  1.00  0.00     0.167 HD
ENDROOT
BRANCH   9  13
HETATM   13  C   UNK N   1      34.993  13.997  10.141  0.00  0.00     0.262 C 
HETATM   14  C   UNK N   1      34.264  15.231  10.596  0.00  0.00     0.198 C 
HETATM   15  C   UNK N   1      33.989  15.804   9.255  0.00  0.00     0.182 C 
HETATM   16  C   UNK N   1      35.299  15.526   8.537  0.00  0.00     0.182 C 
HETATM   17  O   UNK N   1      35.912  14.418   9.163  0.00  0.00    -0.353 OA
BRANCH  14  18
HETATM   18  O   UNK N   1      33.068  14.900  11.237  0.00  0.00    -0.388 OA
HETATM   19  H   UNK N   1      32.706  14.016  11.406  0.00  0.00     0.210 HD
ENDBRANCH  14  18
BRANCH  15  20
HETATM   20  O   UNK N   1      33.717  17.171   9.331  0.00  0.00    -0.390 OA
HETATM   21  H   UNK N   1      33.922  17.905   9.929  0.00  0.00     0.210 HD
ENDBRANCH  15  20
BRANCH  16  22
HETATM   22  C   UNK N   1      35.042  15.175   7.080  0.00  0.00     0.242 C 
BRANCH  22  23
HETATM   23  O   UNK N   1      33.888  15.764   6.620  0.00  0.00    -0.219 OA
BRANCH  23  24
HETATM   24  N   UNK N   1      33.915  16.869   5.899  0.00  0.00     0.005 N 
HETATM   25  O   UNK N   1      33.507  16.853   4.778  0.00  0.00    -0.511 OA
HETATM   26  O   UNK N   1      34.399  17.988   6.400  0.00  0.00    -0.511 OA
ENDBRANCH  23  24
ENDBRANCH  22  23
ENDBRANCH  16  22
ENDBRANCH   9  13
BRANCH   4  27
HETATM   27  N   UNK N   1      36.809  10.501  14.795  0.00  0.00    -0.370 N 
HETATM   28  H   UNK N   1      37.557   9.884  14.627  0.00  0.00     0.161 HD
BRANCH  27  29
HETATM   29  C   UNK N   1      36.650  11.051  16.121  0.00  0.00     0.083 C 
HETATM   30  C   UNK N   1      35.645  12.169  16.148  0.00  0.00     0.025 C 
HETATM   31  C   UNK N   1      35.250  12.252  17.612  0.00  0.00     0.002 C 
HETATM   32  C   UNK N   1      35.515  10.873  18.206  0.00  0.00     0.002 C 
HETATM   33  C   UNK N   1      36.075  10.033  17.077  0.00  0.00     0.025 C 
ENDBRANCH  27  29
ENDBRANCH   4  27
TORSDOF 8
ENDMDL
MODEL 7
REMARK VINA RESULT:      -6.7      4.441      9.226
REMARK  8 active torsions:
REMARK  status: ('A' for Active; 'I' for Inactive)
REMARK    1  A    between atoms: C_4  and  N_25 
REMARK    2  A    between atoms: C_13  and  N_9 
REMARK    3  A    between atoms: C_14  and  O_24 
REMARK    4  A    between atoms: C_15  and  O_23 
REMARK    5  A    between atoms: C_16  and  C_18 
REMARK    6  A    between atoms: C_18  and  O_19 
REMARK    7  A    between atoms: O_19  and  N_20 
REMARK    8  A    between atoms: N_25  and  C_26 
ROOT
HETATM    1  C   UNK N   1      34.860  11.663  11.231  0.00  0.00     0.183 A 
HETATM    2  N   UNK N   1      35.746  11.713  12.281  0.00  0.00    -0.337 N 
ATOM      3  HN  UNK N   1      35.959  10.860  12.798  1.00  0.00     0.168 HD
HETATM    4  C   UNK N   1      36.347  12.886  12.647  0.00  0.00     0.133 A 
HETATM    5  C   UNK N   1      36.019  14.028  11.916  0.00  0.00     0.122 A 
HETATM    6  C   UNK N   1      35.150  13.955  10.888  0.00  0.00     0.142 A 
HETATM    7  N   UNK N   1      34.553  12.794  10.523  0.00  0.00    -0.336 N 
ATOM      8  HN  UNK N   1      33.895  12.764   9.745  1.00  0.00     0.168 HD
HETATM    9  N   UNK N   1      34.974  15.180  10.367  0.00  0.00    -0.297 N 
HETATM   10  C   UNK N   1      35.758  15.996  11.115  0.00  0.00     0.188 A 
HETATM   11  N   UNK N   1      36.423  15.302  12.076  0.00  0.00    -0.346 N 
ATOM     12  HN  UNK N   1      37.082  15.666  12.764  1.00  0.00     0.167 HD
ENDROOT
BRANCH   9  13
HETATM   13  C   UNK N   1      34.087  15.617   9.291  0.00  0.00     0.262 C 
HETATM   14  C   UNK N   1      32.630  15.479   9.638  0.00  0.00     0.198 C 
HETATM   15  C   UNK N   1      32.080  16.235   8.486  0.00  0.00     0.182 C 
HETATM   16  C   UNK N   1      33.063  17.390   8.389  0.00  0.00     0.182 C 
HETATM   17  O   UNK N   1      34.288  16.967   8.953  0.00  0.00    -0.353 OA
BRANCH  14  18
HETATM   18  O   UNK N   1      32.225  14.144   9.581  0.00  0.00    -0.388 OA
HETATM   19  H   UNK N   1      32.351  13.453  10.249  0.00  0.00     0.210 HD
ENDBRANCH  14  18
BRANCH  15  20
HETATM   20  O   UNK N   1      30.782  16.678   8.740  0.00  0.00    -0.390 OA
HETATM   21  H   UNK N   1      30.180  17.354   8.393  0.00  0.00     0.210 HD
ENDBRANCH  15  20
BRANCH  16  22
HETATM   22  C   UNK N   1      33.305  17.762   6.934  0.00  0.00     0.242 C 
BRANCH  22  23
HETATM   23  O   UNK N   1      34.537  17.325   6.505  0.00  0.00    -0.219 OA
BRANCH  23  24
HETATM   24  N   UNK N   1      34.663  16.258   5.739  0.00  0.00     0.005 N 
HETATM   25  O   UNK N   1      35.601  15.536   5.883  0.00  0.00    -0.511 OA
HETATM   26  O   UNK N   1      33.769  15.987   4.809  0.00  0.00    -0.511 OA
ENDBRANCH  23  24
ENDBRANCH  22  23
ENDBRANCH  16  22
ENDBRANCH   9  13
BRANCH   4  27
HETATM   27  N   UNK N   1      37.245  12.912  13.751  0.00  0.00    -0.370 N 
HETATM   28  H   UNK N   1      38.208  13.004  13.574  0.00  0.00     0.161 HD
BRANCH  27  29
HETATM   29  C   UNK N   1      36.799  12.810  15.121  0.00  0.00     0.083 C 
HETATM   30  C   UNK N   1      35.407  13.346  15.301  0.00  0.00     0.025 C 
HETATM   31  C   UNK N   1      34.948  12.706  16.599  0.00  0.00     0.002 C 
HETATM   32  C   UNK N   1      35.762  11.428  16.758  0.00  0.00     0.002 C 
HETATM   33  C   UNK N   1      36.685  11.368  15.559  0.00  0.00     0.025 C 
ENDBRANCH  27  29
ENDBRANCH   4  27
TORSDOF 8
ENDMDL
MODEL 8
REMARK VINA RESULT:      -6.6      3.992      6.256
REMARK  8 active torsions:
REMARK  status: ('A' for Active; 'I' for Inactive)
REMARK    1  A    between atoms: C_4  and  N_25 
REMARK    2  A    between atoms: C_13  and  N_9 
REMARK    3  A    between atoms: C_14  and  O_24 
REMARK    4  A    between atoms: C_15  and  O_23 
REMARK    5  A    between atoms: C_16  and  C_18 
REMARK    6  A    between atoms: C_18  and  O_19 
REMARK    7  A    between atoms: O_19  and  N_20 
REMARK    8  A    between atoms: N_25  and  C_26 
ROOT
HETATM    1  C   UNK N   1      33.482  12.786   8.787  0.00  0.00     0.183 A 
HETATM    2  N   UNK N   1      33.318  13.954   8.081  0.00  0.00    -0.337 N 
ATOM      3  HN  UNK N   1      32.918  13.920   7.143  1.00  0.00     0.168 HD
HETATM    4  C   UNK N   1      33.680  15.161   8.611  0.00  0.00     0.133 A 
HETATM    5  C   UNK N   1      34.230  15.157   9.894  0.00  0.00     0.122 A 
HETATM    6  C   UNK N   1      34.379  14.000  10.569  0.00  0.00     0.142 A 
HETATM    7  N   UNK N   1      34.021  12.803  10.046  0.00  0.00    -0.336 N 
ATOM      8  HN  UNK N   1      34.148  11.940  10.574  1.00  0.00     0.168 HD
HETATM    9  N   UNK N   1      34.953  14.251  11.756  0.00  0.00    -0.297 N 
HETATM   10  C   UNK N   1      35.152  15.593  11.775  0.00  0.00     0.188 A 
HETATM   11  N   UNK N   1      34.702  16.177  10.634  0.00  0.00    -0.346 N 
ATOM     12  HN  UNK N   1      34.718  17.168  10.393  1.00  0.00     0.167 HD
ENDROOT
BRANCH   9  13
HETATM   13  C   UNK N   1      35.374  13.322  12.803  0.00  0.00     0.262 C 
HETATM   14  C   UNK N   1      36.770  12.801  12.600  0.00  0.00     0.198 C 
HETATM   15  C   UNK N   1      36.934  12.151  13.924  0.00  0.00     0.182 C 
HETATM   16  C   UNK N   1      36.285  13.174  14.842  0.00  0.00     0.182 C 
HETATM   17  O   UNK N   1      35.354  13.914  14.079  0.00  0.00    -0.353 OA
BRANCH  14  18
HETATM   18  O   UNK N   1      36.806  11.846  11.582  0.00  0.00    -0.388 OA
HETATM   19  H   UNK N   1      37.569  11.560  11.057  0.00  0.00     0.210 HD
ENDBRANCH  14  18
BRANCH  15  20
HETATM   20  O   UNK N   1      38.280  11.955  14.233  0.00  0.00    -0.390 OA
HETATM   21  H   UNK N   1      39.095  11.732  13.756  0.00  0.00     0.210 HD
ENDBRANCH  15  20
BRANCH  16  22
HETATM   22  C   UNK N   1      35.540  12.478  15.970  0.00  0.00     0.242 C 
BRANCH  22  23
HETATM   23  O   UNK N   1      34.859  13.382  16.751  0.00  0.00    -0.219 OA
BRANCH  23  24
HETATM   24  N   UNK N   1      35.205  13.610  18.004  0.00  0.00     0.005 N 
HETATM   25  O   UNK N   1      35.558  14.700  18.331  0.00  0.00    -0.511 OA
HETATM   26  O   UNK N   1      35.174  12.640  18.897  0.00  0.00    -0.511 OA
ENDBRANCH  23  24
ENDBRANCH  22  23
ENDBRANCH  16  22
ENDBRANCH   9  13
BRANCH   4  27
HETATM   27  N   UNK N   1      33.517  16.352   7.849  0.00  0.00    -0.370 N 
HETATM   28  H   UNK N   1      33.805  17.207   8.242  0.00  0.00     0.161 HD
BRANCH  27  29
HETATM   29  C   UNK N   1      32.944  16.357   6.523  0.00  0.00     0.083 C 
HETATM   30  C   UNK N   1      31.526  16.855   6.525  0.00  0.00     0.025 C 
HETATM   31  C   UNK N   1      31.295  17.263   5.081  0.00  0.00     0.002 C 
HETATM   32  C   UNK N   1      32.668  17.579   4.499  0.00  0.00     0.002 C 
HETATM   33  C   UNK N   1      33.661  17.328   5.614  0.00  0.00     0.025 C 
ENDBRANCH  27  29
ENDBRANCH   4  27
TORSDOF 8
ENDMDL
MODEL 9
REMARK VINA RESULT:      -6.6      4.321      9.342
REMARK  8 active torsions:
REMARK  status: ('A' for Active; 'I' for Inactive)
REMARK    1  A    between atoms: C_4  and  N_25 
REMARK    2  A    between atoms: C_13  and  N_9 
REMARK    3  A    between atoms: C_14  and  O_24 
REMARK    4  A    between atoms: C_15  and  O_23 
REMARK    5  A    between atoms: C_16  and  C_18 
REMARK    6  A    between atoms: C_18  and  O_19 
REMARK    7  A    between atoms: O_19  and  N_20 
REMARK    8  A    between atoms: N_25  and  C_26 
ROOT
HETATM    1  C   UNK N   1      34.937  11.857  11.481  0.00  0.00     0.183 A 
HETATM    2  N   UNK N   1      35.660  12.104  12.623  0.00  0.00    -0.337 N 
ATOM      3  HN  UNK N   1      35.848  11.340  13.272  1.00  0.00     0.168 HD
HETATM    4  C   UNK N   1      36.133  13.355  12.907  0.00  0.00     0.133 A 
HETATM    5  C   UNK N   1      35.846  14.371  11.994  0.00  0.00     0.122 A 
HETATM    6  C   UNK N   1      35.138  14.104  10.878  0.00  0.00     0.142 A 
HETATM    7  N   UNK N   1      34.668  12.866  10.594  0.00  0.00    -0.336 N 
ATOM      8  HN  UNK N   1      34.130  12.690   9.746  1.00  0.00     0.168 HD
HETATM    9  N   UNK N   1      34.966  15.239  10.181  0.00  0.00    -0.297 N 
HETATM   10  C   UNK N   1      35.587  16.199  10.912  0.00  0.00     0.188 A 
HETATM   11  N   UNK N   1      36.148  15.681  12.036  0.00  0.00    -0.346 N 
ATOM     12  HN  UNK N   1      36.680  16.176  12.751  1.00  0.00     0.167 HD
ENDROOT
BRANCH   9  13
HETATM   13  C   UNK N   1      34.217  15.471   8.947  0.00  0.00     0.262 C 
HETATM   14  C   UNK N   1      32.729  15.506   9.162  0.00  0.00     0.198 C 
HETATM   15  C   UNK N   1      32.347  16.010   7.820  0.00  0.00     0.182 C 
HETATM   16  C   UNK N   1      33.427  17.050   7.572  0.00  0.00     0.182 C 
HETATM   17  O   UNK N   1      34.558  16.694   8.341  0.00  0.00    -0.353 OA
BRANCH  14  18
HETATM   18  O   UNK N   1      32.221  14.220   9.361  0.00  0.00    -0.388 OA
HETATM   19  H   UNK N   1      31.452  13.809   8.937  0.00  0.00     0.210 HD
ENDBRANCH  14  18
BRANCH  15  20
HETATM   20  O   UNK N   1      31.072  16.577   7.832  0.00  0.00    -0.390 OA
HETATM   21  H   UNK N   1      30.602  17.260   8.334  0.00  0.00     0.210 HD
ENDBRANCH  15  20
BRANCH  16  22
HETATM   22  C   UNK N   1      33.826  17.063   6.105  0.00  0.00     0.242 C 
BRANCH  22  23
HETATM   23  O   UNK N   1      32.865  16.470   5.320  0.00  0.00    -0.219 OA
BRANCH  23  24
HETATM   24  N   UNK N   1      32.095  17.180   4.517  0.00  0.00     0.005 N 
HETATM   25  O   UNK N   1      32.500  17.504   3.444  0.00  0.00    -0.511 OA
HETATM   26  O   UNK N   1      30.885  17.544   4.893  0.00  0.00    -0.511 OA
ENDBRANCH  23  24
ENDBRANCH  22  23
ENDBRANCH  16  22
ENDBRANCH   9  13
BRANCH   4  27
HETATM   27  N   UNK N   1      36.862  13.586  14.107  0.00  0.00    -0.370 N 
HETATM   28  H   UNK N   1      37.793  13.272  14.162  0.00  0.00     0.161 HD
BRANCH  27  29
HETATM   29  C   UNK N   1      36.291  14.263  15.249  0.00  0.00     0.083 C 
HETATM   30  C   UNK N   1      35.871  13.298  16.322  0.00  0.00     0.025 C 
HETATM   31  C   UNK N   1      35.796  14.166  17.566  0.00  0.00     0.002 C 
HETATM   32  C   UNK N   1      36.731  15.345  17.323  0.00  0.00     0.002 C 
HETATM   33  C   UNK N   1      37.309  15.141  15.938  0.00  0.00     0.025 C 
ENDBRANCH  27  29
ENDBRANCH   4  27
TORSDOF 8
ENDMDL
