MODEL 1
REMARK VINA RESULT:      -6.5      0.000      0.000
REMARK  6 active torsions:
REMARK  status: ('A' for Active; 'I' for Inactive)
REMARK    1  A    between atoms: O_21  and  C_2 
REMARK    2  A    between atoms: C_12  and  C_10 
REMARK    3  A    between atoms: N_19  and  C_10 
REMARK    4  A    between atoms: C_17  and  C_15 
REMARK    5  A    between atoms: N_18  and  C_16 
REMARK    6  A    between atoms: O_21  and  C_17 
ROOT
HETATM    1  C   UNK N   1      22.219  18.317   5.370  0.00  0.00     0.071 C 
HETATM    2  C   UNK N   1      21.349  17.650   6.435  0.00  0.00     0.278 C 
HETATM    3  C   UNK N   1      19.782  16.663   4.892  0.00  0.00     0.319 C 
HETATM    4  C   UNK N   1      21.413  18.469   4.118  0.00  0.00    -0.022 A 
HETATM    5  C   UNK N   1      20.265  17.701   3.917  0.00  0.00     0.020 A 
HETATM    6  C   UNK N   1      21.689  19.388   3.056  0.00  0.00     0.080 A 
HETATM    7  C   UNK N   1      20.710  19.329   2.050  0.00  0.00     0.085 A 
HETATM    8  N   UNK N   1      20.812  16.386   5.911  0.00  0.00     0.097 N 
HETATM    9  S   UNK N   1      19.592  18.176   2.479  0.00  0.00    -0.074 SA
ENDROOT
BRANCH   8  10
HETATM   10  C   UNK N   1      20.177  15.633   6.994  0.00  0.00     0.311 C 
BRANCH  10  11
HETATM   11  C   UNK N   1      21.126  14.768   7.794  0.00  0.00    -0.030 A 
HETATM   12  C   UNK N   1      20.795  14.457   9.119  0.00  0.00     0.009 A 
HETATM   13  C   UNK N   1      21.663  13.691   9.903  0.00  0.00     0.001 A 
HETATM   14  C   UNK N   1      22.874  13.239   9.371  0.00  0.00     0.000 A 
HETATM   15  C   UNK N   1      23.213  13.542   8.051  0.00  0.00     0.001 A 
HETATM   16  C   UNK N   1      22.341  14.298   7.264  0.00  0.00     0.009 A 
ENDBRANCH  10  11
ENDBRANCH   8  10
BRANCH   6  17
HETATM   17  C   UNK N   1      22.865  20.294   3.035  0.00  0.00     0.296 C 
HETATM   18  O   UNK N   1      22.704  21.499   2.903  0.00  0.00    -0.259 OA
BRANCH  17  19
HETATM   19  O   UNK N   1      24.115  19.789   3.181  0.00  0.00    -0.318 OA
BRANCH  19  20
HETATM   20  C   UNK N   1      25.220  20.421   2.655  0.00  0.00     0.174 C 
HETATM   21  C   UNK N   1      26.402  20.233   3.580  0.00  0.00     0.034 C 
ENDBRANCH  19  20
ENDBRANCH  17  19
ENDBRANCH   6  17
BRANCH   7  22
HETATM   22  N   UNK N   1      20.664  20.109   0.876  0.00  0.00    -0.393 N 
HETATM   23  H   UNK N   1      21.316  20.834   0.740  0.00  0.00     0.156 HD
HETATM   24  H   UNK N   1      19.979  19.929   0.192  0.00  0.00     0.156 HD
ENDBRANCH   7  22
TORSDOF 6
ENDMDL
MODEL 2
REMARK VINA RESULT:      -6.5      1.383      1.904
REMARK  6 active torsions:
REMARK  status: ('A' for Active; 'I' for Inactive)
REMARK    1  A    between atoms: O_21  and  C_2 
REMARK    2  A    between atoms: C_12  and  C_10 
REMARK    3  A    between atoms: N_19  and  C_10 
REMARK    4  A    between atoms: C_17  and  C_15 
REMARK    5  A    between atoms: N_18  and  C_16 
REMARK    6  A    between atoms: O_21  and  C_17 
ROOT
HETATM    1  C   UNK N   1      21.220  17.790   6.475  0.00  0.00     0.071 C 
HETATM    2  C   UNK N   1      20.631  16.880   7.553  0.00  0.00     0.278 C 
HETATM    3  C   UNK N   1      20.199  15.012   6.091  0.00  0.00     0.319 C 
HETATM    4  C   UNK N   1      20.747  17.317   5.137  0.00  0.00    -0.022 A 
HETATM    5  C   UNK N   1      20.255  16.020   4.976  0.00  0.00     0.020 A 
HETATM    6  C   UNK N   1      20.714  18.100   3.940  0.00  0.00     0.080 A 
HETATM    7  C   UNK N   1      20.159  17.386   2.865  0.00  0.00     0.085 A 
HETATM    8  N   UNK N   1      20.973  15.482   7.257  0.00  0.00     0.097 N 
HETATM    9  S   UNK N   1      19.760  15.864   3.403  0.00  0.00    -0.074 SA
ENDROOT
BRANCH   8  10
HETATM   10  C   UNK N   1      20.618  14.636   8.397  0.00  0.00     0.311 C 
BRANCH  10  11
HETATM   11  C   UNK N   1      21.768  13.830   8.960  0.00  0.00    -0.030 A 
HETATM   12  C   UNK N   1      21.607  13.207  10.204  0.00  0.00     0.009 A 
HETATM   13  C   UNK N   1      22.659  12.484  10.775  0.00  0.00     0.001 A 
HETATM   14  C   UNK N   1      23.885  12.388  10.111  0.00  0.00     0.000 A 
HETATM   15  C   UNK N   1      24.057  13.004   8.869  0.00  0.00     0.001 A 
HETATM   16  C   UNK N   1      23.002  13.717   8.294  0.00  0.00     0.009 A 
ENDBRANCH  10  11
ENDBRANCH   8  10
BRANCH   6  17
HETATM   17  C   UNK N   1      21.204  19.500   3.857  0.00  0.00     0.296 C 
HETATM   18  O   UNK N   1      20.405  20.425   3.849  0.00  0.00    -0.259 OA
BRANCH  17  19
HETATM   19  O   UNK N   1      22.535  19.753   3.811  0.00  0.00    -0.318 OA
BRANCH  19  20
HETATM   20  C   UNK N   1      23.098  20.499   2.799  0.00  0.00     0.174 C 
HETATM   21  C   UNK N   1      24.606  20.451   2.910  0.00  0.00     0.034 C 
ENDBRANCH  19  20
ENDBRANCH  17  19
ENDBRANCH   6  17
BRANCH   7  22
HETATM   22  N   UNK N   1      19.959  17.862   1.552  0.00  0.00    -0.393 N 
HETATM   23  H   UNK N   1      20.718  17.914   0.927  0.00  0.00     0.156 HD
HETATM   24  H   UNK N   1      19.062  18.142   1.262  0.00  0.00     0.156 HD
ENDBRANCH   7  22
TORSDOF 6
ENDMDL
MODEL 3
REMARK VINA RESULT:      -6.4     12.387     15.582
REMARK  6 active torsions:
REMARK  status: ('A' for Active; 'I' for Inactive)
REMARK    1  A    between atoms: O_21  and  C_2 
REMARK    2  A    between atoms: C_12  and  C_10 
REMARK    3  A    between atoms: N_19  and  C_10 
REMARK    4  A    between atoms: C_17  and  C_15 
REMARK    5  A    between atoms: N_18  and  C_16 
REMARK    6  A    between atoms: O_21  and  C_17 
ROOT
HETATM    1  C   UNK N   1      35.129  15.728  11.685  0.00  0.00     0.071 C 
HETATM    2  C   UNK N   1      35.373  16.703  10.534  0.00  0.00     0.278 C 
HETATM    3  C   UNK N   1      34.788  15.162   8.774  0.00  0.00     0.319 C 
HETATM    4  C   UNK N   1      35.203  14.331  11.153  0.00  0.00    -0.022 A 
HETATM    5  C   UNK N   1      35.060  14.083   9.787  0.00  0.00     0.020 A 
HETATM    6  C   UNK N   1      35.447  13.155  11.931  0.00  0.00     0.080 A 
HETATM    7  C   UNK N   1      35.518  12.004  11.128  0.00  0.00     0.085 A 
HETATM    8  N   UNK N   1      34.426  16.426   9.445  0.00  0.00     0.097 N 
HETATM    9  S   UNK N   1      35.268  12.457   9.548  0.00  0.00    -0.074 SA
ENDROOT
BRANCH   8  10
HETATM   10  C   UNK N   1      34.494  17.495   8.447  0.00  0.00     0.311 C 
BRANCH  10  11
HETATM   11  C   UNK N   1      33.412  17.436   7.392  0.00  0.00    -0.030 A 
HETATM   12  C   UNK N   1      32.077  17.335   7.802  0.00  0.00     0.009 A 
HETATM   13  C   UNK N   1      31.051  17.242   6.857  0.00  0.00     0.001 A 
HETATM   14  C   UNK N   1      31.353  17.238   5.492  0.00  0.00     0.000 A 
HETATM   15  C   UNK N   1      32.681  17.341   5.071  0.00  0.00     0.001 A 
HETATM   16  C   UNK N   1      33.705  17.445   6.016  0.00  0.00     0.009 A 
ENDBRANCH  10  11
ENDBRANCH   8  10
BRANCH   6  17
HETATM   17  C   UNK N   1      35.612  13.163  13.407  0.00  0.00     0.296 C 
HETATM   18  O   UNK N   1      36.725  13.296  13.896  0.00  0.00    -0.259 OA
BRANCH  17  19
HETATM   19  O   UNK N   1      34.528  13.043  14.213  0.00  0.00    -0.318 OA
BRANCH  19  20
HETATM   20  C   UNK N   1      34.442  12.060  15.173  0.00  0.00     0.174 C 
HETATM   21  C   UNK N   1      33.705  10.863  14.613  0.00  0.00     0.034 C 
ENDBRANCH  19  20
ENDBRANCH  17  19
ENDBRANCH   6  17
BRANCH   7  22
HETATM   22  N   UNK N   1      35.766  10.687  11.566  0.00  0.00    -0.393 N 
HETATM   23  H   UNK N   1      35.478  10.404  12.465  0.00  0.00     0.156 HD
HETATM   24  H   UNK N   1      36.225  10.049  10.974  0.00  0.00     0.156 HD
ENDBRANCH   7  22
TORSDOF 6
ENDMDL
MODEL 4
REMARK VINA RESULT:      -6.3      7.096     10.033
REMARK  6 active torsions:
REMARK  status: ('A' for Active; 'I' for Inactive)
REMARK    1  A    between atoms: O_21  and  C_2 
REMARK    2  A    between atoms: C_12  and  C_10 
REMARK    3  A    between atoms: N_19  and  C_10 
REMARK    4  A    between atoms: C_17  and  C_15 
REMARK    5  A    between atoms: N_18  and  C_16 
REMARK    6  A    between atoms: O_21  and  C_17 
ROOT
HETATM    1  C   UNK N   1      30.456  17.169   4.870  0.00  0.00     0.071 C 
HETATM    2  C   UNK N   1      28.990  16.761   4.727  0.00  0.00     0.278 C 
HETATM    3  C   UNK N   1      28.321  17.464   6.934  0.00  0.00     0.319 C 
HETATM    4  C   UNK N   1      30.792  17.249   6.326  0.00  0.00    -0.022 A 
HETATM    5  C   UNK N   1      29.781  17.369   7.281  0.00  0.00     0.020 A 
HETATM    6  C   UNK N   1      32.109  17.184   6.883  0.00  0.00     0.080 A 
HETATM    7  C   UNK N   1      32.084  17.226   8.287  0.00  0.00     0.085 A 
HETATM    8  N   UNK N   1      28.144  17.692   5.487  0.00  0.00     0.097 N 
HETATM    9  S   UNK N   1      30.500  17.356   8.774  0.00  0.00    -0.074 SA
ENDROOT
BRANCH   8  10
HETATM   10  C   UNK N   1      26.736  17.453   5.166  0.00  0.00     0.311 C 
BRANCH  10  11
HETATM   11  C   UNK N   1      26.068  18.575   4.403  0.00  0.00    -0.030 A 
HETATM   12  C   UNK N   1      24.673  18.575   4.293  0.00  0.00     0.009 A 
HETATM   13  C   UNK N   1      24.020  19.575   3.565  0.00  0.00     0.001 A 
HETATM   14  C   UNK N   1      24.760  20.577   2.931  0.00  0.00     0.000 A 
HETATM   15  C   UNK N   1      26.153  20.587   3.035  0.00  0.00     0.001 A 
HETATM   16  C   UNK N   1      26.803  19.594   3.772  0.00  0.00     0.009 A 
ENDBRANCH  10  11
ENDBRANCH   8  10
BRANCH   6  17
HETATM   17  C   UNK N   1      33.345  17.077   6.066  0.00  0.00     0.296 C 
HETATM   18  O   UNK N   1      34.187  17.962   6.118  0.00  0.00    -0.259 OA
BRANCH  17  19
HETATM   19  O   UNK N   1      33.548  15.992   5.278  0.00  0.00    -0.318 OA
BRANCH  19  20
HETATM   20  C   UNK N   1      33.489  14.711   5.778  0.00  0.00     0.174 C 
HETATM   21  C   UNK N   1      32.430  13.923   5.039  0.00  0.00     0.034 C 
ENDBRANCH  19  20
ENDBRANCH  17  19
ENDBRANCH   6  17
BRANCH   7  22
HETATM   22  N   UNK N   1      33.197  17.162   9.150  0.00  0.00    -0.393 N 
HETATM   23  H   UNK N   1      33.110  17.446  10.089  0.00  0.00     0.156 HD
HETATM   24  H   UNK N   1      34.062  16.834   8.814  0.00  0.00     0.156 HD
ENDBRANCH   7  22
TORSDOF 6
ENDMDL
MODEL 5
REMARK VINA RESULT:      -6.3     13.877     15.913
REMARK  6 active torsions:
REMARK  status: ('A' for Active; 'I' for Inactive)
REMARK    1  A    between atoms: O_21  and  C_2 
REMARK    2  A    between atoms: C_12  and  C_10 
REMARK    3  A    between atoms: N_19  and  C_10 
REMARK    4  A    between atoms: C_17  and  C_15 
REMARK    5  A    between atoms: N_18  and  C_16 
REMARK    6  A    between atoms: O_21  and  C_17 
ROOT
HETATM    1  C   UNK N   1      35.389  15.434  11.840  0.00  0.00     0.071 C 
HETATM    2  C   UNK N   1      35.377  14.369  12.937  0.00  0.00     0.278 C 
HETATM    3  C   UNK N   1      36.810  12.810  11.783  0.00  0.00     0.319 C 
HETATM    4  C   UNK N   1      35.766  14.786  10.546  0.00  0.00    -0.022 A 
HETATM    5  C   UNK N   1      36.415  13.549  10.534  0.00  0.00     0.020 A 
HETATM    6  C   UNK N   1      35.496  15.309   9.241  0.00  0.00     0.080 A 
HETATM    7  C   UNK N   1      35.924  14.432   8.230  0.00  0.00     0.085 A 
HETATM    8  N   UNK N   1      36.675  13.680  12.967  0.00  0.00     0.097 N 
HETATM    9  S   UNK N   1      36.612  13.102   8.951  0.00  0.00    -0.074 SA
ENDROOT
BRANCH   8  10
HETATM   10  C   UNK N   1      36.754  12.830  14.157  0.00  0.00     0.311 C 
BRANCH  10  11
HETATM   11  C   UNK N   1      36.525  13.558  15.463  0.00  0.00    -0.030 A 
HETATM   12  C   UNK N   1      35.558  13.065  16.346  0.00  0.00     0.009 A 
HETATM   13  C   UNK N   1      35.291  13.730  17.547  0.00  0.00     0.001 A 
HETATM   14  C   UNK N   1      35.983  14.901  17.868  0.00  0.00     0.000 A 
HETATM   15  C   UNK N   1      36.953  15.401  16.996  0.00  0.00     0.001 A 
HETATM   16  C   UNK N   1      37.226  14.730  15.801  0.00  0.00     0.009 A 
ENDBRANCH  10  11
ENDBRANCH   8  10
BRANCH   6  17
HETATM   17  C   UNK N   1      34.836  16.617   8.999  0.00  0.00     0.296 C 
HETATM   18  O   UNK N   1      35.200  17.607   9.617  0.00  0.00    -0.259 OA
BRANCH  17  19
HETATM   19  O   UNK N   1      33.844  16.718   8.080  0.00  0.00    -0.318 OA
BRANCH  19  20
HETATM   20  C   UNK N   1      33.717  17.821   7.267  0.00  0.00     0.174 C 
HETATM   21  C   UNK N   1      33.562  17.378   5.828  0.00  0.00     0.034 C 
ENDBRANCH  19  20
ENDBRANCH  17  19
ENDBRANCH   6  17
BRANCH   7  22
HETATM   22  N   UNK N   1      35.793  14.627   6.839  0.00  0.00    -0.393 N 
HETATM   23  H   UNK N   1      35.661  13.854   6.244  0.00  0.00     0.156 HD
HETATM   24  H   UNK N   1      35.835  15.535   6.463  0.00  0.00     0.156 HD
ENDBRANCH   7  22
TORSDOF 6
ENDMDL
MODEL 6
REMARK VINA RESULT:      -6.1      3.953      6.009
REMARK  6 active torsions:
REMARK  status: ('A' for Active; 'I' for Inactive)
REMARK    1  A    between atoms: O_21  and  C_2 
REMARK    2  A    between atoms: C_12  and  C_10 
REMARK    3  A    between atoms: N_19  and  C_10 
REMARK    4  A    between atoms: C_17  and  C_15 
REMARK    5  A    between atoms: N_18  and  C_16 
REMARK    6  A    between atoms: O_21  and  C_17 
ROOT
HETATM    1  C   UNK N   1      23.012  17.694   4.114  0.00  0.00     0.071 C 
HETATM    2  C   UNK N   1      24.352  18.263   3.649  0.00  0.00     0.278 C 
HETATM    3  C   UNK N   1      23.505  20.444   3.064  0.00  0.00     0.319 C 
HETATM    4  C   UNK N   1      21.910  18.497   3.498  0.00  0.00    -0.022 A 
HETATM    5  C   UNK N   1      22.160  19.775   2.994  0.00  0.00     0.020 A 
HETATM    6  C   UNK N   1      20.556  18.065   3.332  0.00  0.00     0.080 A 
HETATM    7  C   UNK N   1      19.780  19.027   2.663  0.00  0.00     0.085 A 
HETATM    8  N   UNK N   1      24.411  19.699   3.959  0.00  0.00     0.097 N 
HETATM    9  S   UNK N   1      20.750  20.336   2.329  0.00  0.00    -0.074 SA
ENDROOT
BRANCH   8  10
HETATM   10  C   UNK N   1      25.769  20.196   3.735  0.00  0.00     0.311 C 
BRANCH  10  11
HETATM   11  C   UNK N   1      26.789  19.709   4.740  0.00  0.00    -0.030 A 
HETATM   12  C   UNK N   1      27.727  18.751   4.336  0.00  0.00     0.009 A 
HETATM   13  C   UNK N   1      28.663  18.249   5.246  0.00  0.00     0.001 A 
HETATM   14  C   UNK N   1      28.660  18.693   6.571  0.00  0.00     0.000 A 
HETATM   15  C   UNK N   1      27.730  19.649   6.985  0.00  0.00     0.001 A 
HETATM   16  C   UNK N   1      26.802  20.159   6.073  0.00  0.00     0.009 A 
ENDBRANCH  10  11
ENDBRANCH   8  10
BRANCH   6  17
HETATM   17  C   UNK N   1      20.045  16.754   3.806  0.00  0.00     0.296 C 
HETATM   18  O   UNK N   1      19.204  16.712   4.693  0.00  0.00    -0.259 OA
BRANCH  17  19
HETATM   19  O   UNK N   1      20.496  15.605   3.245  0.00  0.00    -0.318 OA
BRANCH  19  20
HETATM   20  C   UNK N   1      20.515  15.423   1.880  0.00  0.00     0.174 C 
HETATM   21  C   UNK N   1      21.848  14.841   1.463  0.00  0.00     0.034 C 
ENDBRANCH  19  20
ENDBRANCH  17  19
ENDBRANCH   6  17
BRANCH   7  22
HETATM   22  N   UNK N   1      18.416  18.917   2.319  0.00  0.00    -0.393 N 
HETATM   23  H   UNK N   1      18.138  18.990   1.378  0.00  0.00     0.156 HD
HETATM   24  H   UNK N   1      17.743  18.766   3.021  0.00  0.00     0.156 HD
ENDBRANCH   7  22
TORSDOF 6
ENDMDL
MODEL 7
REMARK VINA RESULT:      -6.1      2.726      4.254
REMARK  6 active torsions:
REMARK  status: ('A' for Active; 'I' for Inactive)
REMARK    1  A    between atoms: O_21  and  C_2 
REMARK    2  A    between atoms: C_12  and  C_10 
REMARK    3  A    between atoms: N_19  and  C_10 
REMARK    4  A    between atoms: C_17  and  C_15 
REMARK    5  A    between atoms: N_18  and  C_16 
REMARK    6  A    between atoms: O_21  and  C_17 
ROOT
HETATM    1  C   UNK N   1      21.207  15.722   6.891  0.00  0.00     0.071 C 
HETATM    2  C   UNK N   1      21.350  14.216   7.109  0.00  0.00     0.278 C 
HETATM    3  C   UNK N   1      23.757  14.173   6.969  0.00  0.00     0.319 C 
HETATM    4  C   UNK N   1      22.442  16.228   6.213  0.00  0.00    -0.022 A 
HETATM    5  C   UNK N   1      23.622  15.484   6.243  0.00  0.00     0.020 A 
HETATM    6  C   UNK N   1      22.545  17.447   5.471  0.00  0.00     0.080 A 
HETATM    7  C   UNK N   1      23.822  17.607   4.907  0.00  0.00     0.085 A 
HETATM    8  N   UNK N   1      22.593  13.942   7.845  0.00  0.00     0.097 N 
HETATM    9  S   UNK N   1      24.750  16.298   5.342  0.00  0.00    -0.074 SA
ENDROOT
BRANCH   8  10
HETATM   10  C   UNK N   1      22.620  12.539   8.262  0.00  0.00     0.311 C 
BRANCH  10  11
HETATM   11  C   UNK N   1      22.807  12.331   9.748  0.00  0.00    -0.030 A 
HETATM   12  C   UNK N   1      24.108  12.218  10.252  0.00  0.00     0.009 A 
HETATM   13  C   UNK N   1      24.322  11.988  11.616  0.00  0.00     0.001 A 
HETATM   14  C   UNK N   1      23.234  11.859  12.483  0.00  0.00     0.000 A 
HETATM   15  C   UNK N   1      21.931  11.973  11.992  0.00  0.00     0.001 A 
HETATM   16  C   UNK N   1      21.719  12.213  10.632  0.00  0.00     0.009 A 
ENDBRANCH  10  11
ENDBRANCH   8  10
BRANCH   6  17
HETATM   17  C   UNK N   1      21.429  18.415   5.316  0.00  0.00     0.296 C 
HETATM   18  O   UNK N   1      20.989  18.999   6.297  0.00  0.00    -0.259 OA
BRANCH  17  19
HETATM   19  O   UNK N   1      20.913  18.667   4.089  0.00  0.00    -0.318 OA
BRANCH  19  20
HETATM   20  C   UNK N   1      20.955  19.923   3.526  0.00  0.00     0.174 C 
HETATM   21  C   UNK N   1      20.309  19.891   2.159  0.00  0.00     0.034 C 
ENDBRANCH  19  20
ENDBRANCH  17  19
ENDBRANCH   6  17
BRANCH   7  22
HETATM   22  N   UNK N   1      24.257  18.681   4.102  0.00  0.00    -0.393 N 
HETATM   23  H   UNK N   1      23.977  18.735   3.160  0.00  0.00     0.156 HD
HETATM   24  H   UNK N   1      24.842  19.375   4.482  0.00  0.00     0.156 HD
ENDBRANCH   7  22
TORSDOF 6
ENDMDL
MODEL 8
REMARK VINA RESULT:      -6.1     13.644     15.458
REMARK  6 active torsions:
REMARK  status: ('A' for Active; 'I' for Inactive)
REMARK    1  A    between atoms: O_21  and  C_2 
REMARK    2  A    between atoms: C_12  and  C_10 
REMARK    3  A    between atoms: N_19  and  C_10 
REMARK    4  A    between atoms: C_17  and  C_15 
REMARK    5  A    between atoms: N_18  and  C_16 
REMARK    6  A    between atoms: O_21  and  C_17 
ROOT
HETATM    1  C   UNK N   1      28.987  22.798  -6.178  0.00  0.00     0.071 C 
HETATM    2  C   UNK N   1      27.618  23.415  -5.891  0.00  0.00     0.278 C 
HETATM    3  C   UNK N   1      28.216  24.362  -3.756  0.00  0.00     0.319 C 
HETATM    4  C   UNK N   1      29.719  22.633  -4.883  0.00  0.00    -0.022 A 
HETATM    5  C   UNK N   1      29.336  23.358  -3.754  0.00  0.00     0.020 A 
HETATM    6  C   UNK N   1      30.815  21.741  -4.653  0.00  0.00     0.080 A 
HETATM    7  C   UNK N   1      31.243  21.776  -3.316  0.00  0.00     0.085 A 
HETATM    8  N   UNK N   1      27.790  24.664  -5.136  0.00  0.00     0.097 N 
HETATM    9  S   UNK N   1      30.304  22.878  -2.498  0.00  0.00    -0.074 SA
ENDROOT
BRANCH   8  10
HETATM   10  C   UNK N   1      26.513  25.376  -5.063  0.00  0.00     0.311 C 
BRANCH  10  11
HETATM   11  C   UNK N   1      26.640  26.874  -4.893  0.00  0.00    -0.030 A 
HETATM   12  C   UNK N   1      26.028  27.479  -3.789  0.00  0.00     0.009 A 
HETATM   13  C   UNK N   1      26.091  28.866  -3.616  0.00  0.00     0.001 A 
HETATM   14  C   UNK N   1      26.759  29.658  -4.553  0.00  0.00     0.000 A 
HETATM   15  C   UNK N   1      27.376  29.065  -5.657  0.00  0.00     0.001 A 
HETATM   16  C   UNK N   1      27.321  27.679  -5.824  0.00  0.00     0.009 A 
ENDBRANCH  10  11
ENDBRANCH   8  10
BRANCH   6  17
HETATM   17  C   UNK N   1      31.413  20.883  -5.707  0.00  0.00     0.296 C 
HETATM   18  O   UNK N   1      32.530  21.135  -6.138  0.00  0.00    -0.259 OA
BRANCH  17  19
HETATM   19  O   UNK N   1      30.732  19.809  -6.177  0.00  0.00    -0.318 OA
BRANCH  19  20
HETATM   20  C   UNK N   1      30.527  19.611  -7.524  0.00  0.00     0.174 C 
HETATM   21  C   UNK N   1      29.058  19.359  -7.784  0.00  0.00     0.034 C 
ENDBRANCH  19  20
ENDBRANCH  17  19
ENDBRANCH   6  17
BRANCH   7  22
HETATM   22  N   UNK N   1      32.283  21.012  -2.746  0.00  0.00    -0.393 N 
HETATM   23  H   UNK N   1      32.126  20.070  -2.504  0.00  0.00     0.156 HD
HETATM   24  H   UNK N   1      33.164  21.420  -2.589  0.00  0.00     0.156 HD
ENDBRANCH   7  22
TORSDOF 6
ENDMDL
MODEL 9
REMARK VINA RESULT:      -5.9     12.665     14.673
REMARK  6 active torsions:
REMARK  status: ('A' for Active; 'I' for Inactive)
REMARK    1  A    between atoms: O_21  and  C_2 
REMARK    2  A    between atoms: C_12  and  C_10 
REMARK    3  A    between atoms: N_19  and  C_10 
REMARK    4  A    between atoms: C_17  and  C_15 
REMARK    5  A    between atoms: N_18  and  C_16 
REMARK    6  A    between atoms: O_21  and  C_17 
ROOT
HETATM    1  C   UNK N   1      34.824  15.506  10.633  0.00  0.00     0.071 C 
HETATM    2  C   UNK N   1      34.780  14.224  11.464  0.00  0.00     0.278 C 
HETATM    3  C   UNK N   1      35.928  12.845   9.853  0.00  0.00     0.319 C 
HETATM    4  C   UNK N   1      35.019  15.139   9.195  0.00  0.00    -0.022 A 
HETATM    5  C   UNK N   1      35.519  13.884   8.845  0.00  0.00     0.020 A 
HETATM    6  C   UNK N   1      34.704  15.970   8.073  0.00  0.00     0.080 A 
HETATM    7  C   UNK N   1      34.946  15.313   6.855  0.00  0.00     0.085 A 
HETATM    8  N   UNK N   1      35.990  13.430  11.207  0.00  0.00     0.097 N 
HETATM    9  S   UNK N   1      35.535  13.796   7.191  0.00  0.00    -0.074 SA
ENDROOT
BRANCH   8  10
HETATM   10  C   UNK N   1      36.068  12.326  12.165  0.00  0.00     0.311 C 
BRANCH  10  11
HETATM   11  C   UNK N   1      35.848  12.732  13.606  0.00  0.00    -0.030 A 
HETATM   12  C   UNK N   1      36.776  13.586  14.213  0.00  0.00     0.009 A 
HETATM   13  C   UNK N   1      36.627  13.955  15.554  0.00  0.00     0.001 A 
HETATM   14  C   UNK N   1      35.553  13.462  16.301  0.00  0.00     0.000 A 
HETATM   15  C   UNK N   1      34.620  12.611  15.705  0.00  0.00     0.001 A 
HETATM   16  C   UNK N   1      34.763  12.252  14.363  0.00  0.00     0.009 A 
ENDBRANCH  10  11
ENDBRANCH   8  10
BRANCH   6  17
HETATM   17  C   UNK N   1      34.179  17.354   8.194  0.00  0.00     0.296 C 
HETATM   18  O   UNK N   1      34.805  18.287   7.712  0.00  0.00    -0.259 OA
BRANCH  17  19
HETATM   19  O   UNK N   1      32.998  17.581   8.821  0.00  0.00    -0.318 OA
BRANCH  19  20
HETATM   20  C   UNK N   1      31.797  17.524   8.149  0.00  0.00     0.174 C 
HETATM   21  C   UNK N   1      30.739  18.267   8.934  0.00  0.00     0.034 C 
ENDBRANCH  19  20
ENDBRANCH  17  19
ENDBRANCH   6  17
BRANCH   7  22
HETATM   22  N   UNK N   1      34.726  15.833   5.562  0.00  0.00    -0.393 N 
HETATM   23  H   UNK N   1      33.947  15.537   5.038  0.00  0.00     0.156 HD
HETATM   24  H   UNK N   1      35.351  16.491   5.184  0.00  0.00     0.156 HD
ENDBRANCH   7  22
TORSDOF 6
ENDMDL
