REMARK  4 active torsions:
REMARK  status: ('A' for Active; 'I' for Inactive)
REMARK    1  A    between atoms: C_19  and  C_16 
REMARK    2  A    between atoms: N_27  and  C_16 
REMARK    3  A    between atoms: C_26  and  C_17 
REMARK    4  A    between atoms: N_28  and  C_17 
REMARK       I    between atoms: N_29  and  C_26 
ROOT
HETATM    1  C   UNK N   1       3.928  -0.495   0.917  0.00  0.00     0.375 C 
ENDROOT
BRANCH   1   2
HETATM    2  C   UNK N   1       2.709   0.254   0.424  0.00  0.00     0.257 C 
HETATM    3  N   UNK N   1       2.717   1.621   0.095  0.00  0.00    -0.279 N 
HETATM    4  C   UNK N   1       3.986   2.343  -0.021  0.00  0.00     0.059 A 
HETATM    5  C   UNK N   1       1.443   2.313  -0.130  0.00  0.00     0.059 A 
HETATM    6  C   UNK N   1       5.214   1.643   0.005  0.00  0.00     0.031 A 
HETATM    7  C   UNK N   1       4.073   3.747  -0.215  0.00  0.00     0.033 A 
HETATM    8  C   UNK N   1       6.449   2.268  -0.123  0.00  0.00     0.002 A 
HETATM    9  C   UNK N   1       6.505   3.639  -0.298  0.00  0.00     0.002 A 
HETATM   10  C   UNK N   1       5.324   4.368  -0.345  0.00  0.00     0.021 A 
HETATM   11  S   UNK N   1       2.695   4.852  -0.284  0.00  0.00    -0.086 SA
HETATM   12  C   UNK N   1       1.339   3.717  -0.315  0.00  0.00     0.033 A 
HETATM   13  C   UNK N   1       0.084   4.319  -0.486  0.00  0.00     0.021 A 
HETATM   14  C   UNK N   1      -1.086   3.572  -0.481  0.00  0.00     0.002 A 
HETATM   15  C   UNK N   1      -1.017   2.202  -0.301  0.00  0.00     0.002 A 
HETATM   16  C   UNK N   1       0.223   1.591  -0.130  0.00  0.00     0.031 A 
HETATM   17  O   UNK N   1       1.670  -0.388   0.427  0.00  0.00    -0.271 OA
ENDBRANCH   1   2
BRANCH   1  18
HETATM   18  N   UNK N   1       4.576  -1.369  -0.061  0.00  0.00     0.100 N 
HETATM   19  C   UNK N   1       5.619  -2.036   0.733  0.00  0.00     0.303 C 
HETATM   20  C   UNK N   1       6.193  -3.290   0.055  0.00  0.00     0.303 C 
HETATM   21  N   UNK N   1       5.129  -4.227  -0.309  0.00  0.00     0.096 N 
HETATM   22  C   UNK N   1       4.246  -3.523  -1.247  0.00  0.00     0.303 C 
HETATM   23  C   UNK N   1       3.585  -2.325  -0.567  0.00  0.00     0.303 C 
BRANCH  21  24
HETATM   24  C   UNK N   1       4.454  -4.688   0.924  0.00  0.00     0.311 C 
BRANCH  24  25
HETATM   25  C   UNK N   1       3.051  -5.163   0.694  0.00  0.00    -0.027 A 
HETATM   26  C   UNK N   1       1.971  -4.411   1.217  0.00  0.00     0.012 A 
HETATM   27  C   UNK N   1       0.645  -4.794   0.948  0.00  0.00     0.040 A 
HETATM   28  C   UNK N   1       0.452  -5.925   0.161  0.00  0.00     0.105 A 
HETATM   29  C   UNK N   1       1.473  -6.643  -0.326  0.00  0.00     0.105 A 
HETATM   30  O   UNK N   1      -0.695  -6.474  -0.230  0.00  0.00    -0.323 OA
HETATM   31  C   UNK N   1       2.802  -6.303  -0.093  0.00  0.00     0.048 A 
HETATM   32  O   UNK N   1       0.993  -7.663  -1.033  0.00  0.00    -0.323 OA
HETATM   33  C   UNK N   1      -0.404  -7.601  -1.005  0.00  0.00     0.352 A 
ENDBRANCH  24  25
ENDBRANCH  21  24
ENDBRANCH   1  18
TORSDOF 4
