MODEL 1
REMARK VINA RESULT:      -5.1      0.000      0.000
REMARK  6 active torsions:
REMARK  status: ('A' for Active; 'I' for Inactive)
REMARK    1  A    between atoms: C_1  and  O_11 
REMARK    2  A    between atoms: C_2  and  O_9 
REMARK    3  A    between atoms: C_3  and  O_10 
REMARK    4  A    between atoms: C_4  and  O_12 
REMARK    5  A    between atoms: C_5  and  O_7 
REMARK    6  A    between atoms: C_6  and  O_8 
ROOT
HETATM    1  C   UNK N   1      20.150  17.181   2.248  0.00  0.00     0.180 A 
HETATM    2  C   UNK N   1      20.386  17.742   3.645  0.00  0.00     0.180 A 
HETATM    3  C   UNK N   1      20.803  19.195   3.821  0.00  0.00     0.180 A 
HETATM    4  C   UNK N   1      20.984  20.089   2.602  0.00  0.00     0.180 A 
HETATM    5  C   UNK N   1      20.748  19.529   1.205  0.00  0.00     0.180 A 
HETATM    6  C   UNK N   1      20.331  18.076   1.028  0.00  0.00     0.180 A 
ENDROOT
BRANCH   1   7
HETATM    7  O   UNK N   1      19.768  15.849   2.086  0.00  0.00    -0.390 OA
HETATM    8  H   UNK N   1      19.848  15.228   2.827  0.00  0.00     0.210 HD
ENDBRANCH   1   7
BRANCH   2   9
HETATM    9  O   UNK N   1      20.220  16.923   4.762  0.00  0.00    -0.390 OA
HETATM   10  H   UNK N   1      20.767  16.129   4.867  0.00  0.00     0.210 HD
ENDBRANCH   2   9
BRANCH   6  11
HETATM   11  O   UNK N   1      20.115  17.562  -0.251  0.00  0.00    -0.390 OA
HETATM   12  H   UNK N   1      19.491  16.831  -0.381  0.00  0.00     0.210 HD
ENDBRANCH   6  11
BRANCH   3  13
HETATM   13  O   UNK N   1      21.019  19.709   5.100  0.00  0.00    -0.390 OA
HETATM   14  H   UNK N   1      21.555  19.212   5.738  0.00  0.00     0.210 HD
ENDBRANCH   3  13
BRANCH   5  15
HETATM   15  O   UNK N   1      20.914  20.348   0.088  0.00  0.00    -0.390 OA
HETATM   16  H   UNK N   1      21.474  21.137   0.144  0.00  0.00     0.210 HD
ENDBRANCH   5  15
BRANCH   4  17
HETATM   17  O   UNK N   1      21.366  21.421   2.763  0.00  0.00    -0.390 OA
HETATM   18  H   UNK N   1      22.217  21.635   3.177  0.00  0.00     0.210 HD
ENDBRANCH   4  17
TORSDOF 6
ENDMDL
MODEL 2
REMARK VINA RESULT:      -5.1      0.020      4.655
REMARK  6 active torsions:
REMARK  status: ('A' for Active; 'I' for Inactive)
REMARK    1  A    between atoms: C_1  and  O_11 
REMARK    2  A    between atoms: C_2  and  O_9 
REMARK    3  A    between atoms: C_3  and  O_10 
REMARK    4  A    between atoms: C_4  and  O_12 
REMARK    5  A    between atoms: C_5  and  O_7 
REMARK    6  A    between atoms: C_6  and  O_8 
ROOT
HETATM    1  C   UNK N   1      20.977  20.078   2.590  0.00  0.00     0.180 A 
HETATM    2  C   UNK N   1      20.739  19.509   1.198  0.00  0.00     0.180 A 
HETATM    3  C   UNK N   1      20.323  18.055   1.030  0.00  0.00     0.180 A 
HETATM    4  C   UNK N   1      20.144  17.167   2.255  0.00  0.00     0.180 A 
HETATM    5  C   UNK N   1      20.382  17.736   3.648  0.00  0.00     0.180 A 
HETATM    6  C   UNK N   1      20.798  19.191   3.816  0.00  0.00     0.180 A 
ENDROOT
BRANCH   1   7
HETATM    7  O   UNK N   1      21.359  21.411   2.744  0.00  0.00    -0.390 OA
HETATM    8  H   UNK N   1      21.785  21.702   3.565  0.00  0.00     0.210 HD
ENDBRANCH   1   7
BRANCH   2   9
HETATM    9  O   UNK N   1      20.903  20.322   0.076  0.00  0.00    -0.390 OA
HETATM   10  H   UNK N   1      21.171  19.932  -0.771  0.00  0.00     0.210 HD
ENDBRANCH   2   9
BRANCH   6  11
HETATM   11  O   UNK N   1      21.016  19.712   5.091  0.00  0.00    -0.390 OA
HETATM   12  H   UNK N   1      20.442  20.416   5.432  0.00  0.00     0.210 HD
ENDBRANCH   6  11
BRANCH   3  13
HETATM   13  O   UNK N   1      20.105  17.533  -0.246  0.00  0.00    -0.390 OA
HETATM   14  H   UNK N   1      19.355  17.845  -0.775  0.00  0.00     0.210 HD
ENDBRANCH   3  13
BRANCH   5  15
HETATM   15  O   UNK N   1      20.218  16.923   4.770  0.00  0.00    -0.390 OA
HETATM   16  H   UNK N   1      20.664  17.147   5.601  0.00  0.00     0.210 HD
ENDBRANCH   5  15
BRANCH   4  17
HETATM   17  O   UNK N   1      19.762  15.834   2.102  0.00  0.00    -0.390 OA
HETATM   18  H   UNK N   1      20.372  15.199   1.695  0.00  0.00     0.210 HD
ENDBRANCH   4  17
TORSDOF 6
ENDMDL
MODEL 3
REMARK VINA RESULT:      -5.1      0.014      3.292
REMARK  6 active torsions:
REMARK  status: ('A' for Active; 'I' for Inactive)
REMARK    1  A    between atoms: C_1  and  O_11 
REMARK    2  A    between atoms: C_2  and  O_9 
REMARK    3  A    between atoms: C_3  and  O_10 
REMARK    4  A    between atoms: C_4  and  O_12 
REMARK    5  A    between atoms: C_5  and  O_7 
REMARK    6  A    between atoms: C_6  and  O_8 
ROOT
HETATM    1  C   UNK N   1      20.138  17.176   2.246  0.00  0.00     0.180 A 
HETATM    2  C   UNK N   1      20.325  18.067   1.025  0.00  0.00     0.180 A 
HETATM    3  C   UNK N   1      20.746  19.519   1.199  0.00  0.00     0.180 A 
HETATM    4  C   UNK N   1      20.980  20.082   2.595  0.00  0.00     0.180 A 
HETATM    5  C   UNK N   1      20.793  19.191   3.816  0.00  0.00     0.180 A 
HETATM    6  C   UNK N   1      20.372  17.739   3.642  0.00  0.00     0.180 A 
ENDROOT
BRANCH   1   7
HETATM    7  O   UNK N   1      19.752  15.845   2.087  0.00  0.00    -0.390 OA
HETATM    8  H   UNK N   1      19.301  15.381   2.809  0.00  0.00     0.210 HD
ENDBRANCH   1   7
BRANCH   2   9
HETATM    9  O   UNK N   1      20.110  17.551  -0.253  0.00  0.00    -0.390 OA
HETATM   10  H   UNK N   1      20.794  17.012  -0.680  0.00  0.00     0.210 HD
ENDBRANCH   2   9
BRANCH   6  11
HETATM   11  O   UNK N   1      20.201  16.923   4.761  0.00  0.00    -0.390 OA
HETATM   12  H   UNK N   1      20.069  17.320   5.636  0.00  0.00     0.210 HD
ENDBRANCH   6  11
BRANCH   3  13
HETATM   13  O   UNK N   1      20.917  20.335   0.081  0.00  0.00    -0.390 OA
HETATM   14  H   UNK N   1      21.230  19.954  -0.755  0.00  0.00     0.210 HD
ENDBRANCH   3  13
BRANCH   5  15
HETATM   15  O   UNK N   1      21.008  19.707   5.095  0.00  0.00    -0.390 OA
HETATM   16  H   UNK N   1      21.563  19.224   5.726  0.00  0.00     0.210 HD
ENDBRANCH   5  15
BRANCH   4  17
HETATM   17  O   UNK N   1      21.366  21.413   2.755  0.00  0.00    -0.390 OA
HETATM   18  H   UNK N   1      21.161  22.063   2.065  0.00  0.00     0.210 HD
ENDBRANCH   4  17
TORSDOF 6
ENDMDL
MODEL 4
REMARK VINA RESULT:      -5.1      0.013      3.291
REMARK  6 active torsions:
REMARK  status: ('A' for Active; 'I' for Inactive)
REMARK    1  A    between atoms: C_1  and  O_11 
REMARK    2  A    between atoms: C_2  and  O_9 
REMARK    3  A    between atoms: C_3  and  O_10 
REMARK    4  A    between atoms: C_4  and  O_12 
REMARK    5  A    between atoms: C_5  and  O_7 
REMARK    6  A    between atoms: C_6  and  O_8 
ROOT
HETATM    1  C   UNK N   1      20.332  18.070   1.021  0.00  0.00     0.180 A 
HETATM    2  C   UNK N   1      20.752  19.524   1.196  0.00  0.00     0.180 A 
HETATM    3  C   UNK N   1      20.984  20.087   2.590  0.00  0.00     0.180 A 
HETATM    4  C   UNK N   1      20.796  19.197   3.812  0.00  0.00     0.180 A 
HETATM    5  C   UNK N   1      20.376  17.743   3.637  0.00  0.00     0.180 A 
HETATM    6  C   UNK N   1      20.144  17.180   2.243  0.00  0.00     0.180 A 
ENDROOT
BRANCH   1   7
HETATM    7  O   UNK N   1      20.119  17.555  -0.258  0.00  0.00    -0.390 OA
HETATM    8  H   UNK N   1      19.419  17.922  -0.819  0.00  0.00     0.210 HD
ENDBRANCH   1   7
BRANCH   2   9
HETATM    9  O   UNK N   1      20.924  20.339   0.076  0.00  0.00    -0.390 OA
HETATM   10  H   UNK N   1      20.151  20.705  -0.381  0.00  0.00     0.210 HD
ENDBRANCH   2   9
BRANCH   6  11
HETATM   11  O   UNK N   1      19.759  15.849   2.082  0.00  0.00    -0.390 OA
HETATM   12  H   UNK N   1      19.922  15.395   1.241  0.00  0.00     0.210 HD
ENDBRANCH   6  11
BRANCH   3  13
HETATM   13  O   UNK N   1      21.369  21.419   2.751  0.00  0.00    -0.390 OA
HETATM   14  H   UNK N   1      21.228  22.054   2.032  0.00  0.00     0.210 HD
ENDBRANCH   3  13
BRANCH   5  15
HETATM   15  O   UNK N   1      20.204  16.928   4.757  0.00  0.00    -0.390 OA
HETATM   16  H   UNK N   1      19.424  17.039   5.322  0.00  0.00     0.210 HD
ENDBRANCH   5  15
BRANCH   4  17
HETATM   17  O   UNK N   1      21.008  19.713   5.091  0.00  0.00    -0.390 OA
HETATM   18  H   UNK N   1      20.781  20.636   5.285  0.00  0.00     0.210 HD
ENDBRANCH   4  17
TORSDOF 6
ENDMDL
MODEL 5
REMARK VINA RESULT:      -5.1      0.059      3.292
REMARK  6 active torsions:
REMARK  status: ('A' for Active; 'I' for Inactive)
REMARK    1  A    between atoms: C_1  and  O_11 
REMARK    2  A    between atoms: C_2  and  O_9 
REMARK    3  A    between atoms: C_3  and  O_10 
REMARK    4  A    between atoms: C_4  and  O_12 
REMARK    5  A    between atoms: C_5  and  O_7 
REMARK    6  A    between atoms: C_6  and  O_8 
ROOT
HETATM    1  C   UNK N   1      20.718  19.531   1.167  0.00  0.00     0.180 A 
HETATM    2  C   UNK N   1      20.940  20.111   2.558  0.00  0.00     0.180 A 
HETATM    3  C   UNK N   1      20.752  19.233   3.787  0.00  0.00     0.180 A 
HETATM    4  C   UNK N   1      20.342  17.775   3.627  0.00  0.00     0.180 A 
HETATM    5  C   UNK N   1      20.120  17.196   2.236  0.00  0.00     0.180 A 
HETATM    6  C   UNK N   1      20.308  18.073   1.006  0.00  0.00     0.180 A 
ENDROOT
BRANCH   1   7
HETATM    7  O   UNK N   1      20.891  20.336   0.040  0.00  0.00    -0.390 OA
HETATM    8  H   UNK N   1      20.170  20.911  -0.260  0.00  0.00     0.210 HD
ENDBRANCH   1   7
BRANCH   2   9
HETATM    9  O   UNK N   1      21.316  21.447   2.704  0.00  0.00    -0.390 OA
HETATM   10  H   UNK N   1      22.121  21.673   3.194  0.00  0.00     0.210 HD
ENDBRANCH   2   9
BRANCH   6  11
HETATM   11  O   UNK N   1      20.105  17.542  -0.268  0.00  0.00    -0.390 OA
HETATM   12  H   UNK N   1      20.131  16.582  -0.403  0.00  0.00     0.210 HD
ENDBRANCH   6  11
BRANCH   3  13
HETATM   13  O   UNK N   1      20.956  19.764   5.061  0.00  0.00    -0.390 OA
HETATM   14  H   UNK N   1      21.857  19.915   5.386  0.00  0.00     0.210 HD
ENDBRANCH   3  13
BRANCH   5  15
HETATM   15  O   UNK N   1      19.745  15.860   2.089  0.00  0.00    -0.390 OA
HETATM   16  H   UNK N   1      19.551  15.322   2.872  0.00  0.00     0.210 HD
ENDBRANCH   5  15
BRANCH   4  17
HETATM   17  O   UNK N   1      20.170  16.971   4.753  0.00  0.00    -0.390 OA
HETATM   18  H   UNK N   1      20.037  17.378   5.624  0.00  0.00     0.210 HD
ENDBRANCH   4  17
TORSDOF 6
ENDMDL
MODEL 6
REMARK VINA RESULT:      -5.1      0.096      2.325
REMARK  6 active torsions:
REMARK  status: ('A' for Active; 'I' for Inactive)
REMARK    1  A    between atoms: C_1  and  O_11 
REMARK    2  A    between atoms: C_2  and  O_9 
REMARK    3  A    between atoms: C_3  and  O_10 
REMARK    4  A    between atoms: C_4  and  O_12 
REMARK    5  A    between atoms: C_5  and  O_7 
REMARK    6  A    between atoms: C_6  and  O_8 
ROOT
HETATM    1  C   UNK N   1      20.315  18.127   0.970  0.00  0.00     0.180 A 
HETATM    2  C   UNK N   1      20.169  17.227   2.190  0.00  0.00     0.180 A 
HETATM    3  C   UNK N   1      20.403  17.791   3.585  0.00  0.00     0.180 A 
HETATM    4  C   UNK N   1      20.783  19.255   3.761  0.00  0.00     0.180 A 
HETATM    5  C   UNK N   1      20.928  20.156   2.541  0.00  0.00     0.180 A 
HETATM    6  C   UNK N   1      20.694  19.592   1.146  0.00  0.00     0.180 A 
ENDROOT
BRANCH   1   7
HETATM    7  O   UNK N   1      20.100  17.611  -0.308  0.00  0.00    -0.390 OA
HETATM    8  H   UNK N   1      20.805  17.655  -0.973  0.00  0.00     0.210 HD
ENDBRANCH   1   7
BRANCH   2   9
HETATM    9  O   UNK N   1      19.822  15.886   2.029  0.00  0.00    -0.390 OA
HETATM   10  H   UNK N   1      20.465  15.190   2.234  0.00  0.00     0.210 HD
ENDBRANCH   2   9
BRANCH   6  11
HETATM   11  O   UNK N   1      20.827  20.417   0.029  0.00  0.00    -0.390 OA
HETATM   12  H   UNK N   1      20.413  21.294   0.021  0.00  0.00     0.210 HD
ENDBRANCH   6  11
BRANCH   3  13
HETATM   13  O   UNK N   1      20.270  16.966   4.702  0.00  0.00    -0.390 OA
HETATM   14  H   UNK N   1      21.040  16.488   5.047  0.00  0.00     0.210 HD
ENDBRANCH   3  13
BRANCH   5  15
HETATM   15  O   UNK N   1      21.275  21.497   2.702  0.00  0.00    -0.390 OA
HETATM   16  H   UNK N   1      21.478  21.843   3.585  0.00  0.00     0.210 HD
ENDBRANCH   5  15
BRANCH   4  17
HETATM   17  O   UNK N   1      20.997  19.772   5.039  0.00  0.00    -0.390 OA
HETATM   18  H   UNK N   1      21.698  20.425   5.186  0.00  0.00     0.210 HD
ENDBRANCH   4  17
TORSDOF 6
ENDMDL
MODEL 7
REMARK VINA RESULT:      -5.1      0.074      4.028
REMARK  6 active torsions:
REMARK  status: ('A' for Active; 'I' for Inactive)
REMARK    1  A    between atoms: C_1  and  O_11 
REMARK    2  A    between atoms: C_2  and  O_9 
REMARK    3  A    between atoms: C_3  and  O_10 
REMARK    4  A    between atoms: C_4  and  O_12 
REMARK    5  A    between atoms: C_5  and  O_7 
REMARK    6  A    between atoms: C_6  and  O_8 
ROOT
HETATM    1  C   UNK N   1      20.694  19.563   1.153  0.00  0.00     0.180 A 
HETATM    2  C   UNK N   1      20.307  18.100   0.980  0.00  0.00     0.180 A 
HETATM    3  C   UNK N   1      20.159  17.201   2.200  0.00  0.00     0.180 A 
HETATM    4  C   UNK N   1      20.398  17.765   3.594  0.00  0.00     0.180 A 
HETATM    5  C   UNK N   1      20.785  19.228   3.768  0.00  0.00     0.180 A 
HETATM    6  C   UNK N   1      20.933  20.126   2.548  0.00  0.00     0.180 A 
ENDROOT
BRANCH   1   7
HETATM    7  O   UNK N   1      20.829  20.386   0.035  0.00  0.00    -0.390 OA
HETATM    8  H   UNK N   1      20.042  20.761  -0.389  0.00  0.00     0.210 HD
ENDBRANCH   1   7
BRANCH   2   9
HETATM    9  O   UNK N   1      20.088  17.584  -0.298  0.00  0.00    -0.390 OA
HETATM   10  H   UNK N   1      19.717  18.149  -0.993  0.00  0.00     0.210 HD
ENDBRANCH   2   9
BRANCH   6  11
HETATM   11  O   UNK N   1      21.287  21.466   2.707  0.00  0.00    -0.390 OA
HETATM   12  H   UNK N   1      21.866  21.895   2.058  0.00  0.00     0.210 HD
ENDBRANCH   6  11
BRANCH   3  13
HETATM   13  O   UNK N   1      19.805  15.861   2.041  0.00  0.00    -0.390 OA
HETATM   14  H   UNK N   1      19.992  15.406   1.205  0.00  0.00     0.210 HD
ENDBRANCH   3  13
BRANCH   5  15
HETATM   15  O   UNK N   1      21.004  19.744   5.046  0.00  0.00    -0.390 OA
HETATM   16  H   UNK N   1      21.905  19.801   5.398  0.00  0.00     0.210 HD
ENDBRANCH   5  15
BRANCH   4  17
HETATM   17  O   UNK N   1      20.263  16.942   4.712  0.00  0.00    -0.390 OA
HETATM   18  H   UNK N   1      20.704  17.176   5.544  0.00  0.00     0.210 HD
ENDBRANCH   4  17
TORSDOF 6
ENDMDL
MODEL 8
REMARK VINA RESULT:      -5.0      0.165      3.296
REMARK  6 active torsions:
REMARK  status: ('A' for Active; 'I' for Inactive)
REMARK    1  A    between atoms: C_1  and  O_11 
REMARK    2  A    between atoms: C_2  and  O_9 
REMARK    3  A    between atoms: C_3  and  O_10 
REMARK    4  A    between atoms: C_4  and  O_12 
REMARK    5  A    between atoms: C_5  and  O_7 
REMARK    6  A    between atoms: C_6  and  O_8 
ROOT
HETATM    1  C   UNK N   1      20.546  17.749   3.590  0.00  0.00     0.180 A 
HETATM    2  C   UNK N   1      20.315  17.182   2.195  0.00  0.00     0.180 A 
HETATM    3  C   UNK N   1      20.383  18.097   0.981  0.00  0.00     0.180 A 
HETATM    4  C   UNK N   1      20.683  19.580   1.160  0.00  0.00     0.180 A 
HETATM    5  C   UNK N   1      20.914  20.147   2.555  0.00  0.00     0.180 A 
HETATM    6  C   UNK N   1      20.846  19.232   3.769  0.00  0.00     0.180 A 
ENDROOT
BRANCH   1   7
HETATM    7  O   UNK N   1      20.484  16.910   4.703  0.00  0.00    -0.390 OA
HETATM    8  H   UNK N   1      20.665  15.962   4.607  0.00  0.00     0.210 HD
ENDBRANCH   1   7
BRANCH   2   9
HETATM    9  O   UNK N   1      20.040  15.824   2.032  0.00  0.00    -0.390 OA
HETATM   10  H   UNK N   1      20.041  15.433   1.145  0.00  0.00     0.210 HD
ENDBRANCH   2   9
BRANCH   6  11
HETATM   11  O   UNK N   1      21.058  19.751   5.047  0.00  0.00    -0.390 OA
HETATM   12  H   UNK N   1      20.311  20.098   5.560  0.00  0.00     0.210 HD
ENDBRANCH   6  11
BRANCH   3  13
HETATM   13  O   UNK N   1      20.171  17.579  -0.297  0.00  0.00    -0.390 OA
HETATM   14  H   UNK N   1      19.835  16.675  -0.404  0.00  0.00     0.210 HD
ENDBRANCH   3  13
BRANCH   5  15
HETATM   15  O   UNK N   1      21.189  21.505   2.719  0.00  0.00    -0.390 OA
HETATM   16  H   UNK N   1      22.027  21.786   3.117  0.00  0.00     0.210 HD
ENDBRANCH   5  15
BRANCH   4  17
HETATM   17  O   UNK N   1      20.745  20.419   0.047  0.00  0.00    -0.390 OA
HETATM   18  H   UNK N   1      21.352  21.175   0.043  0.00  0.00     0.210 HD
ENDBRANCH   4  17
TORSDOF 6
ENDMDL
MODEL 9
REMARK VINA RESULT:      -5.0     14.031     15.222
REMARK  6 active torsions:
REMARK  status: ('A' for Active; 'I' for Inactive)
REMARK    1  A    between atoms: C_1  and  O_11 
REMARK    2  A    between atoms: C_2  and  O_9 
REMARK    3  A    between atoms: C_3  and  O_10 
REMARK    4  A    between atoms: C_4  and  O_12 
REMARK    5  A    between atoms: C_5  and  O_7 
REMARK    6  A    between atoms: C_6  and  O_8 
ROOT
HETATM    1  C   UNK N   1      33.937  17.195   7.163  0.00  0.00     0.180 A 
HETATM    2  C   UNK N   1      33.156  15.887   7.153  0.00  0.00     0.180 A 
HETATM    3  C   UNK N   1      33.013  15.076   8.433  0.00  0.00     0.180 A 
HETATM    4  C   UNK N   1      33.652  15.571   9.724  0.00  0.00     0.180 A 
HETATM    5  C   UNK N   1      34.433  16.879   9.734  0.00  0.00     0.180 A 
HETATM    6  C   UNK N   1      34.575  17.690   8.454  0.00  0.00     0.180 A 
ENDROOT
BRANCH   1   7
HETATM    7  O   UNK N   1      34.067  17.939   5.990  0.00  0.00    -0.390 OA
HETATM    8  H   UNK N   1      34.949  18.152   5.646  0.00  0.00     0.210 HD
ENDBRANCH   1   7
BRANCH   2   9
HETATM    9  O   UNK N   1      32.571  15.434   5.970  0.00  0.00    -0.390 OA
HETATM   10  H   UNK N   1      31.744  14.929   6.001  0.00  0.00     0.210 HD
ENDBRANCH   2   9
BRANCH   6  11
HETATM   11  O   UNK N   1      35.291  18.888   8.463  0.00  0.00    -0.390 OA
HETATM   12  H   UNK N   1      35.949  19.055   9.156  0.00  0.00     0.210 HD
ENDBRANCH   6  11
BRANCH   3  13
HETATM   13  O   UNK N   1      32.298  13.878   8.424  0.00  0.00    -0.390 OA
HETATM   14  H   UNK N   1      32.704  13.068   8.769  0.00  0.00     0.210 HD
ENDBRANCH   3  13
BRANCH   5  15
HETATM   15  O   UNK N   1      35.018  17.332  10.917  0.00  0.00    -0.390 OA
HETATM   16  H   UNK N   1      34.599  18.044  11.423  0.00  0.00     0.210 HD
ENDBRANCH   5  15
BRANCH   4  17
HETATM   17  O   UNK N   1      33.522  14.827  10.897  0.00  0.00    -0.390 OA
HETATM   18  H   UNK N   1      32.850  14.130  10.957  0.00  0.00     0.210 HD
ENDBRANCH   4  17
TORSDOF 6
ENDMDL
