MODEL 1
REMARK VINA RESULT:      -8.3      0.000      0.000
REMARK  6 active torsions:
REMARK  status: ('A' for Active; 'I' for Inactive)
REMARK       I    between atoms: C_2  and  N_4 
REMARK    1  A    between atoms: N_4  and  C_5 
REMARK    2  A    between atoms: C_5  and  C_6 
REMARK       I    between atoms: C_6  and  N_8 
REMARK    3  A    between atoms: C_17  and  N_19 
REMARK       I    between atoms: N_19  and  C_20 
REMARK    4  A    between atoms: C_24  and  C_33 
REMARK    5  A    between atoms: C_25  and  N_28 
REMARK    6  A    between atoms: N_28  and  C_29 
ROOT
HETATM    1  N   UNK N   1      33.583  16.338   8.047  0.00  0.00    -0.192 N 
HETATM    2  C   UNK N   1      32.282  16.900   7.958  0.00  0.00     0.684 A 
HETATM    3  N   UNK N   1      31.615  17.292   9.073  0.00  0.00    -0.201 N 
ATOM      4  HN  UNK N   1      32.094  17.279   9.972  1.00  0.00     0.183 HD
HETATM    5  C   UNK N   1      30.328  17.699   9.012  0.00  0.00     0.126 A 
HETATM    6  C   UNK N   1      29.661  17.724   7.792  0.00  0.00     0.107 A 
HETATM    7  C   UNK N   1      30.394  17.381   6.628  0.00  0.00     0.133 A 
HETATM    8  N   UNK N   1      31.688  16.985   6.757  0.00  0.00    -0.176 N 
ATOM      9  HN  UNK N   1      32.220  16.745   5.921  1.00  0.00     0.186 HD
HETATM   10  H   UNK N   1      34.117  16.226   7.228  0.00  0.00     0.184 HD
ENDROOT
BRANCH   1  11
HETATM   11  C   UNK N   1      34.126  15.936   9.288  0.00  0.00     0.049 A 
HETATM   12  C   UNK N   1      34.976  16.809  10.014  0.00  0.00     0.030 A 
HETATM   13  C   UNK N   1      35.739  16.348  11.081  0.00  0.00     0.012 A 
HETATM   14  C   UNK N   1      35.606  15.017  11.415  0.00  0.00    -0.027 A 
HETATM   15  C   UNK N   1      34.697  14.186  10.796  0.00  0.00    -0.025 A 
HETATM   16  C   UNK N   1      36.427  14.196  12.332  0.00  0.00     0.121 C 
HETATM   17  C   UNK N   1      34.865  12.823  11.371  0.00  0.00     0.122 C 
HETATM   18  C   UNK N   1      33.952  14.611   9.707  0.00  0.00     0.039 A 
HETATM   19  C   UNK N   1      36.191  12.352  10.737  0.00  0.00     0.033 C 
HETATM   20  N   UNK N   1      35.420  13.243  12.620  0.00  0.00    -0.333 N 
HETATM   21  C   UNK N   1      37.262  13.307  11.385  0.00  0.00     0.033 C 
HETATM   22  C   UNK N   1      35.066  12.836  13.865  0.00  0.00     0.238 C 
HETATM   23  O   UNK N   1      34.138  12.059  14.020  0.00  0.00    -0.272 OA
BRANCH  22  24
HETATM   24  C   UNK N   1      35.852  13.306  15.052  0.00  0.00     0.225 C 
BRANCH  24  25
HETATM   25  N   UNK N   1      35.759  12.298  16.085  0.00  0.00    -0.353 N 
HETATM   26  C   UNK N   1      35.326  12.557  17.343  0.00  0.00     0.213 C 
HETATM   27  C   UNK N   1      35.307  11.460  18.350  0.00  0.00     0.117 C 
HETATM   28  O   UNK N   1      34.975  13.681  17.670  0.00  0.00    -0.274 OA
HETATM   29  H   UNK N   1      36.023  11.376  15.863  0.00  0.00     0.162 HD
ENDBRANCH  24  25
ENDBRANCH  22  24
ENDBRANCH   1  11
BRANCH   7  30
HETATM   30  N   UNK N   1      29.812  17.390   5.333  0.00  0.00    -0.370 N 
HETATM   31  H   UNK N   1      29.525  18.253   4.954  0.00  0.00     0.161 HD
BRANCH  30  32
HETATM   32  C   UNK N   1      29.619  16.185   4.537  0.00  0.00     0.083 A 
HETATM   33  C   UNK N   1      28.319  16.291   3.765  0.00  0.00     0.025 A 
HETATM   34  C   UNK N   1      27.734  15.135   4.550  0.00  0.00     0.004 A 
HETATM   35  C   UNK N   1      29.021  15.019   5.324  0.00  0.00     0.025 A 
ENDBRANCH  30  32
ENDBRANCH   7  30
BRANCH   6  36
HETATM   36  C   UNK N   1      28.200  18.091   7.824  0.00  0.00     0.422 C 
HETATM   37  F   UNK N   1      27.836  18.317   9.141  0.00  0.00    -0.166 F 
HETATM   38  F   UNK N   1      27.389  17.101   7.309  0.00  0.00    -0.166 F 
HETATM   39  F   UNK N   1      27.999  19.257   7.106  0.00  0.00    -0.166 F 
ENDBRANCH   6  36
TORSDOF 6
ENDMDL
MODEL 2
REMARK VINA RESULT:      -8.0      7.015     12.961
REMARK  6 active torsions:
REMARK  status: ('A' for Active; 'I' for Inactive)
REMARK       I    between atoms: C_2  and  N_4 
REMARK    1  A    between atoms: N_4  and  C_5 
REMARK    2  A    between atoms: C_5  and  C_6 
REMARK       I    between atoms: C_6  and  N_8 
REMARK    3  A    between atoms: C_17  and  N_19 
REMARK       I    between atoms: N_19  and  C_20 
REMARK    4  A    between atoms: C_24  and  C_33 
REMARK    5  A    between atoms: C_25  and  N_28 
REMARK    6  A    between atoms: N_28  and  C_29 
ROOT
HETATM    1  N   UNK N   1      27.449  17.254   3.996  0.00  0.00    -0.192 N 
HETATM    2  C   UNK N   1      28.110  17.222   5.252  0.00  0.00     0.684 A 
HETATM    3  N   UNK N   1      27.409  17.311   6.410  0.00  0.00    -0.201 N 
ATOM      4  HN  UNK N   1      26.390  17.295   6.380  1.00  0.00     0.183 HD
HETATM    5  C   UNK N   1      28.036  17.419   7.602  0.00  0.00     0.126 A 
HETATM    6  C   UNK N   1      29.426  17.439   7.661  0.00  0.00     0.107 A 
HETATM    7  C   UNK N   1      30.143  17.273   6.449  0.00  0.00     0.133 A 
HETATM    8  N   UNK N   1      29.451  17.164   5.284  0.00  0.00    -0.176 N 
ATOM      9  HN  UNK N   1      29.965  17.037   4.411  1.00  0.00     0.186 HD
HETATM   10  H   UNK N   1      27.948  17.013   3.182  0.00  0.00     0.184 HD
ENDROOT
BRANCH   1  11
HETATM   11  C   UNK N   1      26.092  17.627   3.890  0.00  0.00     0.049 A 
HETATM   12  C   UNK N   1      25.720  18.996   3.935  0.00  0.00     0.030 A 
HETATM   13  C   UNK N   1      24.395  19.377   4.115  0.00  0.00     0.012 A 
HETATM   14  C   UNK N   1      23.463  18.365   4.216  0.00  0.00    -0.027 A 
HETATM   15  C   UNK N   1      23.792  17.037   4.055  0.00  0.00    -0.025 A 
HETATM   16  C   UNK N   1      22.043  18.439   4.624  0.00  0.00     0.121 C 
HETATM   17  C   UNK N   1      22.559  16.233   4.279  0.00  0.00     0.122 C 
HETATM   18  C   UNK N   1      25.110  16.629   3.911  0.00  0.00     0.039 A 
HETATM   19  C   UNK N   1      22.373  16.321   5.808  0.00  0.00     0.033 C 
HETATM   20  N   UNK N   1      21.630  17.268   3.942  0.00  0.00    -0.333 N 
HETATM   21  C   UNK N   1      22.036  17.840   6.048  0.00  0.00     0.033 C 
HETATM   22  C   UNK N   1      20.555  17.184   3.120  0.00  0.00     0.238 C 
HETATM   23  O   UNK N   1      20.316  16.149   2.520  0.00  0.00    -0.272 OA
BRANCH  22  24
HETATM   24  C   UNK N   1      19.628  18.355   2.986  0.00  0.00     0.225 C 
BRANCH  24  25
HETATM   25  N   UNK N   1      20.013  19.106   1.811  0.00  0.00    -0.353 N 
HETATM   26  C   UNK N   1      20.549  20.350   1.863  0.00  0.00     0.213 C 
HETATM   27  C   UNK N   1      20.873  21.060   0.595  0.00  0.00     0.117 C 
HETATM   28  O   UNK N   1      20.747  20.906   2.933  0.00  0.00    -0.274 OA
HETATM   29  H   UNK N   1      19.879  18.692   0.928  0.00  0.00     0.162 HD
ENDBRANCH  24  25
ENDBRANCH  22  24
ENDBRANCH   1  11
BRANCH   7  30
HETATM   30  N   UNK N   1      31.562  17.262   6.401  0.00  0.00    -0.370 N 
HETATM   31  H   UNK N   1      32.044  18.096   6.609  0.00  0.00     0.161 HD
BRANCH  30  32
HETATM   32  C   UNK N   1      32.339  16.079   6.057  0.00  0.00     0.083 A 
HETATM   33  C   UNK N   1      33.198  15.676   7.239  0.00  0.00     0.025 A 
HETATM   34  C   UNK N   1      34.458  15.986   6.457  0.00  0.00     0.004 A 
HETATM   35  C   UNK N   1      33.616  16.389   5.275  0.00  0.00     0.025 A 
ENDBRANCH  30  32
ENDBRANCH   7  30
BRANCH   6  36
HETATM   36  C   UNK N   1      30.046  17.665   9.015  0.00  0.00     0.422 C 
HETATM   37  F   UNK N   1      29.027  17.852   9.935  0.00  0.00    -0.166 F 
HETATM   38  F   UNK N   1      30.872  18.769   9.047  0.00  0.00    -0.166 F 
HETATM   39  F   UNK N   1      30.773  16.548   9.385  0.00  0.00    -0.166 F 
ENDBRANCH   6  36
TORSDOF 6
ENDMDL
MODEL 3
REMARK VINA RESULT:      -7.7      3.618      6.041
REMARK  6 active torsions:
REMARK  status: ('A' for Active; 'I' for Inactive)
REMARK       I    between atoms: C_2  and  N_4 
REMARK    1  A    between atoms: N_4  and  C_5 
REMARK    2  A    between atoms: C_5  and  C_6 
REMARK       I    between atoms: C_6  and  N_8 
REMARK    3  A    between atoms: C_17  and  N_19 
REMARK       I    between atoms: N_19  and  C_20 
REMARK    4  A    between atoms: C_24  and  C_33 
REMARK    5  A    between atoms: C_25  and  N_28 
REMARK    6  A    between atoms: N_28  and  C_29 
ROOT
HETATM    1  N   UNK N   1      27.972  17.975   6.353  0.00  0.00    -0.192 N 
HETATM    2  C   UNK N   1      26.836  17.124   6.341  0.00  0.00     0.684 A 
HETATM    3  N   UNK N   1      26.696  16.136   7.261  0.00  0.00    -0.201 N 
ATOM      4  HN  UNK N   1      27.361  16.073   8.031  1.00  0.00     0.183 HD
HETATM    5  C   UNK N   1      25.691  15.237   7.175  0.00  0.00     0.126 A 
HETATM    6  C   UNK N   1      24.774  15.311   6.132  0.00  0.00     0.107 A 
HETATM    7  C   UNK N   1      24.893  16.391   5.221  0.00  0.00     0.133 A 
HETATM    8  N   UNK N   1      25.924  17.265   5.366  0.00  0.00    -0.176 N 
ATOM      9  HN  UNK N   1      26.007  18.048   4.717  1.00  0.00     0.186 HD
HETATM   10  H   UNK N   1      27.972  18.788   5.798  0.00  0.00     0.184 HD
ENDROOT
BRANCH   1  11
HETATM   11  C   UNK N   1      29.103  17.679   7.145  0.00  0.00     0.049 A 
HETATM   12  C   UNK N   1      29.350  18.404   8.340  0.00  0.00     0.030 A 
HETATM   13  C   UNK N   1      30.580  18.332   8.984  0.00  0.00     0.012 A 
HETATM   14  C   UNK N   1      31.530  17.503   8.426  0.00  0.00    -0.027 A 
HETATM   15  C   UNK N   1      31.265  16.703   7.335  0.00  0.00    -0.025 A 
HETATM   16  C   UNK N   1      32.971  17.387   8.740  0.00  0.00     0.121 C 
HETATM   17  C   UNK N   1      32.523  15.991   6.979  0.00  0.00     0.122 C 
HETATM   18  C   UNK N   1      30.060  16.783   6.654  0.00  0.00     0.039 A 
HETATM   19  C   UNK N   1      33.373  17.109   6.340  0.00  0.00     0.033 C 
HETATM   20  N   UNK N   1      33.117  16.056   8.279  0.00  0.00    -0.333 N 
HETATM   21  C   UNK N   1      33.667  18.077   7.546  0.00  0.00     0.033 C 
HETATM   22  C   UNK N   1      33.707  15.051   8.974  0.00  0.00     0.238 C 
HETATM   23  O   UNK N   1      33.727  13.918   8.524  0.00  0.00    -0.272 OA
BRANCH  22  24
HETATM   24  C   UNK N   1      34.382  15.347  10.280  0.00  0.00     0.225 C 
BRANCH  24  25
HETATM   25  N   UNK N   1      34.307  14.163  11.107  0.00  0.00    -0.353 N 
HETATM   26  C   UNK N   1      35.142  13.927  12.149  0.00  0.00     0.213 C 
HETATM   27  C   UNK N   1      35.015  12.655  12.914  0.00  0.00     0.117 C 
HETATM   28  O   UNK N   1      36.013  14.729  12.453  0.00  0.00    -0.274 OA
HETATM   29  H   UNK N   1      33.615  13.494  10.903  0.00  0.00     0.162 HD
ENDBRANCH  24  25
ENDBRANCH  22  24
ENDBRANCH   1  11
BRANCH   7  30
HETATM   30  N   UNK N   1      23.999  16.569   4.132  0.00  0.00    -0.370 N 
HETATM   31  H   UNK N   1      24.012  15.907   3.402  0.00  0.00     0.161 HD
BRANCH  30  32
HETATM   32  C   UNK N   1      23.065  17.683   4.040  0.00  0.00     0.083 A 
HETATM   33  C   UNK N   1      22.451  17.942   5.401  0.00  0.00     0.025 A 
HETATM   34  C   UNK N   1      21.084  17.544   4.885  0.00  0.00     0.004 A 
HETATM   35  C   UNK N   1      21.681  17.283   3.527  0.00  0.00     0.025 A 
ENDBRANCH  30  32
ENDBRANCH   7  30
BRANCH   6  36
HETATM   36  C   UNK N   1      23.747  14.212   6.050  0.00  0.00     0.422 C 
HETATM   37  F   UNK N   1      24.021  13.285   7.042  0.00  0.00    -0.166 F 
HETATM   38  F   UNK N   1      23.753  13.564   4.832  0.00  0.00    -0.166 F 
HETATM   39  F   UNK N   1      22.487  14.738   6.274  0.00  0.00    -0.166 F 
ENDBRANCH   6  36
TORSDOF 6
ENDMDL
MODEL 4
REMARK VINA RESULT:      -7.6      7.897     13.659
REMARK  6 active torsions:
REMARK  status: ('A' for Active; 'I' for Inactive)
REMARK       I    between atoms: C_2  and  N_4 
REMARK    1  A    between atoms: N_4  and  C_5 
REMARK    2  A    between atoms: C_5  and  C_6 
REMARK       I    between atoms: C_6  and  N_8 
REMARK    3  A    between atoms: C_17  and  N_19 
REMARK       I    between atoms: N_19  and  C_20 
REMARK    4  A    between atoms: C_24  and  C_33 
REMARK    5  A    between atoms: C_25  and  N_28 
REMARK    6  A    between atoms: N_28  and  C_29 
ROOT
HETATM    1  N   UNK N   1      35.984  11.062  20.472  0.00  0.00    -0.192 N 
HETATM    2  C   UNK N   1      35.051  10.105  20.953  0.00  0.00     0.684 A 
HETATM    3  N   UNK N   1      34.190   9.486  20.108  0.00  0.00    -0.201 N 
ATOM      4  HN  UNK N   1      34.284   9.632  19.103  1.00  0.00     0.183 HD
HETATM    5  C   UNK N   1      33.210   8.679  20.572  0.00  0.00     0.126 A 
HETATM    6  C   UNK N   1      33.069   8.469  21.940  0.00  0.00     0.107 A 
HETATM    7  C   UNK N   1      34.022   9.065  22.804  0.00  0.00     0.133 A 
HETATM    8  N   UNK N   1      34.986   9.862  22.272  0.00  0.00    -0.176 N 
ATOM      9  HN  UNK N   1      35.677  10.286  22.891  1.00  0.00     0.186 HD
HETATM   10  H   UNK N   1      36.711  11.365  21.062  0.00  0.00     0.184 HD
ENDROOT
BRANCH   1  11
HETATM   11  C   UNK N   1      35.888  11.587  19.165  0.00  0.00     0.049 A 
HETATM   12  C   UNK N   1      35.232  12.824  18.936  0.00  0.00     0.030 A 
HETATM   13  C   UNK N   1      34.878  13.226  17.653  0.00  0.00     0.012 A 
HETATM   14  C   UNK N   1      35.222  12.382  16.618  0.00  0.00    -0.027 A 
HETATM   15  C   UNK N   1      35.963  11.236  16.812  0.00  0.00    -0.025 A 
HETATM   16  C   UNK N   1      34.798  12.419  15.201  0.00  0.00     0.121 C 
HETATM   17  C   UNK N   1      36.098  10.555  15.495  0.00  0.00     0.122 C 
HETATM   18  C   UNK N   1      36.296  10.796  18.084  0.00  0.00     0.039 A 
HETATM   19  C   UNK N   1      34.687   9.973  15.271  0.00  0.00     0.033 C 
HETATM   20  N   UNK N   1      35.923  11.726  14.691  0.00  0.00    -0.333 N 
HETATM   21  C   UNK N   1      33.790  11.254  15.086  0.00  0.00     0.033 C 
HETATM   22  C   UNK N   1      36.678  12.132  13.640  0.00  0.00     0.238 C 
HETATM   23  O   UNK N   1      37.671  11.503  13.314  0.00  0.00    -0.272 OA
BRANCH  22  24
HETATM   24  C   UNK N   1      36.260  13.333  12.845  0.00  0.00     0.225 C 
BRANCH  24  25
HETATM   25  N   UNK N   1      37.310  13.637  11.898  0.00  0.00    -0.353 N 
HETATM   26  C   UNK N   1      37.085  13.856  10.580  0.00  0.00     0.213 C 
HETATM   27  C   UNK N   1      38.239  14.119   9.675  0.00  0.00     0.117 C 
HETATM   28  O   UNK N   1      35.954  13.816  10.118  0.00  0.00    -0.274 OA
HETATM   29  H   UNK N   1      38.235  13.689  12.229  0.00  0.00     0.162 HD
ENDBRANCH  24  25
ENDBRANCH  22  24
ENDBRANCH   1  11
BRANCH   7  30
HETATM   30  N   UNK N   1      33.978   8.899  24.213  0.00  0.00    -0.370 N 
HETATM   31  H   UNK N   1      34.102   7.995  24.583  0.00  0.00     0.161 HD
BRANCH  30  32
HETATM   32  C   UNK N   1      33.757  10.003  25.140  0.00  0.00     0.083 A 
HETATM   33  C   UNK N   1      32.892   9.531  26.291  0.00  0.00     0.025 A 
HETATM   34  C   UNK N   1      31.777  10.464  25.866  0.00  0.00     0.004 A 
HETATM   35  C   UNK N   1      32.627  10.941  24.717  0.00  0.00     0.025 A 
ENDBRANCH  30  32
ENDBRANCH   7  30
BRANCH   6  36
HETATM   36  C   UNK N   1      31.891   7.640  22.382  0.00  0.00     0.422 C 
HETATM   37  F   UNK N   1      30.966   7.614  21.351  0.00  0.00    -0.166 F 
HETATM   38  F   UNK N   1      31.276   8.144  23.509  0.00  0.00    -0.166 F 
HETATM   39  F   UNK N   1      32.305   6.344  22.636  0.00  0.00    -0.166 F 
ENDBRANCH   6  36
TORSDOF 6
ENDMDL
MODEL 5
REMARK VINA RESULT:      -7.5      2.048      2.922
REMARK  6 active torsions:
REMARK  status: ('A' for Active; 'I' for Inactive)
REMARK       I    between atoms: C_2  and  N_4 
REMARK    1  A    between atoms: N_4  and  C_5 
REMARK    2  A    between atoms: C_5  and  C_6 
REMARK       I    between atoms: C_6  and  N_8 
REMARK    3  A    between atoms: C_17  and  N_19 
REMARK       I    between atoms: N_19  and  C_20 
REMARK    4  A    between atoms: C_24  and  C_33 
REMARK    5  A    between atoms: C_25  and  N_28 
REMARK    6  A    between atoms: N_28  and  C_29 
ROOT
HETATM    1  N   UNK N   1      35.131  14.459   9.212  0.00  0.00    -0.192 N 
HETATM    2  C   UNK N   1      34.003  15.079   8.612  0.00  0.00     0.684 A 
HETATM    3  N   UNK N   1      33.090  15.741   9.365  0.00  0.00    -0.201 N 
ATOM      4  HN  UNK N   1      33.271  15.885  10.358  1.00  0.00     0.183 HD
HETATM    5  C   UNK N   1      31.946  16.215   8.824  0.00  0.00     0.126 A 
HETATM    6  C   UNK N   1      31.684  16.028   7.470  0.00  0.00     0.107 A 
HETATM    7  C   UNK N   1      32.681  15.398   6.684  0.00  0.00     0.133 A 
HETATM    8  N   UNK N   1      33.812  14.949   7.289  0.00  0.00    -0.176 N 
ATOM      9  HN  UNK N   1      34.535  14.501   6.724  1.00  0.00     0.186 HD
HETATM   10  H   UNK N   1      35.866  14.140   8.641  0.00  0.00     0.184 HD
ENDROOT
BRANCH   1  11
HETATM   11  C   UNK N   1      35.218  14.290  10.611  0.00  0.00     0.049 A 
HETATM   12  C   UNK N   1      35.710  15.340  11.429  0.00  0.00     0.030 A 
HETATM   13  C   UNK N   1      36.068  15.114  12.753  0.00  0.00     0.012 A 
HETATM   14  C   UNK N   1      35.893  13.835  13.237  0.00  0.00    -0.027 A 
HETATM   15  C   UNK N   1      35.307  12.835  12.492  0.00  0.00    -0.025 A 
HETATM   16  C   UNK N   1      36.377  13.239  14.503  0.00  0.00     0.121 C 
HETATM   17  C   UNK N   1      35.329  11.589  13.307  0.00  0.00     0.122 C 
HETATM   18  C   UNK N   1      34.975  13.025  11.159  0.00  0.00     0.039 A 
HETATM   19  C   UNK N   1      36.816  11.179  13.253  0.00  0.00     0.033 C 
HETATM   20  N   UNK N   1      35.383  12.233  14.583  0.00  0.00    -0.333 N 
HETATM   21  C   UNK N   1      37.538  12.322  14.060  0.00  0.00     0.033 C 
HETATM   22  C   UNK N   1      34.632  11.966  15.680  0.00  0.00     0.238 C 
HETATM   23  O   UNK N   1      33.751  11.123  15.635  0.00  0.00    -0.272 OA
BRANCH  22  24
HETATM   24  C   UNK N   1      34.921  12.675  16.970  0.00  0.00     0.225 C 
BRANCH  24  25
HETATM   25  N   UNK N   1      35.288  11.686  17.959  0.00  0.00    -0.353 N 
HETATM   26  C   UNK N   1      35.450  11.970  19.274  0.00  0.00     0.213 C 
HETATM   27  C   UNK N   1      35.872  10.891  20.209  0.00  0.00     0.117 C 
HETATM   28  O   UNK N   1      35.278  13.103  19.700  0.00  0.00    -0.274 OA
HETATM   29  H   UNK N   1      35.427  10.758  17.661  0.00  0.00     0.162 HD
ENDBRANCH  24  25
ENDBRANCH  22  24
ENDBRANCH   1  11
BRANCH   7  30
HETATM   30  N   UNK N   1      32.521  15.174   5.291  0.00  0.00    -0.370 N 
HETATM   31  H   UNK N   1      31.905  14.463   4.997  0.00  0.00     0.161 HD
BRANCH  30  32
HETATM   32  C   UNK N   1      33.225  15.945   4.274  0.00  0.00     0.083 A 
HETATM   33  C   UNK N   1      33.361  17.383   4.732  0.00  0.00     0.025 A 
HETATM   34  C   UNK N   1      32.468  17.851   3.602  0.00  0.00     0.004 A 
HETATM   35  C   UNK N   1      32.325  16.426   3.136  0.00  0.00     0.025 A 
ENDBRANCH  30  32
ENDBRANCH   7  30
BRANCH   6  36
HETATM   36  C   UNK N   1      30.343  16.494   6.967  0.00  0.00     0.422 C 
HETATM   37  F   UNK N   1      29.745  15.446   6.287  0.00  0.00    -0.166 F 
HETATM   38  F   UNK N   1      30.439  17.573   6.112  0.00  0.00    -0.166 F 
HETATM   39  F   UNK N   1      29.540  16.839   8.039  0.00  0.00    -0.166 F 
ENDBRANCH   6  36
TORSDOF 6
ENDMDL
MODEL 6
REMARK VINA RESULT:      -7.5      4.173      6.922
REMARK  6 active torsions:
REMARK  status: ('A' for Active; 'I' for Inactive)
REMARK       I    between atoms: C_2  and  N_4 
REMARK    1  A    between atoms: N_4  and  C_5 
REMARK    2  A    between atoms: C_5  and  C_6 
REMARK       I    between atoms: C_6  and  N_8 
REMARK    3  A    between atoms: C_17  and  N_19 
REMARK       I    between atoms: N_19  and  C_20 
REMARK    4  A    between atoms: C_24  and  C_33 
REMARK    5  A    between atoms: C_25  and  N_28 
REMARK    6  A    between atoms: N_28  and  C_29 
ROOT
HETATM    1  N   UNK N   1      27.365  16.582   6.412  0.00  0.00    -0.192 N 
HETATM    2  C   UNK N   1      26.812  17.450   5.434  0.00  0.00     0.684 A 
HETATM    3  N   UNK N   1      27.613  18.177   4.615  0.00  0.00    -0.201 N 
ATOM      4  HN  UNK N   1      28.620  18.020   4.632  1.00  0.00     0.183 HD
HETATM    5  C   UNK N   1      27.101  19.105   3.777  0.00  0.00     0.126 A 
HETATM    6  C   UNK N   1      25.728  19.330   3.740  0.00  0.00     0.107 A 
HETATM    7  C   UNK N   1      24.900  18.512   4.549  0.00  0.00     0.133 A 
HETATM    8  N   UNK N   1      25.478  17.593   5.366  0.00  0.00    -0.176 N 
ATOM      9  HN  UNK N   1      24.885  16.998   5.944  1.00  0.00     0.186 HD
HETATM   10  H   UNK N   1      26.780  15.937   6.871  0.00  0.00     0.184 HD
ENDROOT
BRANCH   1  11
HETATM   11  C   UNK N   1      28.738  16.628   6.741  0.00  0.00     0.049 A 
HETATM   12  C   UNK N   1      29.239  17.653   7.585  0.00  0.00     0.030 A 
HETATM   13  C   UNK N   1      30.604  17.888   7.700  0.00  0.00     0.012 A 
HETATM   14  C   UNK N   1      31.442  17.063   6.980  0.00  0.00    -0.027 A 
HETATM   15  C   UNK N   1      30.978  15.990   6.251  0.00  0.00    -0.025 A 
HETATM   16  C   UNK N   1      32.893  17.199   6.723  0.00  0.00     0.121 C 
HETATM   17  C   UNK N   1      32.146  15.363   5.573  0.00  0.00     0.122 C 
HETATM   18  C   UNK N   1      29.620  15.756   6.092  0.00  0.00     0.039 A 
HETATM   19  C   UNK N   1      32.469  16.377   4.455  0.00  0.00     0.033 C 
HETATM   20  N   UNK N   1      33.134  15.820   6.500  0.00  0.00    -0.333 N 
HETATM   21  C   UNK N   1      32.966  17.644   5.246  0.00  0.00     0.033 C 
HETATM   22  C   UNK N   1      34.122  15.098   7.085  0.00  0.00     0.238 C 
HETATM   23  O   UNK N   1      34.211  13.898   6.884  0.00  0.00    -0.272 OA
BRANCH  22  24
HETATM   24  C   UNK N   1      35.139  15.788   7.944  0.00  0.00     0.225 C 
BRANCH  24  25
HETATM   25  N   UNK N   1      35.050  15.242   9.279  0.00  0.00    -0.353 N 
HETATM   26  C   UNK N   1      35.301  15.964  10.399  0.00  0.00     0.213 C 
HETATM   27  C   UNK N   1      35.225  15.299  11.730  0.00  0.00     0.117 C 
HETATM   28  O   UNK N   1      35.611  17.144  10.331  0.00  0.00    -0.274 OA
HETATM   29  H   UNK N   1      34.793  14.297   9.381  0.00  0.00     0.162 HD
ENDBRANCH  24  25
ENDBRANCH  22  24
ENDBRANCH   1  11
BRANCH   7  30
HETATM   30  N   UNK N   1      23.487  18.649   4.572  0.00  0.00    -0.370 N 
HETATM   31  H   UNK N   1      23.077  19.157   5.310  0.00  0.00     0.161 HD
BRANCH  30  32
HETATM   32  C   UNK N   1      22.613  18.072   3.559  0.00  0.00     0.083 A 
HETATM   33  C   UNK N   1      21.438  18.998   3.318  0.00  0.00     0.025 A 
HETATM   34  C   UNK N   1      20.479  17.960   3.864  0.00  0.00     0.004 A 
HETATM   35  C   UNK N   1      21.639  17.030   4.109  0.00  0.00     0.025 A 
ENDBRANCH  30  32
ENDBRANCH   7  30
BRANCH   6  36
HETATM   36  C   UNK N   1      25.247  20.451   2.855  0.00  0.00     0.422 C 
HETATM   37  F   UNK N   1      24.294  21.176   3.551  0.00  0.00    -0.166 F 
HETATM   38  F   UNK N   1      24.682  20.000   1.681  0.00  0.00    -0.166 F 
HETATM   39  F   UNK N   1      26.305  21.290   2.553  0.00  0.00    -0.166 F 
ENDBRANCH   6  36
TORSDOF 6
ENDMDL
MODEL 7
REMARK VINA RESULT:      -7.4      4.857     10.568
REMARK  6 active torsions:
REMARK  status: ('A' for Active; 'I' for Inactive)
REMARK       I    between atoms: C_2  and  N_4 
REMARK    1  A    between atoms: N_4  and  C_5 
REMARK    2  A    between atoms: C_5  and  C_6 
REMARK       I    between atoms: C_6  and  N_8 
REMARK    3  A    between atoms: C_17  and  N_19 
REMARK       I    between atoms: N_19  and  C_20 
REMARK    4  A    between atoms: C_24  and  C_33 
REMARK    5  A    between atoms: C_25  and  N_28 
REMARK    6  A    between atoms: N_28  and  C_29 
ROOT
HETATM    1  N   UNK N   1      35.771  14.814  11.640  0.00  0.00    -0.192 N 
HETATM    2  C   UNK N   1      35.727  13.603  12.382  0.00  0.00     0.684 A 
HETATM    3  N   UNK N   1      35.381  12.435  11.787  0.00  0.00    -0.201 N 
ATOM      4  HN  UNK N   1      35.254  12.407  10.776  1.00  0.00     0.183 HD
HETATM    5  C   UNK N   1      35.203  11.306  12.509  0.00  0.00     0.126 A 
HETATM    6  C   UNK N   1      35.375  11.327  13.890  0.00  0.00     0.107 A 
HETATM    7  C   UNK N   1      35.807  12.539  14.486  0.00  0.00     0.133 A 
HETATM    8  N   UNK N   1      35.972  13.637  13.702  0.00  0.00    -0.176 N 
ATOM      9  HN  UNK N   1      36.290  14.508  14.127  1.00  0.00     0.186 HD
HETATM   10  H   UNK N   1      36.191  15.609  12.041  0.00  0.00     0.184 HD
ENDROOT
BRANCH   1  11
HETATM   11  C   UNK N   1      35.224  14.899  10.341  0.00  0.00     0.049 A 
HETATM   12  C   UNK N   1      35.998  14.520   9.213  0.00  0.00     0.030 A 
HETATM   13  C   UNK N   1      35.598  14.851   7.923  0.00  0.00     0.012 A 
HETATM   14  C   UNK N   1      34.407  15.533   7.794  0.00  0.00    -0.027 A 
HETATM   15  C   UNK N   1      33.588  15.803   8.869  0.00  0.00    -0.025 A 
HETATM   16  C   UNK N   1      33.839  16.205   6.604  0.00  0.00     0.121 C 
HETATM   17  C   UNK N   1      32.427  16.589   8.368  0.00  0.00     0.122 C 
HETATM   18  C   UNK N   1      33.980  15.516  10.168  0.00  0.00     0.039 A 
HETATM   19  C   UNK N   1      33.050  17.976   8.102  0.00  0.00     0.033 C 
HETATM   20  N   UNK N   1      32.486  16.121   7.018  0.00  0.00    -0.333 N 
HETATM   21  C   UNK N   1      34.033  17.709   6.901  0.00  0.00     0.033 C 
HETATM   22  C   UNK N   1      31.465  15.664   6.252  0.00  0.00     0.238 C 
HETATM   23  O   UNK N   1      30.341  15.563   6.717  0.00  0.00    -0.272 OA
BRANCH  22  24
HETATM   24  C   UNK N   1      31.709  15.327   4.811  0.00  0.00     0.225 C 
BRANCH  24  25
HETATM   25  N   UNK N   1      30.444  14.967   4.209  0.00  0.00    -0.353 N 
HETATM   26  C   UNK N   1      29.899  15.634   3.162  0.00  0.00     0.213 C 
HETATM   27  C   UNK N   1      28.569  15.213   2.640  0.00  0.00     0.117 C 
HETATM   28  O   UNK N   1      30.470  16.589   2.657  0.00  0.00    -0.274 OA
HETATM   29  H   UNK N   1      29.954  14.198   4.578  0.00  0.00     0.162 HD
ENDBRANCH  24  25
ENDBRANCH  22  24
ENDBRANCH   1  11
BRANCH   7  30
HETATM   30  N   UNK N   1      36.028  12.662  15.883  0.00  0.00    -0.370 N 
HETATM   31  H   UNK N   1      36.957  12.691  16.210  0.00  0.00     0.161 HD
BRANCH  30  32
HETATM   32  C   UNK N   1      34.947  12.746  16.857  0.00  0.00     0.083 A 
HETATM   33  C   UNK N   1      35.198  13.913  17.791  0.00  0.00     0.025 A 
HETATM   34  C   UNK N   1      35.364  12.967  18.963  0.00  0.00     0.004 A 
HETATM   35  C   UNK N   1      35.117  11.799  18.045  0.00  0.00     0.025 A 
ENDBRANCH  30  32
ENDBRANCH   7  30
BRANCH   6  36
HETATM   36  C   UNK N   1      35.058  10.055  14.633  0.00  0.00     0.422 C 
HETATM   37  F   UNK N   1      36.077   9.816  15.540  0.00  0.00    -0.166 F 
HETATM   38  F   UNK N   1      34.949   8.962  13.799  0.00  0.00    -0.166 F 
HETATM   39  F   UNK N   1      33.873  10.210  15.331  0.00  0.00    -0.166 F 
ENDBRANCH   6  36
TORSDOF 6
ENDMDL
MODEL 8
REMARK VINA RESULT:      -7.4      2.738      3.989
REMARK  6 active torsions:
REMARK  status: ('A' for Active; 'I' for Inactive)
REMARK       I    between atoms: C_2  and  N_4 
REMARK    1  A    between atoms: N_4  and  C_5 
REMARK    2  A    between atoms: C_5  and  C_6 
REMARK       I    between atoms: C_6  and  N_8 
REMARK    3  A    between atoms: C_17  and  N_19 
REMARK       I    between atoms: N_19  and  C_20 
REMARK    4  A    between atoms: C_24  and  C_33 
REMARK    5  A    between atoms: C_25  and  N_28 
REMARK    6  A    between atoms: N_28  and  C_29 
ROOT
HETATM    1  N   UNK N   1      36.211  13.207   9.293  0.00  0.00    -0.192 N 
HETATM    2  C   UNK N   1      35.675  14.425   8.797  0.00  0.00     0.684 A 
HETATM    3  N   UNK N   1      35.489  15.489   9.617  0.00  0.00    -0.201 N 
ATOM      4  HN  UNK N   1      35.836  15.448  10.575  1.00  0.00     0.183 HD
HETATM    5  C   UNK N   1      34.855  16.602   9.188  0.00  0.00     0.126 A 
HETATM    6  C   UNK N   1      34.378  16.674   7.883  0.00  0.00     0.107 A 
HETATM    7  C   UNK N   1      34.644  15.582   7.019  0.00  0.00     0.133 A 
HETATM    8  N   UNK N   1      35.291  14.494   7.512  0.00  0.00    -0.176 N 
ATOM      9  HN  UNK N   1      35.491  13.710   6.890  1.00  0.00     0.186 HD
HETATM   10  H   UNK N   1      36.501  12.513   8.658  0.00  0.00     0.184 HD
ENDROOT
BRANCH   1  11
HETATM   11  C   UNK N   1      36.335  12.971  10.680  0.00  0.00     0.049 A 
HETATM   12  C   UNK N   1      37.606  12.695  11.249  0.00  0.00     0.030 A 
HETATM   13  C   UNK N   1      37.723  12.190  12.538  0.00  0.00     0.012 A 
HETATM   14  C   UNK N   1      36.553  11.999  13.243  0.00  0.00    -0.027 A 
HETATM   15  C   UNK N   1      35.322  12.373  12.749  0.00  0.00    -0.025 A 
HETATM   16  C   UNK N   1      36.337  11.284  14.520  0.00  0.00     0.121 C 
HETATM   17  C   UNK N   1      34.293  11.974  13.748  0.00  0.00     0.122 C 
HETATM   18  C   UNK N   1      35.175  12.845  11.453  0.00  0.00     0.039 A 
HETATM   19  C   UNK N   1      34.238  10.441  13.581  0.00  0.00     0.033 C 
HETATM   20  N   UNK N   1      35.161  11.984  14.885  0.00  0.00    -0.333 N 
HETATM   21  C   UNK N   1      35.648   9.968  14.095  0.00  0.00     0.033 C 
HETATM   22  C   UNK N   1      34.938  12.556  16.095  0.00  0.00     0.238 C 
HETATM   23  O   UNK N   1      33.921  13.198  16.296  0.00  0.00    -0.272 OA
BRANCH  22  24
HETATM   24  C   UNK N   1      35.926  12.354  17.206  0.00  0.00     0.225 C 
BRANCH  24  25
HETATM   25  N   UNK N   1      35.341  11.451  18.173  0.00  0.00    -0.353 N 
HETATM   26  C   UNK N   1      35.257  11.729  19.497  0.00  0.00     0.213 C 
HETATM   27  C   UNK N   1      34.677  10.716  20.421  0.00  0.00     0.117 C 
HETATM   28  O   UNK N   1      35.672  12.788  19.946  0.00  0.00    -0.274 OA
HETATM   29  H   UNK N   1      34.986  10.591  17.853  0.00  0.00     0.162 HD
ENDBRANCH  24  25
ENDBRANCH  22  24
ENDBRANCH   1  11
BRANCH   7  30
HETATM   30  N   UNK N   1      34.216  15.563   5.665  0.00  0.00    -0.370 N 
HETATM   31  H   UNK N   1      34.743  16.062   4.999  0.00  0.00     0.161 HD
BRANCH  30  32
HETATM   32  C   UNK N   1      33.033  14.841   5.213  0.00  0.00     0.083 A 
HETATM   33  C   UNK N   1      32.023  15.824   4.657  0.00  0.00     0.025 A 
HETATM   34  C   UNK N   1      31.053  15.492   5.773  0.00  0.00     0.004 A 
HETATM   35  C   UNK N   1      32.049  14.512   6.335  0.00  0.00     0.025 A 
ENDBRANCH  30  32
ENDBRANCH   7  30
BRANCH   6  36
HETATM   36  C   UNK N   1      33.593  17.906   7.514  0.00  0.00     0.422 C 
HETATM   37  F   UNK N   1      34.101  18.977   8.230  0.00  0.00    -0.166 F 
HETATM   38  F   UNK N   1      32.248  17.788   7.798  0.00  0.00    -0.166 F 
HETATM   39  F   UNK N   1      33.747  18.166   6.163  0.00  0.00    -0.166 F 
ENDBRANCH   6  36
TORSDOF 6
ENDMDL
MODEL 9
REMARK VINA RESULT:      -7.4      2.949      4.320
REMARK  6 active torsions:
REMARK  status: ('A' for Active; 'I' for Inactive)
REMARK       I    between atoms: C_2  and  N_4 
REMARK    1  A    between atoms: N_4  and  C_5 
REMARK    2  A    between atoms: C_5  and  C_6 
REMARK       I    between atoms: C_6  and  N_8 
REMARK    3  A    between atoms: C_17  and  N_19 
REMARK       I    between atoms: N_19  and  C_20 
REMARK    4  A    between atoms: C_24  and  C_33 
REMARK    5  A    between atoms: C_25  and  N_28 
REMARK    6  A    between atoms: N_28  and  C_29 
ROOT
HETATM    1  N   UNK N   1      32.314  17.646   5.339  0.00  0.00    -0.192 N 
HETATM    2  C   UNK N   1      30.917  17.448   5.501  0.00  0.00     0.684 A 
HETATM    3  N   UNK N   1      30.436  16.663   6.497  0.00  0.00    -0.201 N 
ATOM      4  HN  UNK N   1      31.078  16.296   7.198  1.00  0.00     0.183 HD
HETATM    5  C   UNK N   1      29.122  16.358   6.576  0.00  0.00     0.126 A 
HETATM    6  C   UNK N   1      28.232  16.852   5.628  0.00  0.00     0.107 A 
HETATM    7  C   UNK N   1      28.740  17.730   4.637  0.00  0.00     0.133 A 
HETATM    8  N   UNK N   1      30.072  18.000   4.615  0.00  0.00    -0.176 N 
ATOM      9  HN  UNK N   1      30.438  18.637   3.908  1.00  0.00     0.186 HD
HETATM   10  H   UNK N   1      32.633  18.351   4.731  0.00  0.00     0.184 HD
ENDROOT
BRANCH   1  11
HETATM   11  C   UNK N   1      33.253  16.851   6.032  0.00  0.00     0.049 A 
HETATM   12  C   UNK N   1      33.867  15.745   5.389  0.00  0.00     0.030 A 
HETATM   13  C   UNK N   1      34.570  14.790   6.115  0.00  0.00     0.012 A 
HETATM   14  C   UNK N   1      34.666  14.986   7.476  0.00  0.00    -0.027 A 
HETATM   15  C   UNK N   1      34.177  16.115   8.097  0.00  0.00    -0.025 A 
HETATM   16  C   UNK N   1      35.142  14.057   8.524  0.00  0.00     0.121 C 
HETATM   17  C   UNK N   1      34.409  15.964   9.560  0.00  0.00     0.122 C 
HETATM   18  C   UNK N   1      33.442  17.064   7.403  0.00  0.00     0.039 A 
HETATM   19  C   UNK N   1      33.354  14.913   9.961  0.00  0.00     0.033 C 
HETATM   20  N   UNK N   1      35.512  15.059   9.455  0.00  0.00    -0.333 N 
HETATM   21  C   UNK N   1      33.848  13.606   9.235  0.00  0.00     0.033 C 
HETATM   22  C   UNK N   1      36.703  15.122  10.100  0.00  0.00     0.238 C 
HETATM   23  O   UNK N   1      36.958  16.061  10.835  0.00  0.00    -0.272 OA
BRANCH  22  24
HETATM   24  C   UNK N   1      37.692  14.005   9.946  0.00  0.00     0.225 C 
BRANCH  24  25
HETATM   25  N   UNK N   1      37.887  13.391  11.241  0.00  0.00    -0.353 N 
HETATM   26  C   UNK N   1      37.407  12.165  11.565  0.00  0.00     0.213 C 
HETATM   27  C   UNK N   1      37.622  11.637  12.941  0.00  0.00     0.117 C 
HETATM   28  O   UNK N   1      36.780  11.499  10.755  0.00  0.00    -0.274 OA
HETATM   29  H   UNK N   1      38.395  13.888  11.921  0.00  0.00     0.162 HD
ENDBRANCH  24  25
ENDBRANCH  22  24
ENDBRANCH   1  11
BRANCH   7  30
HETATM   30  N   UNK N   1      27.914  18.302   3.633  0.00  0.00    -0.370 N 
HETATM   31  H   UNK N   1      27.558  17.714   2.927  0.00  0.00     0.161 HD
BRANCH  30  32
HETATM   32  C   UNK N   1      27.569  19.717   3.596  0.00  0.00     0.083 A 
HETATM   33  C   UNK N   1      27.521  20.264   5.009  0.00  0.00     0.025 A 
HETATM   34  C   UNK N   1      26.034  20.521   4.883  0.00  0.00     0.004 A 
HETATM   35  C   UNK N   1      26.068  19.980   3.477  0.00  0.00     0.025 A 
ENDBRANCH  30  32
ENDBRANCH   7  30
BRANCH   6  36
HETATM   36  C   UNK N   1      26.804  16.384   5.726  0.00  0.00     0.422 C 
HETATM   37  F   UNK N   1      26.660  15.669   6.904  0.00  0.00    -0.166 F 
HETATM   38  F   UNK N   1      26.433  15.572   4.675  0.00  0.00    -0.166 F 
HETATM   39  F   UNK N   1      25.959  17.479   5.770  0.00  0.00    -0.166 F 
ENDBRANCH   6  36
TORSDOF 6
ENDMDL
