MODEL 1
REMARK VINA RESULT:      -7.3      0.000      0.000
REMARK  6 active torsions:
REMARK  status: ('A' for Active; 'I' for Inactive)
REMARK    1  A    between atoms: C_2  and  C_5 
REMARK    2  A    between atoms: C_7  and  C_12 
REMARK    3  A    between atoms: C_10  and  O_11 
REMARK    4  A    between atoms: C_12  and  C_15 
REMARK    5  A    between atoms: C_18  and  O_25 
REMARK    6  A    between atoms: C_19  and  C_21 
ROOT
HETATM    1  C   UNK N   1      32.532  16.327   5.615  0.00  0.00     0.007 C 
HETATM    2  C   UNK N   1      32.823  14.937   5.052  0.00  0.00     0.025 C 
HETATM    3  C   UNK N   1      32.974  17.310   4.530  0.00  0.00     0.025 C 
ENDROOT
BRANCH   1   4
HETATM    4  C   UNK N   1      31.038  16.416   5.900  0.00  0.00    -0.045 A 
HETATM    5  C   UNK N   1      30.526  17.188   6.957  0.00  0.00     0.019 A 
HETATM    6  C   UNK N   1      29.140  17.315   7.177  0.00  0.00    -0.017 A 
HETATM    7  C   UNK N   1      28.253  16.656   6.281  0.00  0.00     0.072 A 
HETATM    8  C   UNK N   1      28.764  15.878   5.241  0.00  0.00     0.037 A 
HETATM    9  C   UNK N   1      30.138  15.749   5.057  0.00  0.00     0.011 A 
BRANCH   6  10
HETATM   10  C   UNK N   1      28.686  18.150   8.378  0.00  0.00    -0.021 C 
HETATM   11  C   UNK N   1      27.881  19.346   7.900  0.00  0.00     0.019 C 
HETATM   12  C   UNK N   1      27.828  17.420   9.400  0.00  0.00     0.019 C 
HETATM   13  C   UNK N   1      29.911  18.661   9.115  0.00  0.00     0.019 C 
ENDBRANCH   6  10
BRANCH   7  14
HETATM   14  O   UNK N   1      26.919  16.747   6.408  0.00  0.00    -0.360 OA
HETATM   15  H   UNK N   1      26.289  17.175   5.861  0.00  0.00     0.217 HD
ENDBRANCH   7  14
ENDBRANCH   1   4
BRANCH   1  16
HETATM   16  C   UNK N   1      33.336  16.608   6.879  0.00  0.00    -0.045 A 
HETATM   17  C   UNK N   1      33.704  17.924   7.189  0.00  0.00     0.011 A 
HETATM   18  C   UNK N   1      34.489  18.197   8.307  0.00  0.00     0.037 A 
HETATM   19  C   UNK N   1      34.894  17.170   9.162  0.00  0.00     0.072 A 
HETATM   20  C   UNK N   1      34.500  15.829   8.899  0.00  0.00    -0.017 A 
HETATM   21  C   UNK N   1      33.738  15.575   7.740  0.00  0.00     0.019 A 
BRANCH  19  22
HETATM   22  O   UNK N   1      35.648  17.492  10.227  0.00  0.00    -0.360 OA
HETATM   23  H   UNK N   1      36.348  18.109  10.316  0.00  0.00     0.217 HD
ENDBRANCH  19  22
BRANCH  20  24
HETATM   24  C   UNK N   1      34.832  14.640   9.804  0.00  0.00    -0.021 C 
HETATM   25  C   UNK N   1      36.324  14.361   9.762  0.00  0.00     0.019 C 
HETATM   26  C   UNK N   1      34.101  13.410   9.293  0.00  0.00     0.019 C 
HETATM   27  C   UNK N   1      34.448  14.800  11.266  0.00  0.00     0.019 C 
ENDBRANCH  20  24
ENDBRANCH   1  16
TORSDOF 6
ENDMDL
MODEL 2
REMARK VINA RESULT:      -7.2      0.034      6.480
REMARK  6 active torsions:
REMARK  status: ('A' for Active; 'I' for Inactive)
REMARK    1  A    between atoms: C_2  and  C_5 
REMARK    2  A    between atoms: C_7  and  C_12 
REMARK    3  A    between atoms: C_10  and  O_11 
REMARK    4  A    between atoms: C_12  and  C_15 
REMARK    5  A    between atoms: C_18  and  O_25 
REMARK    6  A    between atoms: C_19  and  C_21 
ROOT
HETATM    1  C   UNK N   1      32.515  16.343   5.621  0.00  0.00     0.007 C 
HETATM    2  C   UNK N   1      32.973  17.344   4.561  0.00  0.00     0.025 C 
HETATM    3  C   UNK N   1      32.816  14.962   5.037  0.00  0.00     0.025 C 
ENDROOT
BRANCH   1   4
HETATM    4  C   UNK N   1      33.303  16.615   6.896  0.00  0.00    -0.045 A 
HETATM    5  C   UNK N   1      33.694  15.581   7.763  0.00  0.00     0.019 A 
HETATM    6  C   UNK N   1      34.475  15.832   8.910  0.00  0.00    -0.017 A 
HETATM    7  C   UNK N   1      34.888  17.170   9.163  0.00  0.00     0.072 A 
HETATM    8  C   UNK N   1      34.484  18.197   8.308  0.00  0.00     0.037 A 
HETATM    9  C   UNK N   1      33.693  17.927   7.195  0.00  0.00     0.011 A 
BRANCH   6  10
HETATM   10  C   UNK N   1      34.818  14.641   9.810  0.00  0.00    -0.021 C 
HETATM   11  C   UNK N   1      36.302  14.331   9.712  0.00  0.00     0.019 C 
HETATM   12  C   UNK N   1      34.500  14.819  11.285  0.00  0.00     0.019 C 
HETATM   13  C   UNK N   1      34.043  13.424   9.335  0.00  0.00     0.019 C 
ENDBRANCH   6  10
BRANCH   7  14
HETATM   14  O   UNK N   1      35.652  17.488  10.221  0.00  0.00    -0.360 OA
HETATM   15  H   UNK N   1      36.039  18.307  10.459  0.00  0.00     0.217 HD
ENDBRANCH   7  14
ENDBRANCH   1   4
BRANCH   1  16
HETATM   16  C   UNK N   1      31.017  16.441   5.885  0.00  0.00    -0.045 A 
HETATM   17  C   UNK N   1      30.121  15.757   5.053  0.00  0.00     0.011 A 
HETATM   18  C   UNK N   1      28.745  15.879   5.239  0.00  0.00     0.037 A 
HETATM   19  C   UNK N   1      28.233  16.655   6.281  0.00  0.00     0.072 A 
HETATM   20  C   UNK N   1      29.118  17.327   7.169  0.00  0.00    -0.017 A 
HETATM   21  C   UNK N   1      30.504  17.218   6.935  0.00  0.00     0.019 A 
BRANCH  19  22
HETATM   22  O   UNK N   1      26.898  16.736   6.414  0.00  0.00    -0.360 OA
HETATM   23  H   UNK N   1      26.266  16.082   6.639  0.00  0.00     0.217 HD
ENDBRANCH  19  22
BRANCH  20  24
HETATM   24  C   UNK N   1      28.665  18.148   8.379  0.00  0.00    -0.021 C 
HETATM   25  C   UNK N   1      27.858  19.347   7.915  0.00  0.00     0.019 C 
HETATM   26  C   UNK N   1      29.891  18.653   9.120  0.00  0.00     0.019 C 
HETATM   27  C   UNK N   1      27.816  17.404   9.397  0.00  0.00     0.019 C 
ENDBRANCH  20  24
ENDBRANCH   1  16
TORSDOF 6
ENDMDL
MODEL 3
REMARK VINA RESULT:      -7.2     13.126     15.631
REMARK  6 active torsions:
REMARK  status: ('A' for Active; 'I' for Inactive)
REMARK    1  A    between atoms: C_2  and  C_5 
REMARK    2  A    between atoms: C_7  and  C_12 
REMARK    3  A    between atoms: C_10  and  O_11 
REMARK    4  A    between atoms: C_12  and  C_15 
REMARK    5  A    between atoms: C_18  and  O_25 
REMARK    6  A    between atoms: C_19  and  C_21 
ROOT
HETATM    1  C   UNK N   1      29.508  20.647  -7.579  0.00  0.00     0.007 C 
HETATM    2  C   UNK N   1      29.336  19.151  -7.835  0.00  0.00     0.025 C 
HETATM    3  C   UNK N   1      30.496  21.133  -8.641  0.00  0.00     0.025 C 
ENDROOT
BRANCH   1   4
HETATM    4  C   UNK N   1      28.142  21.308  -7.716  0.00  0.00    -0.045 A 
HETATM    5  C   UNK N   1      27.974  22.698  -7.601  0.00  0.00     0.019 A 
HETATM    6  C   UNK N   1      26.717  23.310  -7.789  0.00  0.00    -0.017 A 
HETATM    7  C   UNK N   1      25.610  22.483  -8.127  0.00  0.00     0.072 A 
HETATM    8  C   UNK N   1      25.778  21.100  -8.226  0.00  0.00     0.037 A 
HETATM    9  C   UNK N   1      27.024  20.517  -8.013  0.00  0.00     0.011 A 
BRANCH   6  10
HETATM   10  C   UNK N   1      26.633  24.828  -7.606  0.00  0.00    -0.021 C 
HETATM   11  C   UNK N   1      28.019  25.397  -7.361  0.00  0.00     0.019 C 
HETATM   12  C   UNK N   1      26.039  25.598  -8.775  0.00  0.00     0.019 C 
HETATM   13  C   UNK N   1      25.770  25.132  -6.394  0.00  0.00     0.019 C 
ENDBRANCH   6  10
BRANCH   7  14
HETATM   14  O   UNK N   1      24.386  22.991  -8.346  0.00  0.00    -0.360 OA
HETATM   15  H   UNK N   1      23.752  22.773  -9.000  0.00  0.00     0.217 HD
ENDBRANCH   7  14
ENDBRANCH   1   4
BRANCH   1  16
HETATM   16  C   UNK N   1      30.102  20.924  -6.203  0.00  0.00    -0.045 A 
HETATM   17  C   UNK N   1      31.163  20.137  -5.736  0.00  0.00     0.011 A 
HETATM   18  C   UNK N   1      31.683  20.333  -4.458  0.00  0.00     0.037 A 
HETATM   19  C   UNK N   1      31.182  21.341  -3.632  0.00  0.00     0.072 A 
HETATM   20  C   UNK N   1      30.135  22.185  -4.094  0.00  0.00    -0.017 A 
HETATM   21  C   UNK N   1      29.600  21.940  -5.376  0.00  0.00     0.019 A 
BRANCH  19  22
HETATM   22  O   UNK N   1      31.723  21.486  -2.410  0.00  0.00    -0.360 OA
HETATM   23  H   UNK N   1      31.755  20.898  -1.681  0.00  0.00     0.217 HD
ENDBRANCH  19  22
BRANCH  20  24
HETATM   24  C   UNK N   1      29.558  23.358  -3.297  0.00  0.00    -0.021 C 
HETATM   25  C   UNK N   1      28.295  23.866  -3.968  0.00  0.00     0.019 C 
HETATM   26  C   UNK N   1      30.575  24.487  -3.275  0.00  0.00     0.019 C 
HETATM   27  C   UNK N   1      29.207  23.059  -1.849  0.00  0.00     0.019 C 
ENDBRANCH  20  24
ENDBRANCH   1  16
TORSDOF 6
ENDMDL
MODEL 4
REMARK VINA RESULT:      -7.2     13.225     16.611
REMARK  6 active torsions:
REMARK  status: ('A' for Active; 'I' for Inactive)
REMARK    1  A    between atoms: C_2  and  C_5 
REMARK    2  A    between atoms: C_7  and  C_12 
REMARK    3  A    between atoms: C_10  and  O_11 
REMARK    4  A    between atoms: C_12  and  C_15 
REMARK    5  A    between atoms: C_18  and  O_25 
REMARK    6  A    between atoms: C_19  and  C_21 
ROOT
HETATM    1  C   UNK N   1      29.439  20.643  -7.726  0.00  0.00     0.007 C 
HETATM    2  C   UNK N   1      30.415  21.164  -8.780  0.00  0.00     0.025 C 
HETATM    3  C   UNK N   1      29.281  19.150  -8.016  0.00  0.00     0.025 C 
ENDROOT
BRANCH   1   4
HETATM    4  C   UNK N   1      30.044  20.904  -6.353  0.00  0.00    -0.045 A 
HETATM    5  C   UNK N   1      29.584  21.938  -5.521  0.00  0.00     0.019 A 
HETATM    6  C   UNK N   1      30.107  22.136  -4.227  0.00  0.00    -0.017 A 
HETATM    7  C   UNK N   1      31.109  21.239  -3.762  0.00  0.00     0.072 A 
HETATM    8  C   UNK N   1      31.575  20.221  -4.596  0.00  0.00     0.037 A 
HETATM    9  C   UNK N   1      31.059  20.061  -5.880  0.00  0.00     0.011 A 
BRANCH   6  10
HETATM   10  C   UNK N   1      29.563  23.314  -3.413  0.00  0.00    -0.021 C 
HETATM   11  C   UNK N   1      28.366  23.923  -4.124  0.00  0.00     0.019 C 
HETATM   12  C   UNK N   1      29.116  22.984  -1.998  0.00  0.00     0.019 C 
HETATM   13  C   UNK N   1      30.642  24.376  -3.299  0.00  0.00     0.019 C 
ENDBRANCH   6  10
BRANCH   7  14
HETATM   14  O   UNK N   1      31.641  21.345  -2.533  0.00  0.00    -0.360 OA
HETATM   15  H   UNK N   1      31.232  21.552  -1.715  0.00  0.00     0.217 HD
ENDBRANCH   7  14
ENDBRANCH   1   4
BRANCH   1  16
HETATM   16  C   UNK N   1      28.071  21.305  -7.843  0.00  0.00    -0.045 A 
HETATM   17  C   UNK N   1      26.932  20.513  -8.041  0.00  0.00     0.011 A 
HETATM   18  C   UNK N   1      25.680  21.100  -8.209  0.00  0.00     0.037 A 
HETATM   19  C   UNK N   1      25.528  22.487  -8.148  0.00  0.00     0.072 A 
HETATM   20  C   UNK N   1      26.658  23.316  -7.905  0.00  0.00    -0.017 A 
HETATM   21  C   UNK N   1      27.920  22.699  -7.777  0.00  0.00     0.019 A 
BRANCH  19  22
HETATM   22  O   UNK N   1      24.297  22.998  -8.316  0.00  0.00    -0.360 OA
HETATM   23  H   UNK N   1      23.885  23.743  -7.924  0.00  0.00     0.217 HD
ENDBRANCH  19  22
BRANCH  20  24
HETATM   24  C   UNK N   1      26.594  24.838  -7.754  0.00  0.00    -0.021 C 
HETATM   25  C   UNK N   1      27.992  25.397  -7.563  0.00  0.00     0.019 C 
HETATM   26  C   UNK N   1      25.770  25.178  -6.523  0.00  0.00     0.019 C 
HETATM   27  C   UNK N   1      25.968  25.587  -8.919  0.00  0.00     0.019 C 
ENDBRANCH  20  24
ENDBRANCH   1  16
TORSDOF 6
ENDMDL
MODEL 5
REMARK VINA RESULT:      -7.1      1.658      6.649
REMARK  6 active torsions:
REMARK  status: ('A' for Active; 'I' for Inactive)
REMARK    1  A    between atoms: C_2  and  C_5 
REMARK    2  A    between atoms: C_7  and  C_12 
REMARK    3  A    between atoms: C_10  and  O_11 
REMARK    4  A    between atoms: C_12  and  C_15 
REMARK    5  A    between atoms: C_18  and  O_25 
REMARK    6  A    between atoms: C_19  and  C_21 
ROOT
HETATM    1  C   UNK N   1      32.840  17.255   7.434  0.00  0.00     0.007 C 
HETATM    2  C   UNK N   1      33.830  18.332   7.877  0.00  0.00     0.025 C 
HETATM    3  C   UNK N   1      32.977  17.174   5.913  0.00  0.00     0.025 C 
ENDROOT
BRANCH   1   4
HETATM    4  C   UNK N   1      33.225  15.950   8.119  0.00  0.00    -0.045 A 
HETATM    5  C   UNK N   1      34.184  15.904   9.144  0.00  0.00     0.019 A 
HETATM    6  C   UNK N   1      34.492  14.703   9.816  0.00  0.00    -0.017 A 
HETATM    7  C   UNK N   1      33.784  13.525   9.448  0.00  0.00     0.072 A 
HETATM    8  C   UNK N   1      32.842  13.572   8.418  0.00  0.00     0.037 A 
HETATM    9  C   UNK N   1      32.572  14.766   7.754  0.00  0.00     0.011 A 
BRANCH   6  10
HETATM   10  C   UNK N   1      35.578  14.751  10.895  0.00  0.00    -0.021 C 
HETATM   11  C   UNK N   1      35.982  16.192  11.156  0.00  0.00     0.019 C 
HETATM   12  C   UNK N   1      35.199  14.147  12.237  0.00  0.00     0.019 C 
HETATM   13  C   UNK N   1      36.799  13.994  10.400  0.00  0.00     0.019 C 
ENDBRANCH   6  10
BRANCH   7  14
HETATM   14  O   UNK N   1      34.001  12.347  10.055  0.00  0.00    -0.360 OA
HETATM   15  H   UNK N   1      34.550  12.139  10.786  0.00  0.00     0.217 HD
ENDBRANCH   7  14
ENDBRANCH   1   4
BRANCH   1  16
HETATM   16  C   UNK N   1      31.402  17.633   7.771  0.00  0.00    -0.045 A 
HETATM   17  C   UNK N   1      31.113  18.229   9.006  0.00  0.00     0.011 A 
HETATM   18  C   UNK N   1      29.799  18.528   9.359  0.00  0.00     0.037 A 
HETATM   19  C   UNK N   1      28.748  18.276   8.474  0.00  0.00     0.072 A 
HETATM   20  C   UNK N   1      29.013  17.713   7.196  0.00  0.00    -0.017 A 
HETATM   21  C   UNK N   1      30.348  17.383   6.879  0.00  0.00     0.019 A 
BRANCH  19  22
HETATM   22  O   UNK N   1      27.501  18.587   8.867  0.00  0.00    -0.360 OA
HETATM   23  H   UNK N   1      26.977  18.248   9.566  0.00  0.00     0.217 HD
ENDBRANCH  19  22
BRANCH  20  24
HETATM   24  C   UNK N   1      27.947  17.457   6.128  0.00  0.00    -0.021 C 
HETATM   25  C   UNK N   1      27.010  16.355   6.589  0.00  0.00     0.019 C 
HETATM   26  C   UNK N   1      28.628  17.002   4.848  0.00  0.00     0.019 C 
HETATM   27  C   UNK N   1      27.085  18.654   5.762  0.00  0.00     0.019 C 
ENDBRANCH  20  24
ENDBRANCH   1  16
TORSDOF 6
ENDMDL
MODEL 6
REMARK VINA RESULT:      -7.0      1.642      3.160
REMARK  6 active torsions:
REMARK  status: ('A' for Active; 'I' for Inactive)
REMARK    1  A    between atoms: C_2  and  C_5 
REMARK    2  A    between atoms: C_7  and  C_12 
REMARK    3  A    between atoms: C_10  and  O_11 
REMARK    4  A    between atoms: C_12  and  C_15 
REMARK    5  A    between atoms: C_18  and  O_25 
REMARK    6  A    between atoms: C_19  and  C_21 
ROOT
HETATM    1  C   UNK N   1      32.746  17.259   7.454  0.00  0.00     0.007 C 
HETATM    2  C   UNK N   1      32.848  17.253   5.929  0.00  0.00     0.025 C 
HETATM    3  C   UNK N   1      33.700  18.359   7.923  0.00  0.00     0.025 C 
ENDROOT
BRANCH   1   4
HETATM    4  C   UNK N   1      31.299  17.551   7.829  0.00  0.00    -0.045 A 
HETATM    5  C   UNK N   1      30.224  17.131   7.028  0.00  0.00     0.019 A 
HETATM    6  C   UNK N   1      28.885  17.351   7.411  0.00  0.00    -0.017 A 
HETATM    7  C   UNK N   1      28.638  17.994   8.656  0.00  0.00     0.072 A 
HETATM    8  C   UNK N   1      29.709  18.424   9.442  0.00  0.00     0.037 A 
HETATM    9  C   UNK N   1      31.023  18.216   9.032  0.00  0.00     0.011 A 
BRANCH   6  10
HETATM   10  C   UNK N   1      27.786  16.887   6.450  0.00  0.00    -0.021 C 
HETATM   11  C   UNK N   1      28.399  16.084   5.315  0.00  0.00     0.019 C 
HETATM   12  C   UNK N   1      26.697  16.023   7.065  0.00  0.00     0.019 C 
HETATM   13  C   UNK N   1      27.101  18.106   5.858  0.00  0.00     0.019 C 
ENDBRANCH   6  10
BRANCH   7  14
HETATM   14  O   UNK N   1      27.392  18.219   9.103  0.00  0.00    -0.360 OA
HETATM   15  H   UNK N   1      26.971  19.024   9.334  0.00  0.00     0.217 HD
ENDBRANCH   7  14
ENDBRANCH   1   4
BRANCH   1  16
HETATM   16  C   UNK N   1      33.200  15.935   8.058  0.00  0.00    -0.045 A 
HETATM   17  C   UNK N   1      32.736  14.730   7.514  0.00  0.00     0.011 A 
HETATM   18  C   UNK N   1      33.091  13.510   8.086  0.00  0.00     0.037 A 
HETATM   19  C   UNK N   1      33.943  13.462   9.191  0.00  0.00     0.072 A 
HETATM   20  C   UNK N   1      34.465  14.666   9.740  0.00  0.00    -0.017 A 
HETATM   21  C   UNK N   1      34.060  15.889   9.166  0.00  0.00     0.019 A 
BRANCH  19  22
HETATM   22  O   UNK N   1      34.253  12.258   9.701  0.00  0.00    -0.360 OA
HETATM   23  H   UNK N   1      34.681  12.024  10.501  0.00  0.00     0.217 HD
ENDBRANCH  19  22
BRANCH  20  24
HETATM   24  C   UNK N   1      35.456  14.723  10.905  0.00  0.00    -0.021 C 
HETATM   25  C   UNK N   1      35.641  16.161  11.355  0.00  0.00     0.019 C 
HETATM   26  C   UNK N   1      36.801  14.192  10.437  0.00  0.00     0.019 C 
HETATM   27  C   UNK N   1      35.072  13.916  12.134  0.00  0.00     0.019 C 
ENDBRANCH  20  24
ENDBRANCH   1  16
TORSDOF 6
ENDMDL
MODEL 7
REMARK VINA RESULT:      -6.7     13.177     15.589
REMARK  6 active torsions:
REMARK  status: ('A' for Active; 'I' for Inactive)
REMARK    1  A    between atoms: C_2  and  C_5 
REMARK    2  A    between atoms: C_7  and  C_12 
REMARK    3  A    between atoms: C_10  and  O_11 
REMARK    4  A    between atoms: C_12  and  C_15 
REMARK    5  A    between atoms: C_18  and  O_25 
REMARK    6  A    between atoms: C_19  and  C_21 
ROOT
HETATM    1  C   UNK N   1      27.250  24.579  -5.452  0.00  0.00     0.007 C 
HETATM    2  C   UNK N   1      25.945  23.786  -5.500  0.00  0.00     0.025 C 
HETATM    3  C   UNK N   1      27.765  24.607  -6.891  0.00  0.00     0.025 C 
ENDROOT
BRANCH   1   4
HETATM    4  C   UNK N   1      26.935  25.973  -4.923  0.00  0.00    -0.045 A 
HETATM    5  C   UNK N   1      27.939  26.831  -4.445  0.00  0.00     0.019 A 
HETATM    6  C   UNK N   1      27.649  28.142  -4.014  0.00  0.00    -0.017 A 
HETATM    7  C   UNK N   1      26.303  28.596  -4.098  0.00  0.00     0.072 A 
HETATM    8  C   UNK N   1      25.305  27.735  -4.560  0.00  0.00     0.037 A 
HETATM    9  C   UNK N   1      25.613  26.436  -4.958  0.00  0.00     0.011 A 
BRANCH   6  10
HETATM   10  C   UNK N   1      28.809  28.986  -3.477  0.00  0.00    -0.021 C 
HETATM   11  C   UNK N   1      30.063  28.135  -3.380  0.00  0.00     0.019 C 
HETATM   12  C   UNK N   1      29.167  30.211  -4.302  0.00  0.00     0.019 C 
HETATM   13  C   UNK N   1      28.456  29.479  -2.085  0.00  0.00     0.019 C 
ENDBRANCH   6  10
BRANCH   7  14
HETATM   14  O   UNK N   1      25.949  29.838  -3.731  0.00  0.00    -0.360 OA
HETATM   15  H   UNK N   1      25.545  30.521  -4.229  0.00  0.00     0.217 HD
ENDBRANCH   7  14
ENDBRANCH   1   4
BRANCH   1  16
HETATM   16  C   UNK N   1      28.296  23.898  -4.577  0.00  0.00    -0.045 A 
HETATM   17  C   UNK N   1      28.122  23.864  -3.187  0.00  0.00     0.011 A 
HETATM   18  C   UNK N   1      29.094  23.299  -2.364  0.00  0.00     0.037 A 
HETATM   19  C   UNK N   1      30.243  22.723  -2.909  0.00  0.00     0.072 A 
HETATM   20  C   UNK N   1      30.429  22.703  -4.319  0.00  0.00    -0.017 A 
HETATM   21  C   UNK N   1      29.449  23.316  -5.127  0.00  0.00     0.019 A 
BRANCH  19  22
HETATM   22  O   UNK N   1      31.146  22.191  -2.068  0.00  0.00    -0.360 OA
HETATM   23  H   UNK N   1      31.710  21.449  -2.165  0.00  0.00     0.217 HD
ENDBRANCH  19  22
BRANCH  20  24
HETATM   24  C   UNK N   1      31.617  22.042  -5.023  0.00  0.00    -0.021 C 
HETATM   25  C   UNK N   1      32.903  22.750  -4.639  0.00  0.00     0.019 C 
HETATM   26  C   UNK N   1      31.432  22.166  -6.526  0.00  0.00     0.019 C 
HETATM   27  C   UNK N   1      31.814  20.564  -4.728  0.00  0.00     0.019 C 
ENDBRANCH  20  24
ENDBRANCH   1  16
TORSDOF 6
ENDMDL
MODEL 8
REMARK VINA RESULT:      -6.6     13.250     16.422
REMARK  6 active torsions:
REMARK  status: ('A' for Active; 'I' for Inactive)
REMARK    1  A    between atoms: C_2  and  C_5 
REMARK    2  A    between atoms: C_7  and  C_12 
REMARK    3  A    between atoms: C_10  and  O_11 
REMARK    4  A    between atoms: C_12  and  C_15 
REMARK    5  A    between atoms: C_18  and  O_25 
REMARK    6  A    between atoms: C_19  and  C_21 
ROOT
HETATM    1  C   UNK N   1      27.068  24.754  -5.229  0.00  0.00     0.007 C 
HETATM    2  C   UNK N   1      27.480  24.703  -6.699  0.00  0.00     0.025 C 
HETATM    3  C   UNK N   1      25.751  23.980  -5.146  0.00  0.00     0.025 C 
ENDROOT
BRANCH   1   4
HETATM    4  C   UNK N   1      28.173  24.102  -4.407  0.00  0.00    -0.045 A 
HETATM    5  C   UNK N   1      29.440  23.827  -4.950  0.00  0.00     0.019 A 
HETATM    6  C   UNK N   1      30.477  23.280  -4.167  0.00  0.00    -0.017 A 
HETATM    7  C   UNK N   1      30.222  23.032  -2.790  0.00  0.00     0.072 A 
HETATM    8  C   UNK N   1      28.958  23.293  -2.257  0.00  0.00     0.037 A 
HETATM    9  C   UNK N   1      27.942  23.811  -3.056  0.00  0.00     0.011 A 
BRANCH   6  10
HETATM   10  C   UNK N   1      31.809  22.984  -4.862  0.00  0.00    -0.021 C 
HETATM   11  C   UNK N   1      32.718  24.198  -4.777  0.00  0.00     0.019 C 
HETATM   12  C   UNK N   1      32.593  21.806  -4.306  0.00  0.00     0.019 C 
HETATM   13  C   UNK N   1      31.546  22.686  -6.328  0.00  0.00     0.019 C 
ENDBRANCH   6  10
BRANCH   7  14
HETATM   14  O   UNK N   1      31.165  22.535  -1.972  0.00  0.00    -0.360 OA
HETATM   15  H   UNK N   1      31.681  22.963  -1.317  0.00  0.00     0.217 HD
ENDBRANCH   7  14
ENDBRANCH   1   4
BRANCH   1  16
HETATM   16  C   UNK N   1      26.821  26.182  -4.758  0.00  0.00    -0.045 A 
HETATM   17  C   UNK N   1      25.523  26.710  -4.798  0.00  0.00     0.011 A 
HETATM   18  C   UNK N   1      25.283  28.031  -4.428  0.00  0.00     0.037 A 
HETATM   19  C   UNK N   1      26.324  28.845  -3.975  0.00  0.00     0.072 A 
HETATM   20  C   UNK N   1      27.644  28.326  -3.881  0.00  0.00    -0.017 A 
HETATM   21  C   UNK N   1      27.867  26.997  -4.298  0.00  0.00     0.019 A 
BRANCH  19  22
HETATM   22  O   UNK N   1      26.034  30.111  -3.630  0.00  0.00    -0.360 OA
HETATM   23  H   UNK N   1      26.549  30.759  -3.191  0.00  0.00     0.217 HD
ENDBRANCH  19  22
BRANCH  20  24
HETATM   24  C   UNK N   1      28.842  29.108  -3.338  0.00  0.00    -0.021 C 
HETATM   25  C   UNK N   1      30.070  28.217  -3.309  0.00  0.00     0.019 C 
HETATM   26  C   UNK N   1      28.539  29.551  -1.916  0.00  0.00     0.019 C 
HETATM   27  C   UNK N   1      29.215  30.360  -4.114  0.00  0.00     0.019 C 
ENDBRANCH  20  24
ENDBRANCH   1  16
TORSDOF 6
ENDMDL
MODEL 9
REMARK VINA RESULT:      -6.6      6.409     10.492
REMARK  6 active torsions:
REMARK  status: ('A' for Active; 'I' for Inactive)
REMARK    1  A    between atoms: C_2  and  C_5 
REMARK    2  A    between atoms: C_7  and  C_12 
REMARK    3  A    between atoms: C_10  and  O_11 
REMARK    4  A    between atoms: C_12  and  C_15 
REMARK    5  A    between atoms: C_18  and  O_25 
REMARK    6  A    between atoms: C_19  and  C_21 
ROOT
HETATM    1  C   UNK N   1      34.975  11.247  14.987  0.00  0.00     0.007 C 
HETATM    2  C   UNK N   1      33.552  10.839  14.607  0.00  0.00     0.025 C 
HETATM    3  C   UNK N   1      35.825   9.990  14.794  0.00  0.00     0.025 C 
ENDROOT
BRANCH   1   4
HETATM    4  C   UNK N   1      35.403  12.381  14.065  0.00  0.00    -0.045 A 
HETATM    5  C   UNK N   1      35.025  12.422  12.712  0.00  0.00     0.019 A 
HETATM    6  C   UNK N   1      35.373  13.505  11.879  0.00  0.00    -0.017 A 
HETATM    7  C   UNK N   1      36.103  14.585  12.450  0.00  0.00     0.072 A 
HETATM    8  C   UNK N   1      36.489  14.534  13.790  0.00  0.00     0.037 A 
HETATM    9  C   UNK N   1      36.154  13.443  14.587  0.00  0.00     0.011 A 
BRANCH   6  10
HETATM   10  C   UNK N   1      34.944  13.437  10.411  0.00  0.00    -0.021 C 
HETATM   11  C   UNK N   1      33.883  14.488  10.134  0.00  0.00     0.019 C 
HETATM   12  C   UNK N   1      36.053  13.650   9.392  0.00  0.00     0.019 C 
HETATM   13  C   UNK N   1      34.347  12.069  10.134  0.00  0.00     0.019 C 
ENDBRANCH   6  10
BRANCH   7  14
HETATM   14  O   UNK N   1      36.452  15.664  11.729  0.00  0.00    -0.360 OA
HETATM   15  H   UNK N   1      36.101  16.533  11.738  0.00  0.00     0.217 HD
ENDBRANCH   7  14
ENDBRANCH   1   4
BRANCH   1  16
HETATM   16  C   UNK N   1      35.072  11.676  16.446  0.00  0.00    -0.045 A 
HETATM   17  C   UNK N   1      34.852  13.017  16.790  0.00  0.00     0.011 A 
HETATM   18  C   UNK N   1      34.994  13.444  18.109  0.00  0.00     0.037 A 
HETATM   19  C   UNK N   1      35.320  12.538  19.120  0.00  0.00     0.072 A 
HETATM   20  C   UNK N   1      35.506  11.163  18.811  0.00  0.00    -0.017 A 
HETATM   21  C   UNK N   1      35.396  10.764  17.462  0.00  0.00     0.019 A 
BRANCH  19  22
HETATM   22  O   UNK N   1      35.441  13.005  20.375  0.00  0.00    -0.360 OA
HETATM   23  H   UNK N   1      36.155  12.955  20.980  0.00  0.00     0.217 HD
ENDBRANCH  19  22
BRANCH  20  24
HETATM   24  C   UNK N   1      35.801  10.077  19.849  0.00  0.00    -0.021 C 
HETATM   25  C   UNK N   1      37.143  10.345  20.507  0.00  0.00     0.019 C 
HETATM   26  C   UNK N   1      35.871   8.730  19.150  0.00  0.00     0.019 C 
HETATM   27  C   UNK N   1      34.776   9.939  20.962  0.00  0.00     0.019 C 
ENDBRANCH  20  24
ENDBRANCH   1  16
TORSDOF 6
ENDMDL
