MODEL 1
REMARK VINA RESULT:      -6.7      0.000      0.000
REMARK  16 active torsions:
REMARK  status: ('A' for Active; 'I' for Inactive)
REMARK    1  A    between atoms: C_3  and  C_4 
REMARK    2  A    between atoms: C_4  and  C_5 
REMARK    3  A    between atoms: C_5  and  C_6 
REMARK    4  A    between atoms: C_5  and  O_38 
REMARK    5  A    between atoms: C_6  and  C_7 
REMARK    6  A    between atoms: C_8  and  N_9 
REMARK       I    between atoms: N_9  and  C_10 
REMARK    7  A    between atoms: C_10  and  C_12 
REMARK    8  A    between atoms: C_12  and  C_13 
REMARK    9  A    between atoms: C_12  and  N_17 
REMARK       I    between atoms: N_17  and  C_18 
REMARK   10  A    between atoms: C_18  and  C_20 
REMARK   11  A    between atoms: C_21  and  C_22 
REMARK   12  A    between atoms: C_23  and  C_24 
REMARK   13  A    between atoms: C_25  and  C_26 
REMARK   14  A    between atoms: C_28  and  C_26 
REMARK   15  A    between atoms: C_31  and  O_35 
REMARK   16  A    between atoms: O_38  and  C_39 
REMARK       I    between atoms: C_39  and  N_41 
ROOT
HETATM    1  C   UNK N   1      25.939  16.511   4.219  0.00  0.00     0.184 C 
ENDROOT
BRANCH   1   2
HETATM    2  C   UNK N   1      24.955  17.643   4.373  0.00  0.00     0.245 C 
HETATM    3  N   UNK N   1      23.946  17.559   5.281  0.00  0.00    -0.336 N 
HETATM    4  H   UNK N   1      23.973  16.808   5.917  0.00  0.00     0.168 HD
HETATM    5  O   UNK N   1      25.015  18.576   3.588  0.00  0.00    -0.271 OA
BRANCH   3   6
HETATM    6  C   UNK N   1      22.849  18.471   5.391  0.00  0.00     0.087 C 
HETATM    7  C   UNK N   1      21.704  18.422   4.686  0.00  0.00    -0.007 C 
BRANCH   7   8
HETATM    8  C   UNK N   1      21.411  17.465   3.571  0.00  0.00     0.061 C 
BRANCH   8   9
HETATM    9  C   UNK N   1      20.939  18.199   2.328  0.00  0.00     0.140 C 
BRANCH   9  10
HETATM   10  C   UNK N   1      19.770  17.425   1.742  0.00  0.00     0.059 C 
BRANCH  10  11
HETATM   11  C   UNK N   1      20.240  16.435   0.722  0.00  0.00    -0.028 C 
HETATM   12  C   UNK N   1      20.197  15.115   0.932  0.00  0.00    -0.035 C 
HETATM   13  C   UNK N   1      19.664  14.515   2.193  0.00  0.00     0.036 C 
ENDBRANCH  10  11
ENDBRANCH   9  10
BRANCH   9  14
HETATM   14  O   UNK N   1      20.530  19.473   2.667  0.00  0.00    -0.298 OA
BRANCH  14  15
HETATM   15  C   UNK N   1      20.959  20.587   2.024  0.00  0.00     0.358 C 
HETATM   16  O   UNK N   1      21.799  21.320   2.535  0.00  0.00    -0.239 OA
HETATM   17  N   UNK N   1      20.439  20.911   0.829  0.00  0.00    -0.346 N 
HETATM   18  H   UNK N   1      20.420  20.284   0.069  0.00  0.00     0.161 HD
HETATM   19  H   UNK N   1      20.060  21.812   0.707  0.00  0.00     0.161 HD
ENDBRANCH  14  15
ENDBRANCH   9  14
ENDBRANCH   8   9
ENDBRANCH   7   8
ENDBRANCH   3   6
ENDBRANCH   1   2
BRANCH   1  20
HETATM   20  C   UNK N   1      27.327  16.771   4.844  0.00  0.00    -0.022 C 
HETATM   21  C   UNK N   1      28.202  17.532   3.868  0.00  0.00     0.017 C 
HETATM   22  C   UNK N   1      28.021  15.453   5.146  0.00  0.00     0.017 C 
HETATM   23  C   UNK N   1      27.223  17.579   6.126  0.00  0.00     0.017 C 
ENDBRANCH   1  20
BRANCH   1  24
HETATM   24  N   UNK N   1      26.015  16.011   2.860  0.00  0.00    -0.344 N 
HETATM   25  C   UNK N   1      25.060  15.206   2.314  0.00  0.00     0.241 C 
HETATM   26  O   UNK N   1      25.157  14.880   1.142  0.00  0.00    -0.269 OA
HETATM   27  H   UNK N   1      26.791  16.263   2.308  0.00  0.00     0.163 HD
BRANCH  25  28
HETATM   28  C   UNK N   1      23.865  14.759   3.084  0.00  0.00     0.074 C 
HETATM   29  C   UNK N   1      23.912  13.907   4.122  0.00  0.00     0.005 C 
BRANCH  29  30
HETATM   30  C   UNK N   1      25.136  13.147   4.427  0.00  0.00     0.001 C 
HETATM   31  C   UNK N   1      25.493  12.803   5.673  0.00  0.00     0.006 C 
BRANCH  31  32
HETATM   32  C   UNK N   1      24.911  13.348   6.922  0.00  0.00    -0.065 C 
HETATM   33  C   UNK N   1      24.107  12.542   7.626  0.00  0.00    -0.013 C 
HETATM   34  C   UNK N   1      25.410  14.639   7.509  0.00  0.00     0.048 C 
BRANCH  33  35
HETATM   35  C   UNK N   1      23.702  12.787   9.059  0.00  0.00     0.034 C 
HETATM   36  C   UNK N   1      24.746  12.309  10.059  0.00  0.00     0.017 C 
BRANCH  35  37
HETATM   37  C   UNK N   1      22.331  12.121   9.283  0.00  0.00     0.143 C 
HETATM   38  C   UNK N   1      21.501  12.834  10.360  0.00  0.00     0.063 C 
HETATM   39  C   UNK N   1      20.845  14.083   9.823  0.00  0.00     0.019 C 
HETATM   40  C   UNK N   1      20.606  14.240   8.504  0.00  0.00     0.140 C 
HETATM   41  C   UNK N   1      21.004  13.156   7.585  0.00  0.00     0.316 C 
HETATM   42  O   UNK N   1      20.750  13.226   6.392  0.00  0.00    -0.257 OA
HETATM   43  O   UNK N   1      21.637  12.068   8.081  0.00  0.00    -0.310 OA
BRANCH  40  44
HETATM   44  O   UNK N   1      19.989  15.345   8.014  0.00  0.00    -0.350 OA
HETATM   45  C   UNK N   1      20.042  16.576   8.628  0.00  0.00     0.210 C 
ENDBRANCH  40  44
ENDBRANCH  35  37
ENDBRANCH  33  35
ENDBRANCH  31  32
ENDBRANCH  29  30
ENDBRANCH  25  28
ENDBRANCH   1  24
TORSDOF 16
ENDMDL
MODEL 2
REMARK VINA RESULT:      -6.7      4.636      7.638
REMARK  16 active torsions:
REMARK  status: ('A' for Active; 'I' for Inactive)
REMARK    1  A    between atoms: C_3  and  C_4 
REMARK    2  A    between atoms: C_4  and  C_5 
REMARK    3  A    between atoms: C_5  and  C_6 
REMARK    4  A    between atoms: C_5  and  O_38 
REMARK    5  A    between atoms: C_6  and  C_7 
REMARK    6  A    between atoms: C_8  and  N_9 
REMARK       I    between atoms: N_9  and  C_10 
REMARK    7  A    between atoms: C_10  and  C_12 
REMARK    8  A    between atoms: C_12  and  C_13 
REMARK    9  A    between atoms: C_12  and  N_17 
REMARK       I    between atoms: N_17  and  C_18 
REMARK   10  A    between atoms: C_18  and  C_20 
REMARK   11  A    between atoms: C_21  and  C_22 
REMARK   12  A    between atoms: C_23  and  C_24 
REMARK   13  A    between atoms: C_25  and  C_26 
REMARK   14  A    between atoms: C_28  and  C_26 
REMARK   15  A    between atoms: C_31  and  O_35 
REMARK   16  A    between atoms: O_38  and  C_39 
REMARK       I    between atoms: C_39  and  N_41 
ROOT
HETATM    1  C   UNK N   1      25.467  18.443   4.248  0.00  0.00     0.184 C 
ENDROOT
BRANCH   1   2
HETATM    2  C   UNK N   1      24.017  18.638   4.612  0.00  0.00     0.245 C 
HETATM    3  N   UNK N   1      23.481  17.980   5.675  0.00  0.00    -0.336 N 
HETATM    4  H   UNK N   1      24.102  17.495   6.266  0.00  0.00     0.168 HD
HETATM    5  O   UNK N   1      23.316  19.303   3.867  0.00  0.00    -0.271 OA
BRANCH   3   6
HETATM    6  C   UNK N   1      22.090  17.934   6.007  0.00  0.00     0.087 C 
HETATM    7  C   UNK N   1      21.199  17.028   5.564  0.00  0.00    -0.007 C 
BRANCH   7   8
HETATM    8  C   UNK N   1      21.477  15.962   4.548  0.00  0.00     0.061 C 
BRANCH   8   9
HETATM    9  C   UNK N   1      21.227  16.469   3.138  0.00  0.00     0.140 C 
BRANCH   9  10
HETATM   10  C   UNK N   1      21.257  15.276   2.198  0.00  0.00     0.059 C 
BRANCH  10  11
HETATM   11  C   UNK N   1      20.256  14.243   2.611  0.00  0.00    -0.028 C 
HETATM   12  C   UNK N   1      19.212  13.910   1.843  0.00  0.00    -0.035 C 
HETATM   13  C   UNK N   1      18.966  14.528   0.505  0.00  0.00     0.036 C 
ENDBRANCH  10  11
ENDBRANCH   9  10
BRANCH   9  14
HETATM   14  O   UNK N   1      19.991  17.080   3.076  0.00  0.00    -0.298 OA
BRANCH  14  15
HETATM   15  C   UNK N   1      19.755  18.208   2.362  0.00  0.00     0.358 C 
HETATM   16  O   UNK N   1      20.677  18.808   1.817  0.00  0.00    -0.239 OA
HETATM   17  N   UNK N   1      18.507  18.695   2.274  0.00  0.00    -0.346 N 
HETATM   18  H   UNK N   1      17.744  18.151   1.970  0.00  0.00     0.161 HD
HETATM   19  H   UNK N   1      18.347  19.634   2.522  0.00  0.00     0.161 HD
ENDBRANCH  14  15
ENDBRANCH   9  14
ENDBRANCH   8   9
ENDBRANCH   7   8
ENDBRANCH   3   6
ENDBRANCH   1   2
BRANCH   1  20
HETATM   20  C   UNK N   1      26.315  19.733   4.246  0.00  0.00    -0.022 C 
HETATM   21  C   UNK N   1      26.086  20.503   2.960  0.00  0.00     0.017 C 
HETATM   22  C   UNK N   1      27.794  19.391   4.315  0.00  0.00     0.017 C 
HETATM   23  C   UNK N   1      25.962  20.637   5.415  0.00  0.00     0.017 C 
ENDBRANCH   1  20
BRANCH   1  24
HETATM   24  N   UNK N   1      25.645  17.648   3.047  0.00  0.00    -0.344 N 
HETATM   25  C   UNK N   1      26.336  16.474   3.032  0.00  0.00     0.241 C 
HETATM   26  O   UNK N   1      26.386  15.825   2.000  0.00  0.00    -0.269 OA
HETATM   27  H   UNK N   1      25.248  17.971   2.206  0.00  0.00     0.163 HD
BRANCH  25  28
HETATM   28  C   UNK N   1      26.987  15.922   4.255  0.00  0.00     0.074 C 
HETATM   29  C   UNK N   1      28.316  15.861   4.440  0.00  0.00     0.005 C 
BRANCH  29  30
HETATM   30  C   UNK N   1      29.251  16.113   3.330  0.00  0.00     0.001 C 
HETATM   31  C   UNK N   1      30.579  15.969   3.444  0.00  0.00     0.006 C 
BRANCH  31  32
HETATM   32  C   UNK N   1      31.329  15.827   4.714  0.00  0.00    -0.065 C 
HETATM   33  C   UNK N   1      31.633  16.952   5.374  0.00  0.00    -0.013 C 
HETATM   34  C   UNK N   1      31.500  14.483   5.366  0.00  0.00     0.048 C 
BRANCH  33  35
HETATM   35  C   UNK N   1      32.081  16.996   6.814  0.00  0.00     0.034 C 
HETATM   36  C   UNK N   1      31.073  17.684   7.726  0.00  0.00     0.017 C 
BRANCH  35  37
HETATM   37  C   UNK N   1      33.465  17.673   6.859  0.00  0.00     0.143 C 
HETATM   38  C   UNK N   1      33.849  18.129   8.273  0.00  0.00     0.063 C 
HETATM   39  C   UNK N   1      34.347  16.978   9.115  0.00  0.00     0.019 C 
HETATM   40  C   UNK N   1      34.857  15.864   8.550  0.00  0.00     0.140 C 
HETATM   41  C   UNK N   1      34.919  15.788   7.078  0.00  0.00     0.316 C 
HETATM   42  O   UNK N   1      35.432  14.827   6.524  0.00  0.00    -0.257 OA
HETATM   43  O   UNK N   1      34.422  16.809   6.342  0.00  0.00    -0.310 OA
BRANCH  40  44
HETATM   44  O   UNK N   1      35.335  14.837   9.298  0.00  0.00    -0.350 OA
HETATM   45  C   UNK N   1      34.636  14.270  10.339  0.00  0.00     0.210 C 
ENDBRANCH  40  44
ENDBRANCH  35  37
ENDBRANCH  33  35
ENDBRANCH  31  32
ENDBRANCH  29  30
ENDBRANCH  25  28
ENDBRANCH   1  24
TORSDOF 16
ENDMDL
MODEL 3
REMARK VINA RESULT:      -6.6      4.482      7.910
REMARK  16 active torsions:
REMARK  status: ('A' for Active; 'I' for Inactive)
REMARK    1  A    between atoms: C_3  and  C_4 
REMARK    2  A    between atoms: C_4  and  C_5 
REMARK    3  A    between atoms: C_5  and  C_6 
REMARK    4  A    between atoms: C_5  and  O_38 
REMARK    5  A    between atoms: C_6  and  C_7 
REMARK    6  A    between atoms: C_8  and  N_9 
REMARK       I    between atoms: N_9  and  C_10 
REMARK    7  A    between atoms: C_10  and  C_12 
REMARK    8  A    between atoms: C_12  and  C_13 
REMARK    9  A    between atoms: C_12  and  N_17 
REMARK       I    between atoms: N_17  and  C_18 
REMARK   10  A    between atoms: C_18  and  C_20 
REMARK   11  A    between atoms: C_21  and  C_22 
REMARK   12  A    between atoms: C_23  and  C_24 
REMARK   13  A    between atoms: C_25  and  C_26 
REMARK   14  A    between atoms: C_28  and  C_26 
REMARK   15  A    between atoms: C_31  and  O_35 
REMARK   16  A    between atoms: O_38  and  C_39 
REMARK       I    between atoms: C_39  and  N_41 
ROOT
HETATM    1  C   UNK N   1      25.536  19.297   4.064  0.00  0.00     0.184 C 
ENDROOT
BRANCH   1   2
HETATM    2  C   UNK N   1      24.668  20.031   3.073  0.00  0.00     0.245 C 
HETATM    3  N   UNK N   1      23.321  20.092   3.251  0.00  0.00    -0.336 N 
HETATM    4  H   UNK N   1      22.964  19.766   4.109  0.00  0.00     0.168 HD
HETATM    5  O   UNK N   1      25.186  20.464   2.056  0.00  0.00    -0.271 OA
BRANCH   3   6
HETATM    6  C   UNK N   1      22.379  20.589   2.296  0.00  0.00     0.087 C 
HETATM    7  C   UNK N   1      21.063  20.306   2.259  0.00  0.00    -0.007 C 
BRANCH   7   8
HETATM    8  C   UNK N   1      20.361  19.325   3.147  0.00  0.00     0.061 C 
BRANCH   8   9
HETATM    9  C   UNK N   1      20.533  17.904   2.638  0.00  0.00     0.140 C 
BRANCH   9  10
HETATM   10  C   UNK N   1      20.551  16.975   3.840  0.00  0.00     0.059 C 
BRANCH  10  11
HETATM   11  C   UNK N   1      21.040  17.687   5.062  0.00  0.00    -0.028 C 
HETATM   12  C   UNK N   1      21.573  17.040   6.104  0.00  0.00    -0.035 C 
HETATM   13  C   UNK N   1      21.740  15.555   6.131  0.00  0.00     0.036 C 
ENDBRANCH  10  11
ENDBRANCH   9  10
BRANCH   9  14
HETATM   14  O   UNK N   1      19.478  17.575   1.811  0.00  0.00    -0.298 OA
BRANCH  14  15
HETATM   15  C   UNK N   1      19.614  16.808   0.702  0.00  0.00     0.358 C 
HETATM   16  O   UNK N   1      20.705  16.333   0.400  0.00  0.00    -0.239 OA
HETATM   17  N   UNK N   1      18.556  16.589  -0.094  0.00  0.00    -0.346 N 
HETATM   18  H   UNK N   1      17.702  16.233   0.243  0.00  0.00     0.161 HD
HETATM   19  H   UNK N   1      18.636  16.793  -1.054  0.00  0.00     0.161 HD
ENDBRANCH  14  15
ENDBRANCH   9  14
ENDBRANCH   8   9
ENDBRANCH   7   8
ENDBRANCH   3   6
ENDBRANCH   1   2
BRANCH   1  20
HETATM   20  C   UNK N   1      25.371  17.762   4.056  0.00  0.00    -0.022 C 
HETATM   21  C   UNK N   1      25.172  17.254   5.470  0.00  0.00     0.017 C 
HETATM   22  C   UNK N   1      26.626  17.102   3.507  0.00  0.00     0.017 C 
HETATM   23  C   UNK N   1      24.180  17.330   3.219  0.00  0.00     0.017 C 
ENDBRANCH   1  20
BRANCH   1  24
HETATM   24  N   UNK N   1      25.474  19.866   5.397  0.00  0.00    -0.344 N 
HETATM   25  C   UNK N   1      26.586  20.207   6.108  0.00  0.00     0.241 C 
HETATM   26  O   UNK N   1      26.455  20.744   7.195  0.00  0.00    -0.269 OA
HETATM   27  H   UNK N   1      24.590  20.012   5.806  0.00  0.00     0.163 HD
BRANCH  25  28
HETATM   28  C   UNK N   1      27.962  19.999   5.574  0.00  0.00     0.074 C 
HETATM   29  C   UNK N   1      28.702  18.901   5.801  0.00  0.00     0.005 C 
BRANCH  29  30
HETATM   30  C   UNK N   1      28.300  17.910   6.813  0.00  0.00     0.001 C 
HETATM   31  C   UNK N   1      29.181  17.231   7.564  0.00  0.00     0.006 C 
BRANCH  31  32
HETATM   32  C   UNK N   1      30.639  17.143   7.320  0.00  0.00    -0.065 C 
HETATM   33  C   UNK N   1      31.033  16.632   6.147  0.00  0.00    -0.013 C 
HETATM   34  C   UNK N   1      31.619  17.837   8.224  0.00  0.00     0.048 C 
BRANCH  33  35
HETATM   35  C   UNK N   1      32.428  16.770   5.587  0.00  0.00     0.034 C 
HETATM   36  C   UNK N   1      32.489  17.678   4.367  0.00  0.00     0.017 C 
BRANCH  35  37
HETATM   37  C   UNK N   1      32.959  15.355   5.288  0.00  0.00     0.143 C 
HETATM   38  C   UNK N   1      34.493  15.303   5.232  0.00  0.00     0.063 C 
HETATM   39  C   UNK N   1      35.101  15.276   6.614  0.00  0.00     0.019 C 
HETATM   40  C   UNK N   1      34.400  14.839   7.681  0.00  0.00     0.140 C 
HETATM   41  C   UNK N   1      33.012  14.384   7.472  0.00  0.00     0.316 C 
HETATM   42  O   UNK N   1      32.362  13.920   8.397  0.00  0.00    -0.257 OA
HETATM   43  O   UNK N   1      32.470  14.464   6.234  0.00  0.00    -0.310 OA
BRANCH  40  44
HETATM   44  O   UNK N   1      34.947  14.782   8.922  0.00  0.00    -0.350 OA
HETATM   45  C   UNK N   1      34.830  15.794   9.847  0.00  0.00     0.210 C 
ENDBRANCH  40  44
ENDBRANCH  35  37
ENDBRANCH  33  35
ENDBRANCH  31  32
ENDBRANCH  29  30
ENDBRANCH  25  28
ENDBRANCH   1  24
TORSDOF 16
ENDMDL
MODEL 4
REMARK VINA RESULT:      -6.6      3.048      8.195
REMARK  16 active torsions:
REMARK  status: ('A' for Active; 'I' for Inactive)
REMARK    1  A    between atoms: C_3  and  C_4 
REMARK    2  A    between atoms: C_4  and  C_5 
REMARK    3  A    between atoms: C_5  and  C_6 
REMARK    4  A    between atoms: C_5  and  O_38 
REMARK    5  A    between atoms: C_6  and  C_7 
REMARK    6  A    between atoms: C_8  and  N_9 
REMARK       I    between atoms: N_9  and  C_10 
REMARK    7  A    between atoms: C_10  and  C_12 
REMARK    8  A    between atoms: C_12  and  C_13 
REMARK    9  A    between atoms: C_12  and  N_17 
REMARK       I    between atoms: N_17  and  C_18 
REMARK   10  A    between atoms: C_18  and  C_20 
REMARK   11  A    between atoms: C_21  and  C_22 
REMARK   12  A    between atoms: C_23  and  C_24 
REMARK   13  A    between atoms: C_25  and  C_26 
REMARK   14  A    between atoms: C_28  and  C_26 
REMARK   15  A    between atoms: C_31  and  O_35 
REMARK   16  A    between atoms: O_38  and  C_39 
REMARK       I    between atoms: C_39  and  N_41 
ROOT
HETATM    1  C   UNK N   1      21.371  15.964   5.340  0.00  0.00     0.184 C 
ENDROOT
BRANCH   1   2
HETATM    2  C   UNK N   1      20.483  15.626   6.511  0.00  0.00     0.245 C 
HETATM    3  N   UNK N   1      21.027  15.267   7.705  0.00  0.00    -0.336 N 
HETATM    4  H   UNK N   1      22.000  15.374   7.808  0.00  0.00     0.168 HD
HETATM    5  O   UNK N   1      19.278  15.570   6.328  0.00  0.00    -0.271 OA
BRANCH   3   6
HETATM    6  C   UNK N   1      20.303  14.747   8.824  0.00  0.00     0.087 C 
HETATM    7  C   UNK N   1      20.815  14.010   9.827  0.00  0.00    -0.007 C 
BRANCH   7   8
HETATM    8  C   UNK N   1      22.222  13.501   9.898  0.00  0.00     0.061 C 
BRANCH   8   9
HETATM    9  C   UNK N   1      22.299  12.039   9.495  0.00  0.00     0.140 C 
BRANCH   9  10
HETATM   10  C   UNK N   1      23.103  11.948   8.209  0.00  0.00     0.059 C 
BRANCH  10  11
HETATM   11  C   UNK N   1      23.896  13.197   7.983  0.00  0.00    -0.028 C 
HETATM   12  C   UNK N   1      24.902  13.258   7.104  0.00  0.00    -0.035 C 
HETATM   13  C   UNK N   1      25.309  12.091   6.263  0.00  0.00     0.036 C 
ENDBRANCH  10  11
ENDBRANCH   9  10
BRANCH   9  14
HETATM   14  O   UNK N   1      22.926  11.314  10.488  0.00  0.00    -0.298 OA
BRANCH  14  15
HETATM   15  C   UNK N   1      23.648  11.887  11.482  0.00  0.00     0.358 C 
HETATM   16  O   UNK N   1      23.152  12.072  12.589  0.00  0.00    -0.239 OA
HETATM   17  N   UNK N   1      24.909  12.286  11.249  0.00  0.00    -0.346 N 
HETATM   18  H   UNK N   1      25.596  11.686  10.877  0.00  0.00     0.161 HD
HETATM   19  H   UNK N   1      25.157  13.216  11.458  0.00  0.00     0.161 HD
ENDBRANCH  14  15
ENDBRANCH   9  14
ENDBRANCH   8   9
ENDBRANCH   7   8
ENDBRANCH   3   6
ENDBRANCH   1   2
BRANCH   1  20
HETATM   20  C   UNK N   1      21.751  17.456   5.224  0.00  0.00    -0.022 C 
HETATM   21  C   UNK N   1      23.259  17.606   5.184  0.00  0.00     0.017 C 
HETATM   22  C   UNK N   1      21.249  18.221   6.438  0.00  0.00     0.017 C 
HETATM   23  C   UNK N   1      21.173  18.086   3.969  0.00  0.00     0.017 C 
ENDBRANCH   1  20
BRANCH   1  24
HETATM   24  N   UNK N   1      20.894  15.402   4.090  0.00  0.00    -0.344 N 
HETATM   25  C   UNK N   1      21.514  14.365   3.461  0.00  0.00     0.241 C 
HETATM   26  O   UNK N   1      21.017  13.901   2.449  0.00  0.00    -0.269 OA
HETATM   27  H   UNK N   1      20.087  15.788   3.679  0.00  0.00     0.163 HD
BRANCH  25  28
HETATM   28  C   UNK N   1      22.753  13.737   4.001  0.00  0.00     0.074 C 
HETATM   29  C   UNK N   1      23.998  14.129   3.686  0.00  0.00     0.005 C 
BRANCH  29  30
HETATM   30  C   UNK N   1      24.241  15.066   2.575  0.00  0.00     0.001 C 
HETATM   31  C   UNK N   1      25.444  15.602   2.320  0.00  0.00     0.006 C 
BRANCH  31  32
HETATM   32  C   UNK N   1      26.611  15.585   3.231  0.00  0.00    -0.065 C 
HETATM   33  C   UNK N   1      26.673  16.544   4.164  0.00  0.00    -0.013 C 
HETATM   34  C   UNK N   1      27.534  14.399   3.285  0.00  0.00     0.048 C 
BRANCH  33  35
HETATM   35  C   UNK N   1      27.580  16.498   5.370  0.00  0.00     0.034 C 
HETATM   36  C   UNK N   1      26.852  16.085   6.642  0.00  0.00     0.017 C 
BRANCH  35  37
HETATM   37  C   UNK N   1      28.257  17.875   5.505  0.00  0.00     0.143 C 
HETATM   38  C   UNK N   1      28.599  18.219   6.962  0.00  0.00     0.063 C 
HETATM   39  C   UNK N   1      29.856  17.519   7.419  0.00  0.00     0.019 C 
HETATM   40  C   UNK N   1      30.786  17.097   6.537  0.00  0.00     0.140 C 
HETATM   41  C   UNK N   1      30.549  17.333   5.100  0.00  0.00     0.316 C 
HETATM   42  O   UNK N   1      31.392  17.026   4.270  0.00  0.00    -0.257 OA
HETATM   43  O   UNK N   1      29.393  17.917   4.708  0.00  0.00    -0.310 OA
BRANCH  40  44
HETATM   44  O   UNK N   1      31.934  16.494   6.940  0.00  0.00    -0.350 OA
HETATM   45  C   UNK N   1      32.185  16.143   8.247  0.00  0.00     0.210 C 
ENDBRANCH  40  44
ENDBRANCH  35  37
ENDBRANCH  33  35
ENDBRANCH  31  32
ENDBRANCH  29  30
ENDBRANCH  25  28
ENDBRANCH   1  24
TORSDOF 16
ENDMDL
MODEL 5
REMARK VINA RESULT:      -6.6      3.513      5.655
REMARK  16 active torsions:
REMARK  status: ('A' for Active; 'I' for Inactive)
REMARK    1  A    between atoms: C_3  and  C_4 
REMARK    2  A    between atoms: C_4  and  C_5 
REMARK    3  A    between atoms: C_5  and  C_6 
REMARK    4  A    between atoms: C_5  and  O_38 
REMARK    5  A    between atoms: C_6  and  C_7 
REMARK    6  A    between atoms: C_8  and  N_9 
REMARK       I    between atoms: N_9  and  C_10 
REMARK    7  A    between atoms: C_10  and  C_12 
REMARK    8  A    between atoms: C_12  and  C_13 
REMARK    9  A    between atoms: C_12  and  N_17 
REMARK       I    between atoms: N_17  and  C_18 
REMARK   10  A    between atoms: C_18  and  C_20 
REMARK   11  A    between atoms: C_21  and  C_22 
REMARK   12  A    between atoms: C_23  and  C_24 
REMARK   13  A    between atoms: C_25  and  C_26 
REMARK   14  A    between atoms: C_28  and  C_26 
REMARK   15  A    between atoms: C_31  and  O_35 
REMARK   16  A    between atoms: O_38  and  C_39 
REMARK       I    between atoms: C_39  and  N_41 
ROOT
HETATM    1  C   UNK N   1      28.389  17.414   6.480  0.00  0.00     0.184 C 
ENDROOT
BRANCH   1   2
HETATM    2  C   UNK N   1      27.604  18.300   5.547  0.00  0.00     0.245 C 
HETATM    3  N   UNK N   1      26.248  18.204   5.486  0.00  0.00    -0.336 N 
HETATM    4  H   UNK N   1      25.804  17.644   6.165  0.00  0.00     0.168 HD
HETATM    5  O   UNK N   1      28.217  19.016   4.772  0.00  0.00    -0.271 OA
BRANCH   3   6
HETATM    6  C   UNK N   1      25.413  18.847   4.519  0.00  0.00     0.087 C 
HETATM    7  C   UNK N   1      24.073  18.744   4.434  0.00  0.00    -0.007 C 
BRANCH   7   8
HETATM    8  C   UNK N   1      23.218  17.844   5.273  0.00  0.00     0.061 C 
BRANCH   8   9
HETATM    9  C   UNK N   1      21.742  18.126   5.050  0.00  0.00     0.140 C 
BRANCH   9  10
HETATM   10  C   UNK N   1      21.416  17.801   3.602  0.00  0.00     0.059 C 
BRANCH  10  11
HETATM   11  C   UNK N   1      20.096  18.385   3.205  0.00  0.00    -0.028 C 
HETATM   12  C   UNK N   1      19.987  19.596   2.649  0.00  0.00    -0.035 C 
HETATM   13  C   UNK N   1      21.171  20.462   2.363  0.00  0.00     0.036 C 
ENDBRANCH  10  11
ENDBRANCH   9  10
BRANCH   9  14
HETATM   14  O   UNK N   1      20.985  17.332   5.887  0.00  0.00    -0.298 OA
BRANCH  14  15
HETATM   15  C   UNK N   1      20.728  17.649   7.180  0.00  0.00     0.358 C 
HETATM   16  O   UNK N   1      20.700  18.821   7.543  0.00  0.00    -0.239 OA
HETATM   17  N   UNK N   1      20.532  16.673   8.082  0.00  0.00    -0.346 N 
HETATM   18  H   UNK N   1      19.865  15.959   7.956  0.00  0.00     0.161 HD
HETATM   19  H   UNK N   1      21.076  16.671   8.902  0.00  0.00     0.161 HD
ENDBRANCH  14  15
ENDBRANCH   9  14
ENDBRANCH   8   9
ENDBRANCH   7   8
ENDBRANCH   3   6
ENDBRANCH   1   2
BRANCH   1  20
HETATM   20  C   UNK N   1      28.577  17.978   7.905  0.00  0.00    -0.022 C 
HETATM   21  C   UNK N   1      30.043  17.937   8.291  0.00  0.00     0.017 C 
HETATM   22  C   UNK N   1      27.818  17.127   8.911  0.00  0.00     0.017 C 
HETATM   23  C   UNK N   1      28.093  19.414   8.008  0.00  0.00     0.017 C 
ENDBRANCH   1  20
BRANCH   1  24
HETATM   24  N   UNK N   1      29.627  16.935   5.894  0.00  0.00    -0.344 N 
HETATM   25  C   UNK N   1      29.752  15.697   5.339  0.00  0.00     0.241 C 
HETATM   26  O   UNK N   1      30.804  15.389   4.803  0.00  0.00    -0.269 OA
HETATM   27  H   UNK N   1      30.411  17.531   5.897  0.00  0.00     0.163 HD
BRANCH  25  28
HETATM   28  C   UNK N   1      28.624  14.723   5.311  0.00  0.00     0.074 C 
HETATM   29  C   UNK N   1      27.745  14.615   4.302  0.00  0.00     0.005 C 
BRANCH  29  30
HETATM   30  C   UNK N   1      27.679  15.633   3.239  0.00  0.00     0.001 C 
HETATM   31  C   UNK N   1      26.582  15.848   2.498  0.00  0.00     0.006 C 
BRANCH  31  32
HETATM   32  C   UNK N   1      25.404  14.954   2.415  0.00  0.00    -0.065 C 
HETATM   33  C   UNK N   1      25.481  13.917   1.572  0.00  0.00    -0.013 C 
HETATM   34  C   UNK N   1      24.290  15.046   3.421  0.00  0.00     0.048 C 
BRANCH  33  35
HETATM   35  C   UNK N   1      24.546  12.732   1.595  0.00  0.00     0.034 C 
HETATM   36  C   UNK N   1      25.262  11.420   1.887  0.00  0.00     0.017 C 
BRANCH  35  37
HETATM   37  C   UNK N   1      23.790  12.699   0.254  0.00  0.00     0.143 C 
HETATM   38  C   UNK N   1      22.854  11.488   0.137  0.00  0.00     0.063 C 
HETATM   39  C   UNK N   1      21.566  11.702   0.896  0.00  0.00     0.019 C 
HETATM   40  C   UNK N   1      21.114  12.942   1.175  0.00  0.00     0.140 C 
HETATM   41  C   UNK N   1      21.909  14.099   0.721  0.00  0.00     0.316 C 
HETATM   42  O   UNK N   1      21.507  15.240   0.895  0.00  0.00    -0.257 OA
HETATM   43  O   UNK N   1      23.085  13.884   0.087  0.00  0.00    -0.310 OA
BRANCH  40  44
HETATM   44  O   UNK N   1      19.942  13.147   1.830  0.00  0.00    -0.350 OA
HETATM   45  C   UNK N   1      19.831  13.134   3.201  0.00  0.00     0.210 C 
ENDBRANCH  40  44
ENDBRANCH  35  37
ENDBRANCH  33  35
ENDBRANCH  31  32
ENDBRANCH  29  30
ENDBRANCH  25  28
ENDBRANCH   1  24
TORSDOF 16
ENDMDL
MODEL 6
REMARK VINA RESULT:      -6.6      9.945     14.661
REMARK  16 active torsions:
REMARK  status: ('A' for Active; 'I' for Inactive)
REMARK    1  A    between atoms: C_3  and  C_4 
REMARK    2  A    between atoms: C_4  and  C_5 
REMARK    3  A    between atoms: C_5  and  C_6 
REMARK    4  A    between atoms: C_5  and  O_38 
REMARK    5  A    between atoms: C_6  and  C_7 
REMARK    6  A    between atoms: C_8  and  N_9 
REMARK       I    between atoms: N_9  and  C_10 
REMARK    7  A    between atoms: C_10  and  C_12 
REMARK    8  A    between atoms: C_12  and  C_13 
REMARK    9  A    between atoms: C_12  and  N_17 
REMARK       I    between atoms: N_17  and  C_18 
REMARK   10  A    between atoms: C_18  and  C_20 
REMARK   11  A    between atoms: C_21  and  C_22 
REMARK   12  A    between atoms: C_23  and  C_24 
REMARK   13  A    between atoms: C_25  and  C_26 
REMARK   14  A    between atoms: C_28  and  C_26 
REMARK   15  A    between atoms: C_31  and  O_35 
REMARK   16  A    between atoms: O_38  and  C_39 
REMARK       I    between atoms: C_39  and  N_41 
ROOT
HETATM    1  C   UNK N   1      35.631  12.451  10.326  0.00  0.00     0.184 C 
ENDROOT
BRANCH   1   2
HETATM    2  C   UNK N   1      35.189  11.270  11.152  0.00  0.00     0.245 C 
HETATM    3  N   UNK N   1      34.852  11.434  12.460  0.00  0.00    -0.336 N 
HETATM    4  H   UNK N   1      34.775  12.357  12.794  0.00  0.00     0.168 HD
HETATM    5  O   UNK N   1      35.252  10.157  10.656  0.00  0.00    -0.271 OA
BRANCH   3   6
HETATM    6  C   UNK N   1      34.601  10.378  13.392  0.00  0.00     0.087 C 
HETATM    7  C   UNK N   1      34.159  10.522  14.655  0.00  0.00    -0.007 C 
BRANCH   7   8
HETATM    8  C   UNK N   1      33.953  11.829  15.357  0.00  0.00     0.061 C 
BRANCH   8   9
HETATM    9  C   UNK N   1      35.224  12.284  16.053  0.00  0.00     0.140 C 
BRANCH   9  10
HETATM   10  C   UNK N   1      35.694  11.158  16.957  0.00  0.00     0.059 C 
BRANCH  10  11
HETATM   11  C   UNK N   1      35.344  11.435  18.386  0.00  0.00    -0.028 C 
HETATM   12  C   UNK N   1      35.856  10.728  19.399  0.00  0.00    -0.035 C 
HETATM   13  C   UNK N   1      36.830   9.613  19.193  0.00  0.00     0.036 C 
ENDBRANCH  10  11
ENDBRANCH   9  10
BRANCH   9  14
HETATM   14  O   UNK N   1      36.195  12.561  15.112  0.00  0.00    -0.298 OA
BRANCH  14  15
HETATM   15  C   UNK N   1      36.413  13.803  14.612  0.00  0.00     0.358 C 
HETATM   16  O   UNK N   1      35.889  14.154  13.559  0.00  0.00    -0.239 OA
HETATM   17  N   UNK N   1      37.235  14.648  15.255  0.00  0.00    -0.346 N 
HETATM   18  H   UNK N   1      37.125  14.875  16.207  0.00  0.00     0.161 HD
HETATM   19  H   UNK N   1      37.978  15.057  14.755  0.00  0.00     0.161 HD
ENDBRANCH  14  15
ENDBRANCH   9  14
ENDBRANCH   8   9
ENDBRANCH   7   8
ENDBRANCH   3   6
ENDBRANCH   1   2
BRANCH   1  20
HETATM   20  C   UNK N   1      37.156  12.553  10.106  0.00  0.00    -0.022 C 
HETATM   21  C   UNK N   1      37.524  13.955   9.661  0.00  0.00     0.017 C 
HETATM   22  C   UNK N   1      37.594  11.597   9.009  0.00  0.00     0.017 C 
HETATM   23  C   UNK N   1      37.928  12.234  11.375  0.00  0.00     0.017 C 
ENDBRANCH   1  20
BRANCH   1  24
HETATM   24  N   UNK N   1      35.037  13.700  10.764  0.00  0.00    -0.344 N 
HETATM   25  C   UNK N   1      34.056  14.337  10.065  0.00  0.00     0.241 C 
HETATM   26  O   UNK N   1      33.557  15.348  10.530  0.00  0.00    -0.269 OA
HETATM   27  H   UNK N   1      35.358  14.105  11.602  0.00  0.00     0.163 HD
BRANCH  25  28
HETATM   28  C   UNK N   1      33.528  13.807   8.777  0.00  0.00     0.074 C 
HETATM   29  C   UNK N   1      34.004  14.149   7.568  0.00  0.00     0.005 C 
BRANCH  29  30
HETATM   30  C   UNK N   1      34.935  15.279   7.410  0.00  0.00     0.001 C 
HETATM   31  C   UNK N   1      34.528  16.542   7.214  0.00  0.00     0.006 C 
BRANCH  31  32
HETATM   32  C   UNK N   1      33.156  16.962   6.845  0.00  0.00    -0.065 C 
HETATM   33  C   UNK N   1      32.267  17.091   7.839  0.00  0.00    -0.013 C 
HETATM   34  C   UNK N   1      32.848  17.477   5.467  0.00  0.00     0.048 C 
BRANCH  33  35
HETATM   35  C   UNK N   1      30.950  17.817   7.710  0.00  0.00     0.034 C 
HETATM   36  C   UNK N   1      30.657  18.725   8.897  0.00  0.00     0.017 C 
BRANCH  35  37
HETATM   37  C   UNK N   1      29.848  16.763   7.496  0.00  0.00     0.143 C 
HETATM   38  C   UNK N   1      28.481  17.228   8.017  0.00  0.00     0.063 C 
HETATM   39  C   UNK N   1      27.809  18.176   7.052  0.00  0.00     0.019 C 
HETATM   40  C   UNK N   1      28.124  18.182   5.741  0.00  0.00     0.140 C 
HETATM   41  C   UNK N   1      29.150  17.237   5.259  0.00  0.00     0.316 C 
HETATM   42  O   UNK N   1      29.421  17.163   4.070  0.00  0.00    -0.257 OA
HETATM   43  O   UNK N   1      29.775  16.432   6.149  0.00  0.00    -0.310 OA
BRANCH  40  44
HETATM   44  O   UNK N   1      27.504  19.009   4.859  0.00  0.00    -0.350 OA
HETATM   45  C   UNK N   1      27.631  20.379   4.891  0.00  0.00     0.210 C 
ENDBRANCH  40  44
ENDBRANCH  35  37
ENDBRANCH  33  35
ENDBRANCH  31  32
ENDBRANCH  29  30
ENDBRANCH  25  28
ENDBRANCH   1  24
TORSDOF 16
ENDMDL
MODEL 7
REMARK VINA RESULT:      -6.6     10.292     14.836
REMARK  16 active torsions:
REMARK  status: ('A' for Active; 'I' for Inactive)
REMARK    1  A    between atoms: C_3  and  C_4 
REMARK    2  A    between atoms: C_4  and  C_5 
REMARK    3  A    between atoms: C_5  and  C_6 
REMARK    4  A    between atoms: C_5  and  O_38 
REMARK    5  A    between atoms: C_6  and  C_7 
REMARK    6  A    between atoms: C_8  and  N_9 
REMARK       I    between atoms: N_9  and  C_10 
REMARK    7  A    between atoms: C_10  and  C_12 
REMARK    8  A    between atoms: C_12  and  C_13 
REMARK    9  A    between atoms: C_12  and  N_17 
REMARK       I    between atoms: N_17  and  C_18 
REMARK   10  A    between atoms: C_18  and  C_20 
REMARK   11  A    between atoms: C_21  and  C_22 
REMARK   12  A    between atoms: C_23  and  C_24 
REMARK   13  A    between atoms: C_25  and  C_26 
REMARK   14  A    between atoms: C_28  and  C_26 
REMARK   15  A    between atoms: C_31  and  O_35 
REMARK   16  A    between atoms: O_38  and  C_39 
REMARK       I    between atoms: C_39  and  N_41 
ROOT
HETATM    1  C   UNK N   1      37.055  13.090   9.953  0.00  0.00     0.184 C 
ENDROOT
BRANCH   1   2
HETATM    2  C   UNK N   1      36.959  12.128  11.109  0.00  0.00     0.245 C 
HETATM    3  N   UNK N   1      37.518  12.438  12.310  0.00  0.00    -0.336 N 
HETATM    4  H   UNK N   1      37.855  13.356  12.427  0.00  0.00     0.168 HD
HETATM    5  O   UNK N   1      36.474  11.026  10.910  0.00  0.00    -0.271 OA
BRANCH   3   6
HETATM    6  C   UNK N   1      37.659  11.542  13.417  0.00  0.00     0.087 C 
HETATM    7  C   UNK N   1      36.687  11.189  14.279  0.00  0.00    -0.007 C 
BRANCH   7   8
HETATM    8  C   UNK N   1      35.302  11.758  14.306  0.00  0.00     0.061 C 
BRANCH   8   9
HETATM    9  C   UNK N   1      35.254  13.046  15.110  0.00  0.00     0.140 C 
BRANCH   9  10
HETATM   10  C   UNK N   1      34.454  12.781  16.374  0.00  0.00     0.059 C 
BRANCH  10  11
HETATM   11  C   UNK N   1      35.359  12.529  17.539  0.00  0.00    -0.028 C 
HETATM   12  C   UNK N   1      35.525  11.312  18.067  0.00  0.00    -0.035 C 
HETATM   13  C   UNK N   1      34.834  10.099  17.532  0.00  0.00     0.036 C 
ENDBRANCH  10  11
ENDBRANCH   9  10
BRANCH   9  14
HETATM   14  O   UNK N   1      36.536  13.435  15.443  0.00  0.00    -0.298 OA
BRANCH  14  15
HETATM   15  C   UNK N   1      37.023  14.677  15.198  0.00  0.00     0.358 C 
HETATM   16  O   UNK N   1      37.615  15.300  16.073  0.00  0.00    -0.239 OA
HETATM   17  N   UNK N   1      36.831  15.245  13.997  0.00  0.00    -0.346 N 
HETATM   18  H   UNK N   1      37.083  14.804  13.153  0.00  0.00     0.161 HD
HETATM   19  H   UNK N   1      36.421  16.139  13.957  0.00  0.00     0.161 HD
ENDBRANCH  14  15
ENDBRANCH   9  14
ENDBRANCH   8   9
ENDBRANCH   7   8
ENDBRANCH   3   6
ENDBRANCH   1   2
BRANCH   1  20
HETATM   20  C   UNK N   1      38.010  12.649   8.822  0.00  0.00    -0.022 C 
HETATM   21  C   UNK N   1      37.470  11.408   8.140  0.00  0.00     0.017 C 
HETATM   22  C   UNK N   1      39.374  12.298   9.393  0.00  0.00     0.017 C 
HETATM   23  C   UNK N   1      38.179  13.737   7.775  0.00  0.00     0.017 C 
ENDBRANCH   1  20
BRANCH   1  24
HETATM   24  N   UNK N   1      37.273  14.460  10.376  0.00  0.00    -0.344 N 
HETATM   25  C   UNK N   1      36.266  15.373  10.474  0.00  0.00     0.241 C 
HETATM   26  O   UNK N   1      36.514  16.488  10.903  0.00  0.00    -0.269 OA
HETATM   27  H   UNK N   1      38.189  14.743  10.601  0.00  0.00     0.163 HD
BRANCH  25  28
HETATM   28  C   UNK N   1      34.855  15.036  10.132  0.00  0.00     0.074 C 
HETATM   29  C   UNK N   1      34.129  15.682   9.204  0.00  0.00     0.005 C 
BRANCH  29  30
HETATM   30  C   UNK N   1      34.598  16.950   8.619  0.00  0.00     0.001 C 
HETATM   31  C   UNK N   1      33.779  17.824   8.016  0.00  0.00     0.006 C 
BRANCH  31  32
HETATM   32  C   UNK N   1      32.386  17.555   7.590  0.00  0.00    -0.065 C 
HETATM   33  C   UNK N   1      32.215  16.884   6.444  0.00  0.00    -0.013 C 
HETATM   34  C   UNK N   1      31.232  17.781   8.527  0.00  0.00     0.048 C 
BRANCH  33  35
HETATM   35  C   UNK N   1      30.919  16.233   6.026  0.00  0.00     0.034 C 
HETATM   36  C   UNK N   1      31.001  14.712   6.005  0.00  0.00     0.017 C 
BRANCH  35  37
HETATM   37  C   UNK N   1      30.518  16.815   4.657  0.00  0.00     0.143 C 
HETATM   38  C   UNK N   1      29.593  15.876   3.869  0.00  0.00     0.063 C 
HETATM   39  C   UNK N   1      28.167  15.958   4.360  0.00  0.00     0.019 C 
HETATM   40  C   UNK N   1      27.709  17.047   5.010  0.00  0.00     0.140 C 
HETATM   41  C   UNK N   1      28.637  18.172   5.238  0.00  0.00     0.316 C 
HETATM   42  O   UNK N   1      28.250  19.203   5.765  0.00  0.00    -0.257 OA
HETATM   43  O   UNK N   1      29.924  18.057   4.835  0.00  0.00    -0.310 OA
BRANCH  40  44
HETATM   44  O   UNK N   1      26.421  17.143   5.428  0.00  0.00    -0.350 OA
HETATM   45  C   UNK N   1      25.402  16.368   4.923  0.00  0.00     0.210 C 
ENDBRANCH  40  44
ENDBRANCH  35  37
ENDBRANCH  33  35
ENDBRANCH  31  32
ENDBRANCH  29  30
ENDBRANCH  25  28
ENDBRANCH   1  24
TORSDOF 16
ENDMDL
MODEL 8
REMARK VINA RESULT:      -6.6     14.157     17.212
REMARK  16 active torsions:
REMARK  status: ('A' for Active; 'I' for Inactive)
REMARK    1  A    between atoms: C_3  and  C_4 
REMARK    2  A    between atoms: C_4  and  C_5 
REMARK    3  A    between atoms: C_5  and  C_6 
REMARK    4  A    between atoms: C_5  and  O_38 
REMARK    5  A    between atoms: C_6  and  C_7 
REMARK    6  A    between atoms: C_8  and  N_9 
REMARK       I    between atoms: N_9  and  C_10 
REMARK    7  A    between atoms: C_10  and  C_12 
REMARK    8  A    between atoms: C_12  and  C_13 
REMARK    9  A    between atoms: C_12  and  N_17 
REMARK       I    between atoms: N_17  and  C_18 
REMARK   10  A    between atoms: C_18  and  C_20 
REMARK   11  A    between atoms: C_21  and  C_22 
REMARK   12  A    between atoms: C_23  and  C_24 
REMARK   13  A    between atoms: C_25  and  C_26 
REMARK   14  A    between atoms: C_28  and  C_26 
REMARK   15  A    between atoms: C_31  and  O_35 
REMARK   16  A    between atoms: O_38  and  C_39 
REMARK       I    between atoms: C_39  and  N_41 
ROOT
HETATM    1  C   UNK N   1      28.337  27.601  -4.803  0.00  0.00     0.184 C 
ENDROOT
BRANCH   1   2
HETATM    2  C   UNK N   1      29.605  26.988  -4.267  0.00  0.00     0.245 C 
HETATM    3  N   UNK N   1      30.038  25.785  -4.733  0.00  0.00    -0.336 N 
HETATM    4  H   UNK N   1      29.574  25.412  -5.518  0.00  0.00     0.168 HD
HETATM    5  O   UNK N   1      30.164  27.535  -3.330  0.00  0.00    -0.271 OA
BRANCH   3   6
HETATM    6  C   UNK N   1      31.109  25.016  -4.179  0.00  0.00     0.087 C 
HETATM    7  C   UNK N   1      31.179  23.673  -4.130  0.00  0.00    -0.007 C 
BRANCH   7   8
HETATM    8  C   UNK N   1      30.091  22.732  -4.548  0.00  0.00     0.061 C 
BRANCH   8   9
HETATM    9  C   UNK N   1      30.666  21.441  -5.104  0.00  0.00     0.140 C 
BRANCH   9  10
HETATM   10  C   UNK N   1      30.319  21.370  -6.582  0.00  0.00     0.059 C 
BRANCH  10  11
HETATM   11  C   UNK N   1      29.743  20.035  -6.934  0.00  0.00    -0.028 C 
HETATM   12  C   UNK N   1      29.285  19.753  -8.159  0.00  0.00    -0.035 C 
HETATM   13  C   UNK N   1      29.324  20.739  -9.281  0.00  0.00     0.036 C 
ENDBRANCH  10  11
ENDBRANCH   9  10
BRANCH   9  14
HETATM   14  O   UNK N   1      32.038  21.437  -4.948  0.00  0.00    -0.298 OA
BRANCH  14  15
HETATM   15  C   UNK N   1      32.790  20.311  -5.012  0.00  0.00     0.358 C 
HETATM   16  O   UNK N   1      33.642  20.177  -5.885  0.00  0.00    -0.239 OA
HETATM   17  N   UNK N   1      32.581  19.316  -4.135  0.00  0.00    -0.346 N 
HETATM   18  H   UNK N   1      32.587  19.457  -3.160  0.00  0.00     0.161 HD
HETATM   19  H   UNK N   1      32.415  18.409  -4.479  0.00  0.00     0.161 HD
ENDBRANCH  14  15
ENDBRANCH   9  14
ENDBRANCH   8   9
ENDBRANCH   7   8
ENDBRANCH   3   6
ENDBRANCH   1   2
BRANCH   1  20
HETATM   20  C   UNK N   1      28.550  28.747  -5.817  0.00  0.00    -0.022 C 
HETATM   21  C   UNK N   1      27.915  28.388  -7.146  0.00  0.00     0.017 C 
HETATM   22  C   UNK N   1      30.034  28.961  -6.063  0.00  0.00     0.017 C 
HETATM   23  C   UNK N   1      27.938  30.048  -5.329  0.00  0.00     0.017 C 
ENDBRANCH   1  20
BRANCH   1  24
HETATM   24  N   UNK N   1      27.388  27.939  -3.758  0.00  0.00    -0.344 N 
HETATM   25  C   UNK N   1      26.044  27.761  -3.894  0.00  0.00     0.241 C 
HETATM   26  O   UNK N   1      25.314  28.003  -2.948  0.00  0.00    -0.269 OA
HETATM   27  H   UNK N   1      27.731  28.314  -2.915  0.00  0.00     0.163 HD
BRANCH  25  28
HETATM   28  C   UNK N   1      25.439  27.220  -5.144  0.00  0.00     0.074 C 
HETATM   29  C   UNK N   1      25.277  25.912  -5.400  0.00  0.00     0.005 C 
BRANCH  29  30
HETATM   30  C   UNK N   1      25.920  24.888  -4.559  0.00  0.00     0.001 C 
HETATM   31  C   UNK N   1      26.828  24.019  -5.029  0.00  0.00     0.006 C 
BRANCH  31  32
HETATM   32  C   UNK N   1      27.112  23.751  -6.457  0.00  0.00    -0.065 C 
HETATM   33  C   UNK N   1      27.900  24.623  -7.099  0.00  0.00    -0.013 C 
HETATM   34  C   UNK N   1      26.758  22.430  -7.082  0.00  0.00     0.048 C 
BRANCH  33  35
HETATM   35  C   UNK N   1      28.564  24.350  -8.426  0.00  0.00     0.034 C 
HETATM   36  C   UNK N   1      30.082  24.446  -8.359  0.00  0.00     0.017 C 
BRANCH  35  37
HETATM   37  C   UNK N   1      27.963  25.318  -9.463  0.00  0.00     0.143 C 
HETATM   38  C   UNK N   1      28.422  25.003 -10.894  0.00  0.00     0.063 C 
HETATM   39  C   UNK N   1      27.656  23.843 -11.483  0.00  0.00     0.019 C 
HETATM   40  C   UNK N   1      26.434  23.503 -11.024  0.00  0.00     0.140 C 
HETATM   41  C   UNK N   1      25.853  24.292  -9.920  0.00  0.00     0.316 C 
HETATM   42  O   UNK N   1      24.724  24.061  -9.515  0.00  0.00    -0.257 OA
HETATM   43  O   UNK N   1      26.578  25.296  -9.374  0.00  0.00    -0.310 OA
BRANCH  40  44
HETATM   44  O   UNK N   1      25.723  22.481 -11.566  0.00  0.00    -0.350 OA
HETATM   45  C   UNK N   1      26.026  21.155 -11.357  0.00  0.00     0.210 C 
ENDBRANCH  40  44
ENDBRANCH  35  37
ENDBRANCH  33  35
ENDBRANCH  31  32
ENDBRANCH  29  30
ENDBRANCH  25  28
ENDBRANCH   1  24
TORSDOF 16
ENDMDL
MODEL 9
REMARK VINA RESULT:      -6.5      5.163      7.923
REMARK  16 active torsions:
REMARK  status: ('A' for Active; 'I' for Inactive)
REMARK    1  A    between atoms: C_3  and  C_4 
REMARK    2  A    between atoms: C_4  and  C_5 
REMARK    3  A    between atoms: C_5  and  C_6 
REMARK    4  A    between atoms: C_5  and  O_38 
REMARK    5  A    between atoms: C_6  and  C_7 
REMARK    6  A    between atoms: C_8  and  N_9 
REMARK       I    between atoms: N_9  and  C_10 
REMARK    7  A    between atoms: C_10  and  C_12 
REMARK    8  A    between atoms: C_12  and  C_13 
REMARK    9  A    between atoms: C_12  and  N_17 
REMARK       I    between atoms: N_17  and  C_18 
REMARK   10  A    between atoms: C_18  and  C_20 
REMARK   11  A    between atoms: C_21  and  C_22 
REMARK   12  A    between atoms: C_23  and  C_24 
REMARK   13  A    between atoms: C_25  and  C_26 
REMARK   14  A    between atoms: C_28  and  C_26 
REMARK   15  A    between atoms: C_31  and  O_35 
REMARK   16  A    between atoms: O_38  and  C_39 
REMARK       I    between atoms: C_39  and  N_41 
ROOT
HETATM    1  C   UNK N   1      25.899  18.021   4.373  0.00  0.00     0.184 C 
ENDROOT
BRANCH   1   2
HETATM    2  C   UNK N   1      24.476  17.523   4.411  0.00  0.00     0.245 C 
HETATM    3  N   UNK N   1      23.692  17.763   5.497  0.00  0.00    -0.336 N 
HETATM    4  H   UNK N   1      24.041  18.384   6.177  0.00  0.00     0.168 HD
HETATM    5  O   UNK N   1      24.088  16.805   3.504  0.00  0.00    -0.271 OA
BRANCH   3   6
HETATM    6  C   UNK N   1      22.403  17.189   5.734  0.00  0.00     0.087 C 
HETATM    7  C   UNK N   1      21.229  17.658   5.271  0.00  0.00    -0.007 C 
BRANCH   7   8
HETATM    8  C   UNK N   1      21.044  18.936   4.512  0.00  0.00     0.061 C 
BRANCH   8   9
HETATM    9  C   UNK N   1      21.148  18.705   3.014  0.00  0.00     0.140 C 
BRANCH   9  10
HETATM   10  C   UNK N   1      20.638  17.304   2.719  0.00  0.00     0.059 C 
BRANCH  10  11
HETATM   11  C   UNK N   1      19.970  17.247   1.381  0.00  0.00    -0.028 C 
HETATM   12  C   UNK N   1      19.977  16.145   0.623  0.00  0.00    -0.035 C 
HETATM   13  C   UNK N   1      20.637  14.875   1.053  0.00  0.00     0.036 C 
ENDBRANCH  10  11
ENDBRANCH   9  10
BRANCH   9  14
HETATM   14  O   UNK N   1      20.374  19.632   2.346  0.00  0.00    -0.298 OA
BRANCH  14  15
HETATM   15  C   UNK N   1      20.897  20.670   1.647  0.00  0.00     0.358 C 
HETATM   16  O   UNK N   1      21.812  21.340   2.114  0.00  0.00    -0.239 OA
HETATM   17  N   UNK N   1      20.390  20.990   0.445  0.00  0.00    -0.346 N 
HETATM   18  H   UNK N   1      20.298  20.335  -0.285  0.00  0.00     0.161 HD
HETATM   19  H   UNK N   1      20.097  21.916   0.287  0.00  0.00     0.161 HD
ENDBRANCH  14  15
ENDBRANCH   9  14
ENDBRANCH   8   9
ENDBRANCH   7   8
ENDBRANCH   3   6
ENDBRANCH   1   2
BRANCH   1  20
HETATM   20  C   UNK N   1      26.045  19.554   4.258  0.00  0.00    -0.022 C 
HETATM   21  C   UNK N   1      27.370  19.902   3.609  0.00  0.00     0.017 C 
HETATM   22  C   UNK N   1      26.034  20.188   5.639  0.00  0.00     0.017 C 
HETATM   23  C   UNK N   1      24.929  20.163   3.427  0.00  0.00     0.017 C 
ENDBRANCH   1  20
BRANCH   1  24
HETATM   24  N   UNK N   1      26.723  17.301   3.422  0.00  0.00    -0.344 N 
HETATM   25  C   UNK N   1      27.727  16.460   3.800  0.00  0.00     0.241 C 
HETATM   26  O   UNK N   1      28.333  15.836   2.946  0.00  0.00    -0.269 OA
HETATM   27  H   UNK N   1      26.551  17.426   2.460  0.00  0.00     0.163 HD
BRANCH  25  28
HETATM   28  C   UNK N   1      28.070  16.231   5.232  0.00  0.00     0.074 C 
HETATM   29  C   UNK N   1      29.029  16.899   5.895  0.00  0.00     0.005 C 
BRANCH  29  30
HETATM   30  C   UNK N   1      29.995  17.750   5.179  0.00  0.00     0.001 C 
HETATM   31  C   UNK N   1      31.290  17.430   5.040  0.00  0.00     0.006 C 
BRANCH  31  32
HETATM   32  C   UNK N   1      32.006  16.371   5.789  0.00  0.00    -0.065 C 
HETATM   33  C   UNK N   1      32.406  16.666   7.032  0.00  0.00    -0.013 C 
HETATM   34  C   UNK N   1      32.043  14.956   5.284  0.00  0.00     0.048 C 
BRANCH  33  35
HETATM   35  C   UNK N   1      32.837  15.638   8.051  0.00  0.00     0.034 C 
HETATM   36  C   UNK N   1      31.834  15.474   9.185  0.00  0.00     0.017 C 
BRANCH  35  37
HETATM   37  C   UNK N   1      34.235  16.036   8.561  0.00  0.00     0.143 C 
HETATM   38  C   UNK N   1      34.509  15.521   9.981  0.00  0.00     0.063 C 
HETATM   39  C   UNK N   1      34.888  14.060   9.981  0.00  0.00     0.019 C 
HETATM   40  C   UNK N   1      35.405  13.468   8.884  0.00  0.00     0.140 C 
HETATM   41  C   UNK N   1      35.595  14.284   7.669  0.00  0.00     0.316 C 
HETATM   42  O   UNK N   1      36.118  13.808   6.673  0.00  0.00    -0.257 OA
HETATM   43  O   UNK N   1      35.202  15.579   7.676  0.00  0.00    -0.310 OA
BRANCH  40  44
HETATM   44  O   UNK N   1      35.778  12.163   8.882  0.00  0.00    -0.350 OA
HETATM   45  C   UNK N   1      36.301  11.524   9.983  0.00  0.00     0.210 C 
ENDBRANCH  40  44
ENDBRANCH  35  37
ENDBRANCH  33  35
ENDBRANCH  31  32
ENDBRANCH  29  30
ENDBRANCH  25  28
ENDBRANCH   1  24
TORSDOF 16
ENDMDL
