REMARK  3 active torsions:
REMARK  status: ('A' for Active; 'I' for Inactive)
REMARK    1  A    between atoms: C_4  and  C_8 
REMARK    2  A    between atoms: C_16  and  C_20 
REMARK    3  A    between atoms: C_20  and  C_21 
ROOT
HETATM    1  C   UNK N   1      -4.976  -1.275   0.154  0.00  0.00     0.061 A 
HETATM    2  C   UNK N   1      -6.019  -0.489   0.699  0.00  0.00     0.036 A 
HETATM    3  C   UNK N   1      -5.832   0.886   0.894  0.00  0.00     0.054 A 
HETATM    4  C   UNK N   1      -4.600   1.404   0.532  0.00  0.00     0.143 A 
HETATM    5  N   UNK N   1      -4.195   2.684   0.603  0.00  0.00    -0.282 N 
ATOM      6  HN  UNK N   1      -4.727   3.471   0.975  1.00  0.00     0.188 HD
HETATM    7  N   UNK N   1      -2.965   2.724   0.095  0.00  0.00    -0.281 N 
ATOM      8  HN  UNK N   1      -2.378   3.553   0.001  1.00  0.00     0.188 HD
HETATM    9  C   UNK N   1      -2.634   1.461  -0.277  0.00  0.00     0.198 A 
HETATM   10  N   UNK N   1      -3.650   0.630   0.004  0.00  0.00    -0.218 N 
HETATM   11  N   UNK N   1      -3.796  -0.679  -0.200  0.00  0.00    -0.290 N 
ATOM     12  HN  UNK N   1      -3.041  -1.227  -0.612  1.00  0.00     0.187 HD
ENDROOT
BRANCH   9  13
HETATM   13  C   UNK N   1      -1.370   1.128  -1.034  0.00  0.00     0.331 C 
HETATM   14  F   UNK N   1      -1.750   0.633  -2.268  0.00  0.00    -0.192 F 
HETATM   15  F   UNK N   1      -0.700   2.322  -1.257  0.00  0.00    -0.192 F 
BRANCH  13  16
HETATM   16  C   UNK N   1      -0.399   0.133  -0.428  0.00  0.00     0.022 A 
HETATM   17  C   UNK N   1      -0.760  -1.211  -0.230  0.00  0.00     0.016 A 
HETATM   18  C   UNK N   1       0.207  -2.160   0.135  0.00  0.00     0.031 A 
HETATM   19  C   UNK N   1       1.545  -1.778   0.285  0.00  0.00     0.042 A 
HETATM   20  C   UNK N   1       1.908  -0.428   0.110  0.00  0.00    -0.009 A 
HETATM   21  N   UNK N   1       2.500  -2.703   0.579  0.00  0.00    -0.365 N 
HETATM   22  C   UNK N   1       0.942   0.514  -0.242  0.00  0.00     0.027 A 
HETATM   23  C   UNK N   1       3.245  -0.054   0.248  0.00  0.00     0.015 A 
HETATM   24  C   UNK N   1       4.205  -1.022   0.549  0.00  0.00     0.018 A 
HETATM   25  C   UNK N   1       3.811  -2.354   0.708  0.00  0.00     0.088 A 
ATOM     26  HN  UNK N   1       2.228  -3.678   0.706  1.00  0.00     0.165 HD
ENDBRANCH  13  16
ENDBRANCH   9  13
BRANCH   1  27
HETATM   27  C   UNK N   1      -5.143  -2.726   0.003  0.00  0.00     0.026 A 
HETATM   28  C   UNK N   1      -6.272  -3.468   0.289  0.00  0.00     0.124 A 
HETATM   29  N   UNK N   1      -5.970  -4.751   0.035  0.00  0.00    -0.307 N 
HETATM   30  C   UNK N   1      -6.869  -5.878   0.196  0.00  0.00     0.177 C 
HETATM   31  N   UNK N   1      -4.721  -4.856  -0.386  0.00  0.00    -0.310 N 
HETATM   32  C   UNK N   1      -4.179  -3.623  -0.419  0.00  0.00     0.122 A 
ATOM     33  HN  UNK N   1      -4.249  -5.723  -0.642  1.00  0.00     0.186 HD
ENDBRANCH   1  27
TORSDOF 3
