MODEL 1
REMARK VINA RESULT:      -7.8      0.000      0.000
REMARK  9 active torsions:
REMARK  status: ('A' for Active; 'I' for Inactive)
REMARK    1  A    between atoms: C_2  and  C_3 
REMARK    2  A    between atoms: C_3  and  C_4 
REMARK    3  A    between atoms: C_8  and  C_11 
REMARK    4  A    between atoms: C_9  and  O_10 
REMARK    5  A    between atoms: N_12  and  N_14 
REMARK       I    between atoms: N_14  and  C_15 
REMARK    6  A    between atoms: C_15  and  C_17 
REMARK    7  A    between atoms: C_17  and  N_18 
REMARK    8  A    between atoms: N_21  and  C_24 
REMARK    9  A    between atoms: C_24  and  C_25 
ROOT
HETATM    1  N   UNK N   1      33.755  15.656   9.752  0.00  0.00    -0.269 N 
HETATM    2  C   UNK N   1      34.553  14.574   9.870  0.00  0.00     0.253 C 
HETATM    3  O   UNK N   1      34.076  13.457   9.775  0.00  0.00    -0.270 OA
HETATM    4  H   UNK N   1      32.784  15.538   9.643  0.00  0.00     0.190 HD
ENDROOT
BRANCH   1   5
HETATM    5  N   UNK N   1      34.290  16.922   9.784  0.00  0.00    -0.308 N 
HETATM    6  C   UNK N   1      34.143  17.756   8.812  0.00  0.00     0.121 C 
ATOM      7  HN  UNK N   1      34.822  17.211  10.605  1.00  0.00     0.186 HD
BRANCH   6   8
HETATM    8  C   UNK N   1      33.204  17.559   7.686  0.00  0.00     0.014 A 
HETATM    9  C   UNK N   1      33.738  17.588   6.396  0.00  0.00     0.016 A 
HETATM   10  C   UNK N   1      32.919  17.395   5.285  0.00  0.00     0.002 A 
HETATM   11  C   UNK N   1      31.553  17.174   5.453  0.00  0.00     0.010 A 
HETATM   12  C   UNK N   1      30.990  17.175   6.734  0.00  0.00    -0.021 A 
HETATM   13  C   UNK N   1      31.809  17.375   7.857  0.00  0.00     0.084 A 
BRANCH  12  14
HETATM   14  C   UNK N   1      29.521  16.931   6.893  0.00  0.00     0.067 C 
BRANCH  14  15
HETATM   15  C   UNK N   1      28.744  18.201   6.773  0.00  0.00    -0.032 C 
HETATM   16  C   UNK N   1      28.161  18.725   7.845  0.00  0.00     0.007 C 
ENDBRANCH  14  15
ENDBRANCH  12  14
BRANCH  13  17
HETATM   17  O   UNK N   1      31.251  17.411   9.080  0.00  0.00    -0.359 OA
HETATM   18  H   UNK N   1      30.631  18.071   9.319  0.00  0.00     0.217 HD
ENDBRANCH  13  17
ENDBRANCH   6   8
ENDBRANCH   1   5
BRANCH   2  19
HETATM   19  C   UNK N   1      36.014  14.779  10.196  0.00  0.00     0.221 C 
BRANCH  19  20
HETATM   20  N   UNK N   1      36.443  14.268  11.488  0.00  0.00    -0.401 N 
HETATM   21  C   UNK N   1      37.361  13.136  11.361  0.00  0.00     0.147 C 
HETATM   22  C   UNK N   1      36.752  11.813  11.814  0.00  0.00     0.292 C 
HETATM   23  N   UNK N   1      36.097  11.938  13.118  0.00  0.00     0.095 N 
HETATM   24  C   UNK N   1      34.962  12.844  12.947  0.00  0.00     0.292 C 
HETATM   25  C   UNK N   1      35.411  14.257  12.539  0.00  0.00     0.147 C 
BRANCH  23  26
HETATM   26  C   UNK N   1      36.957  12.437  14.210  0.00  0.00     0.311 C 
BRANCH  26  27
HETATM   27  C   UNK N   1      36.391  12.274  15.593  0.00  0.00    -0.030 A 
HETATM   28  C   UNK N   1      35.781  13.356  16.245  0.00  0.00     0.009 A 
HETATM   29  C   UNK N   1      35.212  13.196  17.507  0.00  0.00     0.001 A 
HETATM   30  C   UNK N   1      35.230  11.942  18.121  0.00  0.00     0.000 A 
HETATM   31  C   UNK N   1      35.817  10.852  17.468  0.00  0.00     0.001 A 
HETATM   32  C   UNK N   1      36.392  11.017  16.203  0.00  0.00     0.009 A 
ENDBRANCH  26  27
ENDBRANCH  23  26
ENDBRANCH  19  20
ENDBRANCH   2  19
TORSDOF 9
ENDMDL
MODEL 2
REMARK VINA RESULT:      -7.7      1.916      2.802
REMARK  9 active torsions:
REMARK  status: ('A' for Active; 'I' for Inactive)
REMARK    1  A    between atoms: C_2  and  C_3 
REMARK    2  A    between atoms: C_3  and  C_4 
REMARK    3  A    between atoms: C_8  and  C_11 
REMARK    4  A    between atoms: C_9  and  O_10 
REMARK    5  A    between atoms: N_12  and  N_14 
REMARK       I    between atoms: N_14  and  C_15 
REMARK    6  A    between atoms: C_15  and  C_17 
REMARK    7  A    between atoms: C_17  and  N_18 
REMARK    8  A    between atoms: N_21  and  C_24 
REMARK    9  A    between atoms: C_24  and  C_25 
ROOT
HETATM    1  N   UNK N   1      34.291  16.034  10.470  0.00  0.00    -0.269 N 
HETATM    2  C   UNK N   1      35.533  15.603  10.777  0.00  0.00     0.253 C 
HETATM    3  O   UNK N   1      36.459  16.395  10.802  0.00  0.00    -0.270 OA
HETATM    4  H   UNK N   1      34.149  16.974  10.215  0.00  0.00     0.190 HD
ENDROOT
BRANCH   1   5
HETATM    5  N   UNK N   1      33.225  15.168  10.510  0.00  0.00    -0.308 N 
HETATM    6  C   UNK N   1      32.634  14.753   9.442  0.00  0.00     0.121 C 
ATOM      7  HN  UNK N   1      32.889  14.843  11.416  1.00  0.00     0.186 HD
BRANCH   6   8
HETATM    8  C   UNK N   1      33.163  14.947   8.074  0.00  0.00     0.014 A 
HETATM    9  C   UNK N   1      33.798  13.858   7.474  0.00  0.00     0.016 A 
HETATM   10  C   UNK N   1      34.309  13.959   6.182  0.00  0.00     0.002 A 
HETATM   11  C   UNK N   1      34.192  15.154   5.475  0.00  0.00     0.010 A 
HETATM   12  C   UNK N   1      33.590  16.269   6.068  0.00  0.00    -0.021 A 
HETATM   13  C   UNK N   1      33.080  16.176   7.373  0.00  0.00     0.084 A 
BRANCH  12  14
HETATM   14  C   UNK N   1      33.471  17.543   5.290  0.00  0.00     0.067 C 
BRANCH  14  15
HETATM   15  C   UNK N   1      32.433  17.433   4.223  0.00  0.00    -0.032 C 
HETATM   16  C   UNK N   1      31.145  17.509   4.541  0.00  0.00     0.007 C 
ENDBRANCH  14  15
ENDBRANCH  12  14
BRANCH  13  17
HETATM   17  O   UNK N   1      32.537  17.265   7.946  0.00  0.00    -0.359 OA
HETATM   18  H   UNK N   1      31.909  17.796   7.497  0.00  0.00     0.217 HD
ENDBRANCH  13  17
ENDBRANCH   6   8
ENDBRANCH   1   5
BRANCH   2  19
HETATM   19  C   UNK N   1      35.755  14.128  11.009  0.00  0.00     0.221 C 
BRANCH  19  20
HETATM   20  N   UNK N   1      35.244  13.610  12.270  0.00  0.00    -0.401 N 
HETATM   21  C   UNK N   1      35.936  14.182  13.425  0.00  0.00     0.147 C 
HETATM   22  C   UNK N   1      36.813  13.173  14.161  0.00  0.00     0.292 C 
HETATM   23  N   UNK N   1      36.097  11.923  14.421  0.00  0.00     0.095 N 
HETATM   24  C   UNK N   1      35.811  11.310  13.125  0.00  0.00     0.292 C 
HETATM   25  C   UNK N   1      34.881  12.184  12.268  0.00  0.00     0.147 C 
BRANCH  23  26
HETATM   26  C   UNK N   1      34.837  12.065  15.179  0.00  0.00     0.311 C 
BRANCH  26  27
HETATM   27  C   UNK N   1      34.997  12.145  16.673  0.00  0.00    -0.030 A 
HETATM   28  C   UNK N   1      35.268  10.991  17.422  0.00  0.00     0.009 A 
HETATM   29  C   UNK N   1      35.465  11.069  18.800  0.00  0.00     0.001 A 
HETATM   30  C   UNK N   1      35.411  12.310  19.438  0.00  0.00     0.000 A 
HETATM   31  C   UNK N   1      35.163  13.469  18.694  0.00  0.00     0.001 A 
HETATM   32  C   UNK N   1      34.961  13.387  17.311  0.00  0.00     0.009 A 
ENDBRANCH  26  27
ENDBRANCH  23  26
ENDBRANCH  19  20
ENDBRANCH   2  19
TORSDOF 9
ENDMDL
MODEL 3
REMARK VINA RESULT:      -7.6      1.448      2.797
REMARK  9 active torsions:
REMARK  status: ('A' for Active; 'I' for Inactive)
REMARK    1  A    between atoms: C_2  and  C_3 
REMARK    2  A    between atoms: C_3  and  C_4 
REMARK    3  A    between atoms: C_8  and  C_11 
REMARK    4  A    between atoms: C_9  and  O_10 
REMARK    5  A    between atoms: N_12  and  N_14 
REMARK       I    between atoms: N_14  and  C_15 
REMARK    6  A    between atoms: C_15  and  C_17 
REMARK    7  A    between atoms: C_17  and  N_18 
REMARK    8  A    between atoms: N_21  and  C_24 
REMARK    9  A    between atoms: C_24  and  C_25 
ROOT
HETATM    1  N   UNK N   1      34.013  14.775   8.838  0.00  0.00    -0.269 N 
HETATM    2  C   UNK N   1      34.922  13.818   9.120  0.00  0.00     0.253 C 
HETATM    3  O   UNK N   1      34.910  12.769   8.499  0.00  0.00    -0.270 OA
HETATM    4  H   UNK N   1      33.311  14.600   8.170  0.00  0.00     0.190 HD
ENDROOT
BRANCH   1   5
HETATM    5  N   UNK N   1      34.060  15.990   9.477  0.00  0.00    -0.308 N 
HETATM    6  C   UNK N   1      33.560  17.060   8.961  0.00  0.00     0.121 C 
ATOM      7  HN  UNK N   1      34.506  16.047  10.392  1.00  0.00     0.186 HD
BRANCH   6   8
HETATM    8  C   UNK N   1      32.681  17.073   7.771  0.00  0.00     0.014 A 
HETATM    9  C   UNK N   1      31.331  16.775   7.969  0.00  0.00     0.016 A 
HETATM   10  C   UNK N   1      30.438  16.782   6.900  0.00  0.00     0.002 A 
HETATM   11  C   UNK N   1      30.888  17.085   5.616  0.00  0.00     0.010 A 
HETATM   12  C   UNK N   1      32.242  17.353   5.386  0.00  0.00    -0.021 A 
HETATM   13  C   UNK N   1      33.148  17.341   6.460  0.00  0.00     0.084 A 
BRANCH  12  14
HETATM   14  C   UNK N   1      32.704  17.680   4.000  0.00  0.00     0.067 C 
BRANCH  14  15
HETATM   15  C   UNK N   1      32.538  16.513   3.083  0.00  0.00    -0.032 C 
HETATM   16  C   UNK N   1      33.437  15.535   3.086  0.00  0.00     0.007 C 
ENDBRANCH  14  15
ENDBRANCH  12  14
BRANCH  13  17
HETATM   17  O   UNK N   1      34.453  17.563   6.221  0.00  0.00    -0.359 OA
HETATM   18  H   UNK N   1      35.052  16.859   6.069  0.00  0.00     0.217 HD
ENDBRANCH  13  17
ENDBRANCH   6   8
ENDBRANCH   1   5
BRANCH   2  19
HETATM   19  C   UNK N   1      35.889  14.046  10.257  0.00  0.00     0.221 C 
BRANCH  19  20
HETATM   20  N   UNK N   1      35.495  13.473  11.536  0.00  0.00    -0.401 N 
HETATM   21  C   UNK N   1      35.358  14.488  12.580  0.00  0.00     0.147 C 
HETATM   22  C   UNK N   1      36.437  14.395  13.654  0.00  0.00     0.292 C 
HETATM   23  N   UNK N   1      36.601  13.023  14.139  0.00  0.00     0.095 N 
HETATM   24  C   UNK N   1      37.103  12.227  13.020  0.00  0.00     0.292 C 
HETATM   25  C   UNK N   1      36.098  12.170  11.858  0.00  0.00     0.147 C 
BRANCH  23  26
HETATM   26  C   UNK N   1      35.376  12.393  14.672  0.00  0.00     0.311 C 
BRANCH  26  27
HETATM   27  C   UNK N   1      35.313  12.290  16.171  0.00  0.00    -0.030 A 
HETATM   28  C   UNK N   1      35.542  11.063  16.810  0.00  0.00     0.009 A 
HETATM   29  C   UNK N   1      35.533  10.974  18.201  0.00  0.00     0.001 A 
HETATM   30  C   UNK N   1      35.313  12.120  18.967  0.00  0.00     0.000 A 
HETATM   31  C   UNK N   1      35.104  13.352  18.338  0.00  0.00     0.001 A 
HETATM   32  C   UNK N   1      35.110  13.438  16.941  0.00  0.00     0.009 A 
ENDBRANCH  26  27
ENDBRANCH  23  26
ENDBRANCH  19  20
ENDBRANCH   2  19
TORSDOF 9
ENDMDL
MODEL 4
REMARK VINA RESULT:      -7.3      1.730      9.895
REMARK  9 active torsions:
REMARK  status: ('A' for Active; 'I' for Inactive)
REMARK    1  A    between atoms: C_2  and  C_3 
REMARK    2  A    between atoms: C_3  and  C_4 
REMARK    3  A    between atoms: C_8  and  C_11 
REMARK    4  A    between atoms: C_9  and  O_10 
REMARK    5  A    between atoms: N_12  and  N_14 
REMARK       I    between atoms: N_14  and  C_15 
REMARK    6  A    between atoms: C_15  and  C_17 
REMARK    7  A    between atoms: C_17  and  N_18 
REMARK    8  A    between atoms: N_21  and  C_24 
REMARK    9  A    between atoms: C_24  and  C_25 
ROOT
HETATM    1  N   UNK N   1      35.758  14.899  10.914  0.00  0.00    -0.269 N 
HETATM    2  C   UNK N   1      35.328  16.048  10.352  0.00  0.00     0.253 C 
HETATM    3  O   UNK N   1      35.327  17.078  11.004  0.00  0.00    -0.270 OA
HETATM    4  H   UNK N   1      36.018  14.887  11.864  0.00  0.00     0.190 HD
ENDROOT
BRANCH   1   5
HETATM    5  N   UNK N   1      35.835  13.746  10.170  0.00  0.00    -0.308 N 
HETATM    6  C   UNK N   1      36.242  12.630  10.670  0.00  0.00     0.121 C 
ATOM      7  HN  UNK N   1      35.559  13.775   9.189  1.00  0.00     0.186 HD
BRANCH   6   8
HETATM    8  C   UNK N   1      36.436  12.391  12.117  0.00  0.00     0.014 A 
HETATM    9  C   UNK N   1      37.609  11.742  12.506  0.00  0.00     0.016 A 
HETATM   10  C   UNK N   1      37.869  11.495  13.853  0.00  0.00     0.002 A 
HETATM   11  C   UNK N   1      36.955  11.893  14.826  0.00  0.00     0.010 A 
HETATM   12  C   UNK N   1      35.757  12.515  14.458  0.00  0.00    -0.021 A 
HETATM   13  C   UNK N   1      35.486  12.760  13.101  0.00  0.00     0.084 A 
BRANCH  12  14
HETATM   14  C   UNK N   1      34.789  12.938  15.520  0.00  0.00     0.067 C 
BRANCH  14  15
HETATM   15  C   UNK N   1      35.500  13.420  16.741  0.00  0.00    -0.032 C 
HETATM   16  C   UNK N   1      35.097  13.022  17.942  0.00  0.00     0.007 C 
ENDBRANCH  14  15
ENDBRANCH  12  14
BRANCH  13  17
HETATM   17  O   UNK N   1      34.314  13.324  12.757  0.00  0.00    -0.359 OA
HETATM   18  H   UNK N   1      33.566  12.806  12.536  0.00  0.00     0.217 HD
ENDBRANCH  13  17
ENDBRANCH   6   8
ENDBRANCH   1   5
BRANCH   2  19
HETATM   19  C   UNK N   1      34.785  16.010   8.943  0.00  0.00     0.221 C 
BRANCH  19  20
HETATM   20  N   UNK N   1      33.383  16.373   8.805  0.00  0.00    -0.401 N 
HETATM   21  C   UNK N   1      32.521  15.203   8.634  0.00  0.00     0.147 C 
HETATM   22  C   UNK N   1      31.918  15.099   7.236  0.00  0.00     0.292 C 
HETATM   23  N   UNK N   1      31.333  16.370   6.805  0.00  0.00     0.095 N 
HETATM   24  C   UNK N   1      32.429  17.330   6.679  0.00  0.00     0.292 C 
HETATM   25  C   UNK N   1      33.119  17.595   8.028  0.00  0.00     0.147 C 
BRANCH  23  26
HETATM   26  C   UNK N   1      30.301  16.926   7.703  0.00  0.00     0.311 C 
BRANCH  26  27
HETATM   27  C   UNK N   1      29.308  17.843   7.043  0.00  0.00    -0.030 A 
HETATM   28  C   UNK N   1      28.625  18.811   7.793  0.00  0.00     0.009 A 
HETATM   29  C   UNK N   1      27.740  19.694   7.176  0.00  0.00     0.001 A 
HETATM   30  C   UNK N   1      27.547  19.629   5.795  0.00  0.00     0.000 A 
HETATM   31  C   UNK N   1      28.242  18.680   5.036  0.00  0.00     0.001 A 
HETATM   32  C   UNK N   1      29.126  17.792   5.659  0.00  0.00     0.009 A 
ENDBRANCH  26  27
ENDBRANCH  23  26
ENDBRANCH  19  20
ENDBRANCH   2  19
TORSDOF 9
ENDMDL
MODEL 5
REMARK VINA RESULT:      -7.2      1.549      1.890
REMARK  9 active torsions:
REMARK  status: ('A' for Active; 'I' for Inactive)
REMARK    1  A    between atoms: C_2  and  C_3 
REMARK    2  A    between atoms: C_3  and  C_4 
REMARK    3  A    between atoms: C_8  and  C_11 
REMARK    4  A    between atoms: C_9  and  O_10 
REMARK    5  A    between atoms: N_12  and  N_14 
REMARK       I    between atoms: N_14  and  C_15 
REMARK    6  A    between atoms: C_15  and  C_17 
REMARK    7  A    between atoms: C_17  and  N_18 
REMARK    8  A    between atoms: N_21  and  C_24 
REMARK    9  A    between atoms: C_24  and  C_25 
ROOT
HETATM    1  N   UNK N   1      34.296  13.638   8.093  0.00  0.00    -0.269 N 
HETATM    2  C   UNK N   1      34.360  12.902   9.223  0.00  0.00     0.253 C 
HETATM    3  O   UNK N   1      33.528  12.035   9.428  0.00  0.00    -0.270 OA
HETATM    4  H   UNK N   1      33.548  13.507   7.467  0.00  0.00     0.190 HD
ENDROOT
BRANCH   1   5
HETATM    5  N   UNK N   1      35.268  14.568   7.812  0.00  0.00    -0.308 N 
HETATM    6  C   UNK N   1      35.003  15.687   7.231  0.00  0.00     0.121 C 
ATOM      7  HN  UNK N   1      36.233  14.365   8.074  1.00  0.00     0.186 HD
BRANCH   6   8
HETATM    8  C   UNK N   1      33.635  16.209   7.022  0.00  0.00     0.014 A 
HETATM    9  C   UNK N   1      33.235  16.444   5.706  0.00  0.00     0.016 A 
HETATM   10  C   UNK N   1      31.955  16.921   5.428  0.00  0.00     0.002 A 
HETATM   11  C   UNK N   1      31.061  17.171   6.468  0.00  0.00     0.010 A 
HETATM   12  C   UNK N   1      31.451  16.975   7.797  0.00  0.00    -0.021 A 
HETATM   13  C   UNK N   1      32.742  16.501   8.083  0.00  0.00     0.084 A 
BRANCH  12  14
HETATM   14  C   UNK N   1      30.474  17.246   8.899  0.00  0.00     0.067 C 
BRANCH  14  15
HETATM   15  C   UNK N   1      29.118  17.557   8.358  0.00  0.00    -0.032 C 
HETATM   16  C   UNK N   1      28.136  17.895   9.187  0.00  0.00     0.007 C 
ENDBRANCH  14  15
ENDBRANCH  12  14
BRANCH  13  17
HETATM   17  O   UNK N   1      33.118  16.352   9.366  0.00  0.00    -0.359 OA
HETATM   18  H   UNK N   1      33.599  17.017   9.818  0.00  0.00     0.217 HD
ENDBRANCH  13  17
ENDBRANCH   6   8
ENDBRANCH   1   5
BRANCH   2  19
HETATM   19  C   UNK N   1      35.424  13.228  10.244  0.00  0.00     0.221 C 
BRANCH  19  20
HETATM   20  N   UNK N   1      35.099  12.875  11.618  0.00  0.00    -0.401 N 
HETATM   21  C   UNK N   1      35.125  14.035  12.510  0.00  0.00     0.147 C 
HETATM   22  C   UNK N   1      36.282  14.004  13.504  0.00  0.00     0.292 C 
HETATM   23  N   UNK N   1      36.387  12.705  14.171  0.00  0.00     0.095 N 
HETATM   24  C   UNK N   1      36.734  11.720  13.148  0.00  0.00     0.292 C 
HETATM   25  C   UNK N   1      35.633  11.584  12.083  0.00  0.00     0.147 C 
BRANCH  23  26
HETATM   26  C   UNK N   1      35.169  12.260  14.879  0.00  0.00     0.311 C 
BRANCH  26  27
HETATM   27  C   UNK N   1      35.253  12.305  16.380  0.00  0.00    -0.030 A 
HETATM   28  C   UNK N   1      35.205  13.531  17.059  0.00  0.00     0.009 A 
HETATM   29  C   UNK N   1      35.233  13.573  18.453  0.00  0.00     0.001 A 
HETATM   30  C   UNK N   1      35.289  12.383  19.180  0.00  0.00     0.000 A 
HETATM   31  C   UNK N   1      35.315  11.154  18.511  0.00  0.00     0.001 A 
HETATM   32  C   UNK N   1      35.291  11.116  17.112  0.00  0.00     0.009 A 
ENDBRANCH  26  27
ENDBRANCH  23  26
ENDBRANCH  19  20
ENDBRANCH   2  19
TORSDOF 9
ENDMDL
MODEL 6
REMARK VINA RESULT:      -7.1      1.761      2.454
REMARK  9 active torsions:
REMARK  status: ('A' for Active; 'I' for Inactive)
REMARK    1  A    between atoms: C_2  and  C_3 
REMARK    2  A    between atoms: C_3  and  C_4 
REMARK    3  A    between atoms: C_8  and  C_11 
REMARK    4  A    between atoms: C_9  and  O_10 
REMARK    5  A    between atoms: N_12  and  N_14 
REMARK       I    between atoms: N_14  and  C_15 
REMARK    6  A    between atoms: C_15  and  C_17 
REMARK    7  A    between atoms: C_17  and  N_18 
REMARK    8  A    between atoms: N_21  and  C_24 
REMARK    9  A    between atoms: C_24  and  C_25 
ROOT
HETATM    1  N   UNK N   1      35.222  14.242   9.045  0.00  0.00    -0.269 N 
HETATM    2  C   UNK N   1      36.229  14.304   9.943  0.00  0.00     0.253 C 
HETATM    3  O   UNK N   1      36.905  15.315  10.024  0.00  0.00    -0.270 OA
HETATM    4  H   UNK N   1      35.074  14.992   8.425  0.00  0.00     0.190 HD
ENDROOT
BRANCH   1   5
HETATM    5  N   UNK N   1      34.405  13.139   8.991  0.00  0.00    -0.308 N 
HETATM    6  C   UNK N   1      33.177  13.210   8.606  0.00  0.00     0.121 C 
ATOM      7  HN  UNK N   1      34.783  12.232   9.266  1.00  0.00     0.186 HD
BRANCH   6   8
HETATM    8  C   UNK N   1      32.579  14.398   7.957  0.00  0.00     0.014 A 
HETATM    9  C   UNK N   1      32.259  14.292   6.603  0.00  0.00     0.016 A 
HETATM   10  C   UNK N   1      31.679  15.363   5.925  0.00  0.00     0.002 A 
HETATM   11  C   UNK N   1      31.416  16.555   6.597  0.00  0.00     0.010 A 
HETATM   12  C   UNK N   1      31.760  16.697   7.946  0.00  0.00    -0.021 A 
HETATM   13  C   UNK N   1      32.351  15.623   8.632  0.00  0.00     0.084 A 
BRANCH  12  14
HETATM   14  C   UNK N   1      31.466  17.985   8.650  0.00  0.00     0.067 C 
BRANCH  14  15
HETATM   15  C   UNK N   1      29.996  18.212   8.774  0.00  0.00    -0.032 C 
HETATM   16  C   UNK N   1      29.313  17.616   9.745  0.00  0.00     0.007 C 
ENDBRANCH  14  15
ENDBRANCH  12  14
BRANCH  13  17
HETATM   17  O   UNK N   1      32.712  15.783   9.918  0.00  0.00    -0.359 OA
HETATM   18  H   UNK N   1      32.363  16.475  10.444  0.00  0.00     0.217 HD
ENDBRANCH  13  17
ENDBRANCH   6   8
ENDBRANCH   1   5
BRANCH   2  19
HETATM   19  C   UNK N   1      36.539  13.082  10.773  0.00  0.00     0.221 C 
BRANCH  19  20
HETATM   20  N   UNK N   1      36.332  13.232  12.206  0.00  0.00    -0.401 N 
HETATM   21  C   UNK N   1      37.366  12.555  12.990  0.00  0.00     0.147 C 
HETATM   22  C   UNK N   1      36.846  11.333  13.741  0.00  0.00     0.292 C 
HETATM   23  N   UNK N   1      35.611  11.630  14.468  0.00  0.00     0.095 N 
HETATM   24  C   UNK N   1      34.585  11.932  13.471  0.00  0.00     0.292 C 
HETATM   25  C   UNK N   1      34.930  13.186  12.651  0.00  0.00     0.147 C 
BRANCH  23  26
HETATM   26  C   UNK N   1      35.698  12.749  15.428  0.00  0.00     0.311 C 
BRANCH  26  27
HETATM   27  C   UNK N   1      35.516  12.367  16.871  0.00  0.00    -0.030 A 
HETATM   28  C   UNK N   1      35.716  11.043  17.287  0.00  0.00     0.009 A 
HETATM   29  C   UNK N   1      35.596  10.694  18.632  0.00  0.00     0.001 A 
HETATM   30  C   UNK N   1      35.294  11.676  19.577  0.00  0.00     0.000 A 
HETATM   31  C   UNK N   1      35.114  13.004  19.173  0.00  0.00     0.001 A 
HETATM   32  C   UNK N   1      35.231  13.350  17.822  0.00  0.00     0.009 A 
ENDBRANCH  26  27
ENDBRANCH  23  26
ENDBRANCH  19  20
ENDBRANCH   2  19
TORSDOF 9
ENDMDL
MODEL 7
REMARK VINA RESULT:      -7.1      2.593     10.269
REMARK  9 active torsions:
REMARK  status: ('A' for Active; 'I' for Inactive)
REMARK    1  A    between atoms: C_2  and  C_3 
REMARK    2  A    between atoms: C_3  and  C_4 
REMARK    3  A    between atoms: C_8  and  C_11 
REMARK    4  A    between atoms: C_9  and  O_10 
REMARK    5  A    between atoms: N_12  and  N_14 
REMARK       I    between atoms: N_14  and  C_15 
REMARK    6  A    between atoms: C_15  and  C_17 
REMARK    7  A    between atoms: C_17  and  N_18 
REMARK    8  A    between atoms: N_21  and  C_24 
REMARK    9  A    between atoms: C_24  and  C_25 
ROOT
HETATM    1  N   UNK N   1      35.708  12.074  12.425  0.00  0.00    -0.269 N 
HETATM    2  C   UNK N   1      35.894  13.309  11.912  0.00  0.00     0.253 C 
HETATM    3  O   UNK N   1      37.001  13.819  11.951  0.00  0.00    -0.270 OA
HETATM    4  H   UNK N   1      36.452  11.614  12.876  0.00  0.00     0.190 HD
ENDROOT
BRANCH   1   5
HETATM    5  N   UNK N   1      34.485  11.456  12.323  0.00  0.00    -0.308 N 
HETATM    6  C   UNK N   1      33.988  10.749  13.280  0.00  0.00     0.121 C 
ATOM      7  HN  UNK N   1      33.952  11.560  11.460  1.00  0.00     0.186 HD
BRANCH   6   8
HETATM    8  C   UNK N   1      34.533  10.718  14.655  0.00  0.00     0.014 A 
HETATM    9  C   UNK N   1      34.937   9.478  15.154  0.00  0.00     0.016 A 
HETATM   10  C   UNK N   1      35.474   9.371  16.435  0.00  0.00     0.002 A 
HETATM   11  C   UNK N   1      35.609  10.504  17.235  0.00  0.00     0.010 A 
HETATM   12  C   UNK N   1      35.179  11.752  16.769  0.00  0.00    -0.021 A 
HETATM   13  C   UNK N   1      34.631  11.865  15.481  0.00  0.00     0.084 A 
BRANCH  12  14
HETATM   14  C   UNK N   1      35.337  12.959  17.642  0.00  0.00     0.067 C 
BRANCH  14  15
HETATM   15  C   UNK N   1      35.391  12.581  19.085  0.00  0.00    -0.032 C 
HETATM   16  C   UNK N   1      34.598  13.190  19.960  0.00  0.00     0.007 C 
ENDBRANCH  14  15
ENDBRANCH  12  14
BRANCH  13  17
HETATM   17  O   UNK N   1      34.187  13.063  15.059  0.00  0.00    -0.359 OA
HETATM   18  H   UNK N   1      33.577  13.566  15.560  0.00  0.00     0.217 HD
ENDBRANCH  13  17
ENDBRANCH   6   8
ENDBRANCH   1   5
BRANCH   2  19
HETATM   19  C   UNK N   1      34.702  14.059  11.368  0.00  0.00     0.221 C 
BRANCH  19  20
HETATM   20  N   UNK N   1      34.749  14.360   9.946  0.00  0.00    -0.401 N 
HETATM   21  C   UNK N   1      35.461  15.606   9.665  0.00  0.00     0.147 C 
HETATM   22  C   UNK N   1      34.548  16.723   9.168  0.00  0.00     0.292 C 
HETATM   23  N   UNK N   1      33.662  16.259   8.098  0.00  0.00     0.095 N 
HETATM   24  C   UNK N   1      32.766  15.261   8.680  0.00  0.00     0.292 C 
HETATM   25  C   UNK N   1      33.532  14.028   9.188  0.00  0.00     0.147 C 
BRANCH  23  26
HETATM   26  C   UNK N   1      34.343  15.675   6.925  0.00  0.00     0.311 C 
BRANCH  26  27
HETATM   27  C   UNK N   1      33.789  16.094   5.591  0.00  0.00    -0.030 A 
HETATM   28  C   UNK N   1      33.991  15.298   4.455  0.00  0.00     0.009 A 
HETATM   29  C   UNK N   1      33.437  15.658   3.227  0.00  0.00     0.001 A 
HETATM   30  C   UNK N   1      32.657  16.812   3.131  0.00  0.00     0.000 A 
HETATM   31  C   UNK N   1      32.433  17.600   4.266  0.00  0.00     0.001 A 
HETATM   32  C   UNK N   1      32.994  17.238   5.496  0.00  0.00     0.009 A 
ENDBRANCH  26  27
ENDBRANCH  23  26
ENDBRANCH  19  20
ENDBRANCH   2  19
TORSDOF 9
ENDMDL
MODEL 8
REMARK VINA RESULT:      -6.9      2.059      3.746
REMARK  9 active torsions:
REMARK  status: ('A' for Active; 'I' for Inactive)
REMARK    1  A    between atoms: C_2  and  C_3 
REMARK    2  A    between atoms: C_3  and  C_4 
REMARK    3  A    between atoms: C_8  and  C_11 
REMARK    4  A    between atoms: C_9  and  O_10 
REMARK    5  A    between atoms: N_12  and  N_14 
REMARK       I    between atoms: N_14  and  C_15 
REMARK    6  A    between atoms: C_15  and  C_17 
REMARK    7  A    between atoms: C_17  and  N_18 
REMARK    8  A    between atoms: N_21  and  C_24 
REMARK    9  A    between atoms: C_24  and  C_25 
ROOT
HETATM    1  N   UNK N   1      32.829  17.120   6.583  0.00  0.00    -0.269 N 
HETATM    2  C   UNK N   1      34.070  17.166   7.112  0.00  0.00     0.253 C 
HETATM    3  O   UNK N   1      34.620  18.242   7.270  0.00  0.00    -0.270 OA
HETATM    4  H   UNK N   1      32.396  17.950   6.279  0.00  0.00     0.190 HD
ENDROOT
BRANCH   1   5
HETATM    5  N   UNK N   1      32.166  15.921   6.466  0.00  0.00    -0.308 N 
HETATM    6  C   UNK N   1      30.951  15.765   6.865  0.00  0.00     0.121 C 
ATOM      7  HN  UNK N   1      32.654  15.128   6.050  1.00  0.00     0.186 HD
BRANCH   6   8
HETATM    8  C   UNK N   1      30.057  16.878   7.255  0.00  0.00     0.014 A 
HETATM    9  C   UNK N   1      30.235  17.424   8.527  0.00  0.00     0.016 A 
HETATM   10  C   UNK N   1      29.441  18.484   8.961  0.00  0.00     0.002 A 
HETATM   11  C   UNK N   1      28.457  19.008   8.125  0.00  0.00     0.010 A 
HETATM   12  C   UNK N   1      28.238  18.456   6.859  0.00  0.00    -0.021 A 
HETATM   13  C   UNK N   1      29.030  17.382   6.419  0.00  0.00     0.084 A 
BRANCH  12  14
HETATM   14  C   UNK N   1      27.178  19.036   5.974  0.00  0.00     0.067 C 
BRANCH  14  15
HETATM   15  C   UNK N   1      27.735  20.098   5.085  0.00  0.00    -0.032 C 
HETATM   16  C   UNK N   1      27.323  20.190   3.825  0.00  0.00     0.007 C 
ENDBRANCH  14  15
ENDBRANCH  12  14
BRANCH  13  17
HETATM   17  O   UNK N   1      28.785  16.835   5.215  0.00  0.00    -0.359 OA
HETATM   18  H   UNK N   1      28.972  17.292   4.419  0.00  0.00     0.217 HD
ENDBRANCH  13  17
ENDBRANCH   6   8
ENDBRANCH   1   5
BRANCH   2  19
HETATM   19  C   UNK N   1      34.777  15.869   7.423  0.00  0.00     0.221 C 
BRANCH  19  20
HETATM   20  N   UNK N   1      34.594  15.367   8.777  0.00  0.00    -0.401 N 
HETATM   21  C   UNK N   1      35.382  16.115   9.757  0.00  0.00     0.147 C 
HETATM   22  C   UNK N   1      36.529  15.304  10.351  0.00  0.00     0.292 C 
HETATM   23  N   UNK N   1      36.084  13.980  10.792  0.00  0.00     0.095 N 
HETATM   24  C   UNK N   1      35.671  13.244   9.598  0.00  0.00     0.292 C 
HETATM   25  C   UNK N   1      34.472  13.906   8.900  0.00  0.00     0.147 C 
BRANCH  23  26
HETATM   26  C   UNK N   1      34.976  13.981  11.769  0.00  0.00     0.311 C 
BRANCH  26  27
HETATM   27  C   UNK N   1      35.357  13.571  13.165  0.00  0.00    -0.030 A 
HETATM   28  C   UNK N   1      34.815  12.412  13.738  0.00  0.00     0.009 A 
HETATM   29  C   UNK N   1      35.203  12.002  15.013  0.00  0.00     0.001 A 
HETATM   30  C   UNK N   1      36.155  12.741  15.718  0.00  0.00     0.000 A 
HETATM   31  C   UNK N   1      36.717  13.887  15.144  0.00  0.00     0.001 A 
HETATM   32  C   UNK N   1      36.322  14.298  13.865  0.00  0.00     0.009 A 
ENDBRANCH  26  27
ENDBRANCH  23  26
ENDBRANCH  19  20
ENDBRANCH   2  19
TORSDOF 9
ENDMDL
MODEL 9
REMARK VINA RESULT:      -6.6      2.367     10.341
REMARK  9 active torsions:
REMARK  status: ('A' for Active; 'I' for Inactive)
REMARK    1  A    between atoms: C_2  and  C_3 
REMARK    2  A    between atoms: C_3  and  C_4 
REMARK    3  A    between atoms: C_8  and  C_11 
REMARK    4  A    between atoms: C_9  and  O_10 
REMARK    5  A    between atoms: N_12  and  N_14 
REMARK       I    between atoms: N_14  and  C_15 
REMARK    6  A    between atoms: C_15  and  C_17 
REMARK    7  A    between atoms: C_17  and  N_18 
REMARK    8  A    between atoms: N_21  and  C_24 
REMARK    9  A    between atoms: C_24  and  C_25 
ROOT
HETATM    1  N   UNK N   1      33.706  14.019   8.768  0.00  0.00    -0.269 N 
HETATM    2  C   UNK N   1      33.020  13.723   7.644  0.00  0.00     0.253 C 
HETATM    3  O   UNK N   1      32.582  12.597   7.481  0.00  0.00    -0.270 OA
HETATM    4  H   UNK N   1      33.895  13.312   9.425  0.00  0.00     0.190 HD
ENDROOT
BRANCH   1   5
HETATM    5  N   UNK N   1      34.141  15.302   8.999  0.00  0.00    -0.308 N 
HETATM    6  C   UNK N   1      35.096  15.567   9.824  0.00  0.00     0.121 C 
ATOM      7  HN  UNK N   1      33.693  16.071   8.501  1.00  0.00     0.186 HD
BRANCH   6   8
HETATM    8  C   UNK N   1      35.984  14.544  10.419  0.00  0.00     0.014 A 
HETATM    9  C   UNK N   1      37.247  14.383   9.845  0.00  0.00     0.016 A 
HETATM   10  C   UNK N   1      38.146  13.450  10.360  0.00  0.00     0.002 A 
HETATM   11  C   UNK N   1      37.789  12.665  11.454  0.00  0.00     0.010 A 
HETATM   12  C   UNK N   1      36.516  12.786  12.025  0.00  0.00    -0.021 A 
HETATM   13  C   UNK N   1      35.604  13.719  11.506  0.00  0.00     0.084 A 
BRANCH  12  14
HETATM   14  C   UNK N   1      36.154  11.936  13.203  0.00  0.00     0.067 C 
BRANCH  14  15
HETATM   15  C   UNK N   1      37.004  12.258  14.387  0.00  0.00    -0.032 C 
HETATM   16  C   UNK N   1      36.668  13.261  15.191  0.00  0.00     0.007 C 
ENDBRANCH  14  15
ENDBRANCH  12  14
BRANCH  13  17
HETATM   17  O   UNK N   1      34.371  13.799  12.039  0.00  0.00    -0.359 OA
HETATM   18  H   UNK N   1      33.977  13.072  12.477  0.00  0.00     0.217 HD
ENDBRANCH  13  17
ENDBRANCH   6   8
ENDBRANCH   1   5
BRANCH   2  19
HETATM   19  C   UNK N   1      32.878  14.782   6.577  0.00  0.00     0.221 C 
BRANCH  19  20
HETATM   20  N   UNK N   1      31.565  15.403   6.484  0.00  0.00    -0.401 N 
HETATM   21  C   UNK N   1      30.651  14.643   5.632  0.00  0.00     0.147 C 
HETATM   22  C   UNK N   1      30.317  15.353   4.324  0.00  0.00     0.292 C 
HETATM   23  N   UNK N   1      29.940  16.750   4.548  0.00  0.00     0.095 N 
HETATM   24  C   UNK N   1      31.121  17.438   5.068  0.00  0.00     0.292 C 
HETATM   25  C   UNK N   1      31.564  16.874   6.428  0.00  0.00     0.147 C 
BRANCH  23  26
HETATM   26  C   UNK N   1      28.810  16.957   5.477  0.00  0.00     0.311 C 
BRANCH  26  27
HETATM   27  C   UNK N   1      28.178  18.320   5.418  0.00  0.00    -0.030 A 
HETATM   28  C   UNK N   1      28.073  19.107   6.574  0.00  0.00     0.009 A 
HETATM   29  C   UNK N   1      27.532  20.390   6.513  0.00  0.00     0.001 A 
HETATM   30  C   UNK N   1      27.107  20.905   5.287  0.00  0.00     0.000 A 
HETATM   31  C   UNK N   1      27.228  20.135   4.125  0.00  0.00     0.001 A 
HETATM   32  C   UNK N   1      27.768  18.845   4.190  0.00  0.00     0.009 A 
ENDBRANCH  26  27
ENDBRANCH  23  26
ENDBRANCH  19  20
ENDBRANCH   2  19
TORSDOF 9
ENDMDL
