MODEL 1
REMARK VINA RESULT:      -7.3      0.000      0.000
REMARK  4 active torsions:
REMARK  status: ('A' for Active; 'I' for Inactive)
REMARK    1  A    between atoms: C_4  and  N_26 
REMARK    2  A    between atoms: C_14  and  N_9 
REMARK    3  A    between atoms: C_15  and  O_25 
REMARK    4  A    between atoms: P_21  and  O_24 
ROOT
HETATM    1  C   UNK N   1      29.362  18.438   9.890  0.00  0.00     0.183 A 
HETATM    2  N   UNK N   1      28.327  18.685   9.019  0.00  0.00    -0.337 N 
ATOM      3  HN  UNK N   1      27.508  19.196   9.344  1.00  0.00     0.168 HD
HETATM    4  C   UNK N   1      28.382  18.255   7.723  0.00  0.00     0.131 A 
HETATM    5  C   UNK N   1      29.512  17.565   7.315  0.00  0.00     0.123 A 
HETATM    6  C   UNK N   1      30.517  17.325   8.189  0.00  0.00     0.144 A 
HETATM    7  N   UNK N   1      30.469  17.744   9.476  0.00  0.00    -0.336 N 
ATOM      8  HN  UNK N   1      31.236  17.549  10.120  1.00  0.00     0.168 HD
HETATM    9  N   UNK N   1      31.471  16.594   7.581  0.00  0.00    -0.277 N 
HETATM   10  C   UNK N   1      31.006  16.425   6.315  0.00  0.00     0.185 A 
HETATM   11  N   UNK N   1      29.797  17.017   6.121  0.00  0.00    -0.326 N 
ATOM     12  HN  UNK N   1      29.238  17.041   5.269  1.00  0.00     0.168 HD
HETATM   13 Cl   UNK N   1      31.838  15.521   5.061  0.00  0.00    -0.044 Cl
ENDROOT
BRANCH   9  14
HETATM   14  C   UNK N   1      32.704  16.006   8.128  0.00  0.00     0.264 C 
HETATM   15  C   UNK N   1      32.540  14.778   9.001  0.00  0.00     0.199 C 
HETATM   16  C   UNK N   1      33.865  14.758   9.727  0.00  0.00     0.197 C 
HETATM   17  C   UNK N   1      34.518  16.037   9.219  0.00  0.00     0.180 C 
HETATM   18  O   UNK N   1      33.621  14.888  11.102  0.00  0.00    -0.286 OA
HETATM   19  O   UNK N   1      33.477  16.903   8.867  0.00  0.00    -0.353 OA
HETATM   20  C   UNK N   1      35.423  16.605  10.300  0.00  0.00     0.215 C 
HETATM   21  O   UNK N   1      36.160  15.546  10.855  0.00  0.00    -0.294 OA
HETATM   22  P   UNK N   1      35.123  14.732  12.028  0.00  0.00     0.393 P 
HETATM   23  O   UNK N   1      35.867  13.669  11.167  0.00  0.00    -0.631 OA
BRANCH  15  24
HETATM   24  O   UNK N   1      32.396  13.637   8.213  0.00  0.00    -0.388 OA
HETATM   25  H   UNK N   1      32.210  13.258   7.340  0.00  0.00     0.210 HD
ENDBRANCH  15  24
BRANCH  22  26
HETATM   26  O   UNK N   1      34.620  13.116  12.405  0.00  0.00    -0.307 OA
HETATM   27  H   UNK N   1      35.066  12.587  13.085  0.00  0.00     0.222 HD
ENDBRANCH  22  26
ENDBRANCH   9  14
BRANCH   4  28
HETATM   28  N   UNK N   1      27.306  18.486   6.842  0.00  0.00    -0.383 N 
HETATM   29  H   UNK N   1      26.377  18.379   7.151  0.00  0.00     0.157 HD
HETATM   30  H   UNK N   1      27.484  18.755   5.913  0.00  0.00     0.157 HD
ENDBRANCH   4  28
TORSDOF 4
ENDMDL
MODEL 2
REMARK VINA RESULT:      -7.0     11.133     12.818
REMARK  4 active torsions:
REMARK  status: ('A' for Active; 'I' for Inactive)
REMARK    1  A    between atoms: C_4  and  N_26 
REMARK    2  A    between atoms: C_14  and  N_9 
REMARK    3  A    between atoms: C_15  and  O_25 
REMARK    4  A    between atoms: P_21  and  O_24 
ROOT
HETATM    1  C   UNK N   1      21.264  20.637   3.627  0.00  0.00     0.183 A 
HETATM    2  N   UNK N   1      21.006  21.154   2.379  0.00  0.00    -0.337 N 
ATOM      3  HN  UNK N   1      21.074  22.159   2.228  1.00  0.00     0.168 HD
HETATM    4  C   UNK N   1      20.660  20.338   1.340  0.00  0.00     0.131 A 
HETATM    5  C   UNK N   1      20.578  18.976   1.582  0.00  0.00     0.123 A 
HETATM    6  C   UNK N   1      20.828  18.487   2.819  0.00  0.00     0.144 A 
HETATM    7  N   UNK N   1      21.168  19.290   3.856  0.00  0.00    -0.336 N 
ATOM      8  HN  UNK N   1      21.348  18.901   4.782  1.00  0.00     0.168 HD
HETATM    9  N   UNK N   1      20.631  17.155   2.820  0.00  0.00    -0.277 N 
HETATM   10  C   UNK N   1      20.273  16.870   1.540  0.00  0.00     0.185 A 
HETATM   11  N   UNK N   1      20.235  17.977   0.751  0.00  0.00    -0.326 N 
ATOM     12  HN  UNK N   1      20.001  18.036  -0.240  1.00  0.00     0.168 HD
HETATM   13 Cl   UNK N   1      19.869  15.266   0.952  0.00  0.00    -0.044 Cl
ENDROOT
BRANCH   9  14
HETATM   14  C   UNK N   1      20.680  16.193   3.932  0.00  0.00     0.264 C 
HETATM   15  C   UNK N   1      19.505  16.200   4.887  0.00  0.00     0.199 C 
HETATM   16  C   UNK N   1      20.097  15.488   6.082  0.00  0.00     0.197 C 
HETATM   17  C   UNK N   1      21.541  15.288   5.642  0.00  0.00     0.180 C 
HETATM   18  O   UNK N   1      20.074  16.364   7.177  0.00  0.00    -0.286 OA
HETATM   19  O   UNK N   1      21.823  16.307   4.726  0.00  0.00    -0.353 OA
HETATM   20  C   UNK N   1      22.448  15.316   6.860  0.00  0.00     0.215 C 
HETATM   21  O   UNK N   1      21.851  14.546   7.870  0.00  0.00    -0.294 OA
HETATM   22  P   UNK N   1      20.625  15.547   8.650  0.00  0.00     0.393 P 
HETATM   23  O   UNK N   1      20.051  14.121   8.405  0.00  0.00    -0.631 OA
BRANCH  15  24
HETATM   24  O   UNK N   1      18.443  15.467   4.358  0.00  0.00    -0.388 OA
HETATM   25  H   UNK N   1      17.679  15.441   3.761  0.00  0.00     0.210 HD
ENDBRANCH  15  24
BRANCH  22  26
HETATM   26  O   UNK N   1      18.955  15.427   9.104  0.00  0.00    -0.307 OA
HETATM   27  H   UNK N   1      18.385  16.209   9.168  0.00  0.00     0.222 HD
ENDBRANCH  22  26
ENDBRANCH   9  14
BRANCH   4  28
HETATM   28  N   UNK N   1      20.369  20.876   0.069  0.00  0.00    -0.383 N 
HETATM   29  H   UNK N   1      20.171  20.281  -0.690  0.00  0.00     0.157 HD
HETATM   30  H   UNK N   1      20.365  21.851  -0.059  0.00  0.00     0.157 HD
ENDBRANCH   4  28
TORSDOF 4
ENDMDL
MODEL 3
REMARK VINA RESULT:      -7.0      5.115      7.562
REMARK  4 active torsions:
REMARK  status: ('A' for Active; 'I' for Inactive)
REMARK    1  A    between atoms: C_4  and  N_26 
REMARK    2  A    between atoms: C_14  and  N_9 
REMARK    3  A    between atoms: C_15  and  O_25 
REMARK    4  A    between atoms: P_21  and  O_24 
ROOT
HETATM    1  C   UNK N   1      36.825  15.159  14.632  0.00  0.00     0.183 A 
HETATM    2  N   UNK N   1      36.804  14.117  15.529  0.00  0.00    -0.337 N 
ATOM      3  HN  UNK N   1      37.183  14.252  16.465  1.00  0.00     0.168 HD
HETATM    4  C   UNK N   1      36.283  12.903  15.183  0.00  0.00     0.131 A 
HETATM    5  C   UNK N   1      35.775  12.755  13.902  0.00  0.00     0.123 A 
HETATM    6  C   UNK N   1      35.811  13.790  13.031  0.00  0.00     0.144 A 
HETATM    7  N   UNK N   1      36.330  14.996  13.365  0.00  0.00    -0.336 N 
ATOM      8  HN  UNK N   1      36.352  15.762  12.691  1.00  0.00     0.168 HD
HETATM    9  N   UNK N   1      35.318  13.390  11.843  0.00  0.00    -0.277 N 
HETATM   10  C   UNK N   1      34.972  12.092  12.045  0.00  0.00     0.185 A 
HETATM   11  N   UNK N   1      35.241  11.672  13.311  0.00  0.00    -0.326 N 
ATOM     12  HN  UNK N   1      35.076  10.752  13.718  1.00  0.00     0.168 HD
HETATM   13 Cl   UNK N   1      34.283  11.041  10.819  0.00  0.00    -0.044 Cl
ENDROOT
BRANCH   9  14
HETATM   14  C   UNK N   1      35.232  14.111  10.564  0.00  0.00     0.264 C 
HETATM   15  C   UNK N   1      35.840  15.499  10.525  0.00  0.00     0.199 C 
HETATM   16  C   UNK N   1      35.172  16.075   9.298  0.00  0.00     0.197 C 
HETATM   17  C   UNK N   1      34.219  14.954   8.906  0.00  0.00     0.180 C 
HETATM   18  O   UNK N   1      34.420  17.194   9.687  0.00  0.00    -0.286 OA
HETATM   19  O   UNK N   1      33.931  14.248  10.079  0.00  0.00    -0.353 OA
HETATM   20  C   UNK N   1      32.984  15.547   8.250  0.00  0.00     0.215 C 
HETATM   21  O   UNK N   1      33.400  16.538   7.347  0.00  0.00    -0.294 OA
HETATM   22  P   UNK N   1      33.720  18.005   8.275  0.00  0.00     0.393 P 
HETATM   23  O   UNK N   1      34.862  17.787   7.239  0.00  0.00    -0.631 OA
BRANCH  15  24
HETATM   24  O   UNK N   1      37.220  15.420  10.340  0.00  0.00    -0.388 OA
HETATM   25  H   UNK N   1      38.108  15.533  10.714  0.00  0.00     0.210 HD
ENDBRANCH  15  24
BRANCH  22  26
HETATM   26  O   UNK N   1      34.983  19.183   8.435  0.00  0.00    -0.307 OA
HETATM   27  H   UNK N   1      35.769  19.020   8.979  0.00  0.00     0.222 HD
ENDBRANCH  22  26
ENDBRANCH   9  14
BRANCH   4  28
HETATM   28  N   UNK N   1      36.290  11.830  16.097  0.00  0.00    -0.383 N 
HETATM   29  H   UNK N   1      35.443  11.463  16.442  0.00  0.00     0.157 HD
HETATM   30  H   UNK N   1      37.145  11.446  16.393  0.00  0.00     0.157 HD
ENDBRANCH   4  28
TORSDOF 4
ENDMDL
MODEL 4
REMARK VINA RESULT:      -6.7      3.519      4.745
REMARK  4 active torsions:
REMARK  status: ('A' for Active; 'I' for Inactive)
REMARK    1  A    between atoms: C_4  and  N_26 
REMARK    2  A    between atoms: C_14  and  N_9 
REMARK    3  A    between atoms: C_15  and  O_25 
REMARK    4  A    between atoms: P_21  and  O_24 
ROOT
HETATM    1  C   UNK N   1      28.130  19.687   4.672  0.00  0.00     0.183 A 
HETATM    2  N   UNK N   1      27.286  20.548   5.334  0.00  0.00    -0.337 N 
ATOM      3  HN  UNK N   1      26.832  21.301   4.820  1.00  0.00     0.168 HD
HETATM    4  C   UNK N   1      27.047  20.406   6.672  0.00  0.00     0.131 A 
HETATM    5  C   UNK N   1      27.680  19.369   7.339  0.00  0.00     0.123 A 
HETATM    6  C   UNK N   1      28.513  18.537   6.672  0.00  0.00     0.144 A 
HETATM    7  N   UNK N   1      28.759  18.673   5.347  0.00  0.00    -0.336 N 
ATOM      8  HN  UNK N   1      29.394  18.037   4.864  1.00  0.00     0.168 HD
HETATM    9  N   UNK N   1      29.048  17.655   7.537  0.00  0.00    -0.277 N 
HETATM   10  C   UNK N   1      28.491  17.980   8.733  0.00  0.00     0.185 A 
HETATM   11  N   UNK N   1      27.637  19.036   8.640  0.00  0.00    -0.326 N 
ATOM     12  HN  UNK N   1      27.093  19.472   9.384  1.00  0.00     0.168 HD
HETATM   13 Cl   UNK N   1      28.839  17.166  10.249  0.00  0.00    -0.044 Cl
ENDROOT
BRANCH   9  14
HETATM   14  C   UNK N   1      30.071  16.620   7.320  0.00  0.00     0.264 C 
HETATM   15  C   UNK N   1      31.511  17.032   7.546  0.00  0.00     0.199 C 
HETATM   16  C   UNK N   1      32.246  15.941   6.803  0.00  0.00     0.197 C 
HETATM   17  C   UNK N   1      31.096  15.149   6.193  0.00  0.00     0.180 C 
HETATM   18  O   UNK N   1      32.989  16.530   5.769  0.00  0.00    -0.286 OA
HETATM   19  O   UNK N   1      30.030  16.044   6.049  0.00  0.00    -0.353 OA
HETATM   20  C   UNK N   1      31.545  14.543   4.874  0.00  0.00     0.215 C 
HETATM   21  O   UNK N   1      32.826  14.000   5.055  0.00  0.00    -0.294 OA
HETATM   22  P   UNK N   1      33.988  15.323   4.942  0.00  0.00     0.393 P 
HETATM   23  O   UNK N   1      34.362  14.406   6.143  0.00  0.00    -0.631 OA
BRANCH  15  24
HETATM   24  O   UNK N   1      31.821  16.993   8.905  0.00  0.00    -0.388 OA
HETATM   25  H   UNK N   1      31.584  17.247   9.810  0.00  0.00     0.210 HD
ENDBRANCH  15  24
BRANCH  22  26
HETATM   26  O   UNK N   1      35.332  15.943   5.846  0.00  0.00    -0.307 OA
HETATM   27  H   UNK N   1      36.247  15.698   5.635  0.00  0.00     0.222 HD
ENDBRANCH  22  26
ENDBRANCH   9  14
BRANCH   4  28
HETATM   28  N   UNK N   1      26.203  21.308   7.351  0.00  0.00    -0.383 N 
HETATM   29  H   UNK N   1      26.295  22.279   7.212  0.00  0.00     0.157 HD
HETATM   30  H   UNK N   1      25.518  20.966   7.968  0.00  0.00     0.157 HD
ENDBRANCH   4  28
TORSDOF 4
ENDMDL
MODEL 5
REMARK VINA RESULT:      -6.4      2.226      3.952
REMARK  4 active torsions:
REMARK  status: ('A' for Active; 'I' for Inactive)
REMARK    1  A    between atoms: C_4  and  N_26 
REMARK    2  A    between atoms: C_14  and  N_9 
REMARK    3  A    between atoms: C_15  and  O_25 
REMARK    4  A    between atoms: P_21  and  O_24 
ROOT
HETATM    1  C   UNK N   1      33.453  14.987   3.761  0.00  0.00     0.183 A 
HETATM    2  N   UNK N   1      32.592  15.604   2.883  0.00  0.00    -0.337 N 
ATOM      3  HN  UNK N   1      32.777  15.558   1.882  1.00  0.00     0.168 HD
HETATM    4  C   UNK N   1      31.492  16.277   3.334  0.00  0.00     0.131 A 
HETATM    5  C   UNK N   1      31.270  16.317   4.701  0.00  0.00     0.123 A 
HETATM    6  C   UNK N   1      32.133  15.711   5.550  0.00  0.00     0.144 A 
HETATM    7  N   UNK N   1      33.228  15.046   5.111  0.00  0.00    -0.336 N 
ATOM      8  HN  UNK N   1      33.868  14.599   5.769  1.00  0.00     0.168 HD
HETATM    9  N   UNK N   1      31.742  15.936   6.818  0.00  0.00    -0.277 N 
HETATM   10  C   UNK N   1      30.611  16.680   6.692  0.00  0.00     0.185 A 
HETATM   11  N   UNK N   1      30.294  16.928   5.393  0.00  0.00    -0.326 N 
ATOM     12  HN  UNK N   1      29.500  17.455   5.029  1.00  0.00     0.168 HD
HETATM   13 Cl   UNK N   1      29.664  17.290   8.039  0.00  0.00    -0.044 Cl
ENDROOT
BRANCH   9  14
HETATM   14  C   UNK N   1      32.392  15.573   8.087  0.00  0.00     0.264 C 
HETATM   15  C   UNK N   1      33.502  16.486   8.566  0.00  0.00     0.199 C 
HETATM   16  C   UNK N   1      34.208  15.590   9.557  0.00  0.00     0.197 C 
HETATM   17  C   UNK N   1      33.442  14.283   9.398  0.00  0.00     0.180 C 
HETATM   18  O   UNK N   1      35.528  15.398   9.121  0.00  0.00    -0.286 OA
HETATM   19  O   UNK N   1      32.923  14.282   8.099  0.00  0.00    -0.353 OA
HETATM   20  C   UNK N   1      34.375  13.115   9.666  0.00  0.00     0.215 C 
HETATM   21  O   UNK N   1      35.134  13.413  10.809  0.00  0.00    -0.294 OA
HETATM   22  P   UNK N   1      36.457  14.469  10.310  0.00  0.00     0.393 P 
HETATM   23  O   UNK N   1      35.832  15.009  11.629  0.00  0.00    -0.631 OA
BRANCH  15  24
HETATM   24  O   UNK N   1      32.969  17.603   9.209  0.00  0.00    -0.388 OA
HETATM   25  H   UNK N   1      32.498  18.447   9.136  0.00  0.00     0.210 HD
ENDBRANCH  15  24
BRANCH  22  26
HETATM   26  O   UNK N   1      37.165  15.974  10.802  0.00  0.00    -0.307 OA
HETATM   27  H   UNK N   1      37.074  16.781  10.271  0.00  0.00     0.222 HD
ENDBRANCH  22  26
ENDBRANCH   9  14
BRANCH   4  28
HETATM   28  N   UNK N   1      30.629  16.930   2.431  0.00  0.00    -0.383 N 
HETATM   29  H   UNK N   1      30.883  17.036   1.486  0.00  0.00     0.157 HD
HETATM   30  H   UNK N   1      29.767  17.284   2.748  0.00  0.00     0.157 HD
ENDBRANCH   4  28
TORSDOF 4
ENDMDL
MODEL 6
REMARK VINA RESULT:      -6.4     10.696     12.395
REMARK  4 active torsions:
REMARK  status: ('A' for Active; 'I' for Inactive)
REMARK    1  A    between atoms: C_4  and  N_26 
REMARK    2  A    between atoms: C_14  and  N_9 
REMARK    3  A    between atoms: C_15  and  O_25 
REMARK    4  A    between atoms: P_21  and  O_24 
ROOT
HETATM    1  C   UNK N   1      19.937  16.603   0.771  0.00  0.00     0.183 A 
HETATM    2  N   UNK N   1      20.040  17.930   0.426  0.00  0.00    -0.337 N 
ATOM      3  HN  UNK N   1      19.877  18.212  -0.540  1.00  0.00     0.168 HD
HETATM    4  C   UNK N   1      20.357  18.876   1.359  0.00  0.00     0.131 A 
HETATM    5  C   UNK N   1      20.571  18.456   2.663  0.00  0.00     0.123 A 
HETATM    6  C   UNK N   1      20.473  17.145   2.981  0.00  0.00     0.144 A 
HETATM    7  N   UNK N   1      20.163  16.200   2.061  0.00  0.00    -0.336 N 
ATOM      8  HN  UNK N   1      20.099  15.215   2.322  1.00  0.00     0.168 HD
HETATM    9  N   UNK N   1      20.778  16.979   4.282  0.00  0.00    -0.277 N 
HETATM   10  C   UNK N   1      21.043  18.235   4.726  0.00  0.00     0.185 A 
HETATM   11  N   UNK N   1      20.919  19.171   3.746  0.00  0.00    -0.326 N 
ATOM     12  HN  UNK N   1      21.058  20.179   3.817  1.00  0.00     0.168 HD
HETATM   13 Cl   UNK N   1      21.521  18.632   6.368  0.00  0.00    -0.044 Cl
ENDROOT
BRANCH   9  14
HETATM   14  C   UNK N   1      20.907  15.745   5.073  0.00  0.00     0.264 C 
HETATM   15  C   UNK N   1      19.900  15.546   6.188  0.00  0.00     0.199 C 
HETATM   16  C   UNK N   1      20.599  14.502   7.028  0.00  0.00     0.197 C 
HETATM   17  C   UNK N   1      21.931  14.359   6.304  0.00  0.00     0.180 C 
HETATM   18  O   UNK N   1      20.831  15.040   8.303  0.00  0.00    -0.286 OA
HETATM   19  O   UNK N   1      22.164  15.577   5.656  0.00  0.00    -0.353 OA
HETATM   20  C   UNK N   1      23.015  14.003   7.308  0.00  0.00     0.215 C 
HETATM   21  O   UNK N   1      22.510  13.015   8.167  0.00  0.00    -0.294 OA
HETATM   22  P   UNK N   1      21.522  13.821   9.386  0.00  0.00     0.393 P 
HETATM   23  O   UNK N   1      20.782  12.550   8.878  0.00  0.00    -0.631 OA
BRANCH  15  24
HETATM   24  O   UNK N   1      18.703  15.043   5.678  0.00  0.00    -0.388 OA
HETATM   25  H   UNK N   1      17.898  14.525   5.830  0.00  0.00     0.210 HD
ENDBRANCH  15  24
BRANCH  22  26
HETATM   26  O   UNK N   1      19.940  13.664  10.079  0.00  0.00    -0.307 OA
HETATM   27  H   UNK N   1      19.785  13.767  11.031  0.00  0.00     0.222 HD
ENDBRANCH  22  26
ENDBRANCH   9  14
BRANCH   4  28
HETATM   28  N   UNK N   1      20.488  20.231   0.994  0.00  0.00    -0.383 N 
HETATM   29  H   UNK N   1      21.050  20.839   1.528  0.00  0.00     0.157 HD
HETATM   30  H   UNK N   1      20.016  20.572   0.202  0.00  0.00     0.157 HD
ENDBRANCH   4  28
TORSDOF 4
ENDMDL
MODEL 7
REMARK VINA RESULT:      -6.3      8.940     11.158
REMARK  4 active torsions:
REMARK  status: ('A' for Active; 'I' for Inactive)
REMARK    1  A    between atoms: C_4  and  N_26 
REMARK    2  A    between atoms: C_14  and  N_9 
REMARK    3  A    between atoms: C_15  and  O_25 
REMARK    4  A    between atoms: P_21  and  O_24 
ROOT
HETATM    1  C   UNK N   1      26.876  16.901   5.949  0.00  0.00     0.183 A 
HETATM    2  N   UNK N   1      27.755  17.810   5.409  0.00  0.00    -0.337 N 
ATOM      3  HN  UNK N   1      28.746  17.746   5.636  1.00  0.00     0.168 HD
HETATM    4  C   UNK N   1      27.318  18.798   4.573  0.00  0.00     0.131 A 
HETATM    5  C   UNK N   1      25.964  18.855   4.286  0.00  0.00     0.123 A 
HETATM    6  C   UNK N   1      25.113  17.956   4.833  0.00  0.00     0.144 A 
HETATM    7  N   UNK N   1      25.537  16.976   5.666  0.00  0.00    -0.336 N 
ATOM      8  HN  UNK N   1      24.877  16.311   6.072  1.00  0.00     0.168 HD
HETATM    9  N   UNK N   1      23.854  18.248   4.455  0.00  0.00    -0.277 N 
HETATM   10  C   UNK N   1      23.989  19.336   3.653  0.00  0.00     0.185 A 
HETATM   11  N   UNK N   1      25.285  19.732   3.528  0.00  0.00    -0.326 N 
ATOM     12  HN  UNK N   1      25.655  20.513   2.985  1.00  0.00     0.168 HD
HETATM   13 Cl   UNK N   1      22.656  20.176   2.878  0.00  0.00    -0.044 Cl
ENDROOT
BRANCH   9  14
HETATM   14  C   UNK N   1      22.579  17.631   4.856  0.00  0.00     0.264 C 
HETATM   15  C   UNK N   1      21.808  18.327   5.959  0.00  0.00     0.199 C 
HETATM   16  C   UNK N   1      20.881  17.220   6.408  0.00  0.00     0.197 C 
HETATM   17  C   UNK N   1      21.354  16.051   5.553  0.00  0.00     0.180 C 
HETATM   18  O   UNK N   1      21.150  16.934   7.755  0.00  0.00    -0.286 OA
HETATM   19  O   UNK N   1      22.697  16.298   5.251  0.00  0.00    -0.353 OA
HETATM   20  C   UNK N   1      21.144  14.753   6.314  0.00  0.00     0.215 C 
HETATM   21  O   UNK N   1      19.872  14.792   6.906  0.00  0.00    -0.294 OA
HETATM   22  P   UNK N   1      20.003  15.741   8.388  0.00  0.00     0.393 P 
HETATM   23  O   UNK N   1      18.717  16.159   7.617  0.00  0.00    -0.631 OA
BRANCH  15  24
HETATM   24  O   UNK N   1      21.078  19.397   5.443  0.00  0.00    -0.388 OA
HETATM   25  H   UNK N   1      20.587  20.216   5.613  0.00  0.00     0.210 HD
ENDBRANCH  15  24
BRANCH  22  26
HETATM   26  O   UNK N   1      19.182  17.064   9.152  0.00  0.00    -0.307 OA
HETATM   27  H   UNK N   1      18.700  17.732   8.640  0.00  0.00     0.222 HD
ENDBRANCH  22  26
ENDBRANCH   9  14
BRANCH   4  28
HETATM   28  N   UNK N   1      28.220  19.744   4.045  0.00  0.00    -0.383 N 
HETATM   29  H   UNK N   1      28.745  19.536   3.237  0.00  0.00     0.157 HD
HETATM   30  H   UNK N   1      28.327  20.617   4.486  0.00  0.00     0.157 HD
ENDBRANCH   4  28
TORSDOF 4
ENDMDL
MODEL 8
REMARK VINA RESULT:      -6.3     11.572     13.422
REMARK  4 active torsions:
REMARK  status: ('A' for Active; 'I' for Inactive)
REMARK    1  A    between atoms: C_4  and  N_26 
REMARK    2  A    between atoms: C_14  and  N_9 
REMARK    3  A    between atoms: C_15  and  O_25 
REMARK    4  A    between atoms: P_21  and  O_24 
ROOT
HETATM    1  C   UNK N   1      22.910  12.732   7.577  0.00  0.00     0.183 A 
HETATM    2  N   UNK N   1      22.661  12.137   8.792  0.00  0.00    -0.337 N 
ATOM      3  HN  UNK N   1      23.194  11.313   9.066  1.00  0.00     0.168 HD
HETATM    4  C   UNK N   1      21.710  12.636   9.636  0.00  0.00     0.131 A 
HETATM    5  C   UNK N   1      21.006  13.759   9.230  0.00  0.00     0.123 A 
HETATM    6  C   UNK N   1      21.259  14.325   8.027  0.00  0.00     0.144 A 
HETATM    7  N   UNK N   1      22.198  13.834   7.183  0.00  0.00    -0.336 N 
ATOM      8  HN  UNK N   1      22.370  14.274   6.278  1.00  0.00     0.168 HD
HETATM    9  N   UNK N   1      20.417  15.357   7.835  0.00  0.00    -0.277 N 
HETATM   10  C   UNK N   1      19.669  15.394   8.969  0.00  0.00     0.185 A 
HETATM   11  N   UNK N   1      20.014  14.418   9.852  0.00  0.00    -0.326 N 
ATOM     12  HN  UNK N   1      19.613  14.231  10.771  1.00  0.00     0.168 HD
HETATM   13 Cl   UNK N   1      18.376  16.542   9.274  0.00  0.00    -0.044 Cl
ENDROOT
BRANCH   9  14
HETATM   14  C   UNK N   1      20.233  16.221   6.658  0.00  0.00     0.264 C 
HETATM   15  C   UNK N   1      19.333  15.689   5.561  0.00  0.00     0.199 C 
HETATM   16  C   UNK N   1      19.753  16.556   4.395  0.00  0.00     0.197 C 
HETATM   17  C   UNK N   1      20.893  17.364   5.001  0.00  0.00     0.180 C 
HETATM   18  O   UNK N   1      20.270  15.727   3.389  0.00  0.00    -0.286 OA
HETATM   19  O   UNK N   1      21.427  16.585   6.034  0.00  0.00    -0.353 OA
HETATM   20  C   UNK N   1      21.907  17.695   3.920  0.00  0.00     0.215 C 
HETATM   21  O   UNK N   1      21.208  18.111   2.776  0.00  0.00    -0.294 OA
HETATM   22  P   UNK N   1      20.652  16.663   1.934  0.00  0.00     0.393 P 
HETATM   23  O   UNK N   1      19.504  17.713   1.973  0.00  0.00    -0.631 OA
BRANCH  15  24
HETATM   24  O   UNK N   1      17.994  15.912   5.879  0.00  0.00    -0.388 OA
HETATM   25  H   UNK N   1      17.276  16.549   6.012  0.00  0.00     0.210 HD
ENDBRANCH  15  24
BRANCH  22  26
HETATM   26  O   UNK N   1      19.179  16.048   1.256  0.00  0.00    -0.307 OA
HETATM   27  H   UNK N   1      18.442  16.632   1.019  0.00  0.00     0.222 HD
ENDBRANCH  22  26
ENDBRANCH   9  14
BRANCH   4  28
HETATM   28  N   UNK N   1      21.440  12.007  10.868  0.00  0.00    -0.383 N 
HETATM   29  H   UNK N   1      21.178  12.540  11.654  0.00  0.00     0.157 HD
HETATM   30  H   UNK N   1      21.514  11.029  10.944  0.00  0.00     0.157 HD
ENDBRANCH   4  28
TORSDOF 4
ENDMDL
MODEL 9
REMARK VINA RESULT:      -6.3      3.976      5.762
REMARK  4 active torsions:
REMARK  status: ('A' for Active; 'I' for Inactive)
REMARK    1  A    between atoms: C_4  and  N_26 
REMARK    2  A    between atoms: C_14  and  N_9 
REMARK    3  A    between atoms: C_15  and  O_25 
REMARK    4  A    between atoms: P_21  and  O_24 
ROOT
HETATM    1  C   UNK N   1      35.360  12.357   3.820  0.00  0.00     0.183 A 
HETATM    2  N   UNK N   1      35.280  12.563   2.463  0.00  0.00    -0.337 N 
ATOM      3  HN  UNK N   1      35.703  11.889   1.827  1.00  0.00     0.168 HD
HETATM    4  C   UNK N   1      34.640  13.659   1.956  0.00  0.00     0.131 A 
HETATM    5  C   UNK N   1      34.076  14.554   2.851  0.00  0.00     0.123 A 
HETATM    6  C   UNK N   1      34.172  14.338   4.184  0.00  0.00     0.144 A 
HETATM    7  N   UNK N   1      34.808  13.256   4.695  0.00  0.00    -0.336 N 
ATOM      8  HN  UNK N   1      34.872  13.114   5.703  1.00  0.00     0.168 HD
HETATM    9  N   UNK N   1      33.603  15.364   4.843  0.00  0.00    -0.277 N 
HETATM   10  C   UNK N   1      33.152  16.185   3.859  0.00  0.00     0.185 A 
HETATM   11  N   UNK N   1      33.428  15.707   2.615  0.00  0.00    -0.326 N 
ATOM     12  HN  UNK N   1      33.197  16.126   1.715  1.00  0.00     0.168 HD
HETATM   13 Cl   UNK N   1      32.329  17.712   4.133  0.00  0.00    -0.044 Cl
ENDROOT
BRANCH   9  14
HETATM   14  C   UNK N   1      33.536  15.639   6.287  0.00  0.00     0.264 C 
HETATM   15  C   UNK N   1      34.726  16.352   6.898  0.00  0.00     0.199 C 
HETATM   16  C   UNK N   1      34.532  16.038   8.363  0.00  0.00     0.197 C 
HETATM   17  C   UNK N   1      33.322  15.113   8.327  0.00  0.00     0.180 C 
HETATM   18  O   UNK N   1      35.645  15.310   8.812  0.00  0.00    -0.286 OA
HETATM   19  O   UNK N   1      33.326  14.502   7.069  0.00  0.00    -0.353 OA
HETATM   20  C   UNK N   1      33.413  14.118   9.471  0.00  0.00     0.215 C 
HETATM   21  O   UNK N   1      33.801  14.813  10.627  0.00  0.00    -0.294 OA
HETATM   22  P   UNK N   1      35.551  15.028  10.559  0.00  0.00     0.393 P 
HETATM   23  O   UNK N   1      34.884  16.358  11.017  0.00  0.00    -0.631 OA
BRANCH  15  24
HETATM   24  O   UNK N   1      34.637  17.725   6.675  0.00  0.00    -0.388 OA
HETATM   25  H   UNK N   1      34.883  18.621   6.954  0.00  0.00     0.210 HD
ENDBRANCH  15  24
BRANCH  22  26
HETATM   26  O   UNK N   1      36.704  16.311  10.740  0.00  0.00    -0.307 OA
HETATM   27  H   UNK N   1      36.467  17.159  11.148  0.00  0.00     0.222 HD
ENDBRANCH  22  26
ENDBRANCH   9  14
BRANCH   4  28
HETATM   28  N   UNK N   1      34.585  13.880   0.565  0.00  0.00    -0.383 N 
HETATM   29  H   UNK N   1      35.364  13.679  -0.003  0.00  0.00     0.157 HD
HETATM   30  H   UNK N   1      33.764  14.238   0.159  0.00  0.00     0.157 HD
ENDBRANCH   4  28
TORSDOF 4
ENDMDL
