REMARK  7 active torsions:
REMARK  status: ('A' for Active; 'I' for Inactive)
REMARK    1  A    between atoms: C_4  and  C_8 
REMARK    2  A    between atoms: C_11  and  S_14 
REMARK    3  A    between atoms: S_14  and  N_17 
REMARK    4  A    between atoms: C_20  and  C_22 
REMARK    5  A    between atoms: C_23  and  C_24 
REMARK       I    between atoms: C_24  and  N_26 
REMARK    6  A    between atoms: N_26  and  C_27 
REMARK    7  A    between atoms: C_32  and  N_33 
ROOT
HETATM    1  N   UNK N   1       8.181 -13.003   0.259  0.00  0.00    -0.257 N 
HETATM    2  C   UNK N   1       9.374 -12.656  -0.259  0.00  0.00     0.109 A 
HETATM    3  C   UNK N   1       9.765 -13.631  -1.172  0.00  0.00     0.031 A 
HETATM    4  C   UNK N   1       8.742 -14.564  -1.175  0.00  0.00    -0.018 A 
HETATM    5  C   UNK N   1       7.797 -14.152  -0.282  0.00  0.00     0.120 A 
ENDROOT
BRANCH   1   6
HETATM    6  S   UNK N   1       7.174 -12.127   1.402  0.00  0.00     0.268 S 
HETATM    7  O   UNK N   1       6.346 -13.243   2.063  0.00  0.00    -0.200 OA
HETATM    8  O   UNK N   1       8.073 -11.704   2.571  0.00  0.00    -0.200 OA
BRANCH   6   9
HETATM    9  C   UNK N   1       6.060 -10.877   0.786  0.00  0.00     0.080 A 
HETATM   10  C   UNK N   1       6.470  -9.545   0.705  0.00  0.00     0.026 A 
HETATM   11  C   UNK N   1       5.552  -8.555   0.346  0.00  0.00     0.014 A 
HETATM   12  C   UNK N   1       4.219  -8.893   0.068  0.00  0.00    -0.023 A 
HETATM   13  C   UNK N   1       3.824 -10.237   0.114  0.00  0.00     0.014 A 
HETATM   14  C   UNK N   1       4.742 -11.225   0.473  0.00  0.00     0.026 A 
BRANCH  12  15
HETATM   15  C   UNK N   1       3.220  -7.840  -0.170  0.00  0.00     0.008 A 
HETATM   16  C   UNK N   1       3.433  -6.477  -0.130  0.00  0.00     0.123 A 
HETATM   17  N   UNK N   1       2.242  -5.888  -0.315  0.00  0.00    -0.307 N 
HETATM   18  C   UNK N   1       1.999  -4.459  -0.321  0.00  0.00     0.177 C 
HETATM   19  N   UNK N   1       1.294  -6.800  -0.464  0.00  0.00    -0.310 N 
HETATM   20  C   UNK N   1       1.862  -8.018  -0.378  0.00  0.00     0.120 A 
ATOM     21  HN  UNK N   1       0.303  -6.612  -0.618  1.00  0.00     0.186 HD
ENDBRANCH  12  15
ENDBRANCH   6   9
ENDBRANCH   1   6
BRANCH   4  22
HETATM   22  C   UNK N   1       8.665 -15.791  -1.982  0.00  0.00     0.018 C 
HETATM   23  C   UNK N   1       7.660 -16.684  -1.901  0.00  0.00     0.075 C 
BRANCH  23  24
HETATM   24  C   UNK N   1       6.413 -16.529  -1.092  0.00  0.00     0.245 C 
HETATM   25  O   UNK N   1       5.683 -15.566  -1.273  0.00  0.00    -0.268 OA
HETATM   26  N   UNK N   1       6.034 -17.491  -0.216  0.00  0.00    -0.322 N 
HETATM   27  H   UNK N   1       5.145 -17.424   0.202  0.00  0.00     0.169 HD
BRANCH  26  28
HETATM   28  C   UNK N   1       6.865 -18.590   0.122  0.00  0.00     0.061 A 
HETATM   29  C   UNK N   1       8.235 -18.405   0.384  0.00  0.00     0.032 A 
HETATM   30  C   UNK N   1       9.053 -19.501   0.659  0.00  0.00     0.002 A 
HETATM   31  C   UNK N   1       8.511 -20.788   0.665  0.00  0.00     0.002 A 
HETATM   32  C   UNK N   1       7.147 -20.975   0.420  0.00  0.00     0.031 A 
HETATM   33  C   UNK N   1       6.322 -19.877   0.159  0.00  0.00     0.052 A 
BRANCH  33  34
HETATM   34  N   UNK N   1       4.953 -20.078  -0.114  0.00  0.00    -0.397 N 
HETATM   35  H   UNK N   1       4.354 -19.321  -0.305  0.00  0.00     0.156 HD
HETATM   36  H   UNK N   1       4.590 -20.994  -0.114  0.00  0.00     0.156 HD
ENDBRANCH  33  34
ENDBRANCH  26  28
ENDBRANCH  23  24
ENDBRANCH   4  22
TORSDOF 7
