REMARK  7 active torsions:
REMARK  status: ('A' for Active; 'I' for Inactive)
REMARK    1  A    between atoms: N_15  and  C_16 
REMARK    2  A    between atoms: C_25  and  O_38 
REMARK    3  A    between atoms: C_28  and  C_29 
REMARK    4  A    between atoms: C_28  and  O_36 
REMARK    5  A    between atoms: C_29  and  C_31 
REMARK    6  A    between atoms: C_31  and  O_32 
REMARK    7  A    between atoms: O_32  and  C_33 
ROOT
HETATM    1  C   UNK N   1      -0.282  -1.169  -1.670  0.00  0.00     0.013 C 
HETATM    2  C   UNK N   1       1.148  -1.627  -1.436  0.00  0.00     0.025 C 
HETATM    3  C   UNK N   1       2.079  -0.465  -1.111  0.00  0.00     0.014 C 
HETATM    4  C   UNK N   1       3.193  -1.068  -0.240  0.00  0.00     0.006 C 
HETATM    5  C   UNK N   1       4.544  -0.771  -0.915  0.00  0.00     0.021 C 
HETATM    6  C   UNK N   1       5.047   0.610  -0.545  0.00  0.00    -0.014 C 
HETATM    7  C   UNK N   1       6.257   0.822  -0.002  0.00  0.00    -0.058 C 
HETATM    8  C   UNK N   1       7.154  -0.332   0.271  0.00  0.00    -0.041 A 
HETATM    9  C   UNK N   1       8.481  -0.138   0.231  0.00  0.00     0.040 A 
HETATM   10  C   UNK N   1       9.381  -1.284   0.279  0.00  0.00     0.065 A 
HETATM   11  C   UNK N   1       8.942  -2.553   0.416  0.00  0.00    -0.011 A 
HETATM   12  C   UNK N   1      10.055  -3.364   0.313  0.00  0.00     0.117 A 
HETATM   13  N   UNK N   1      11.126  -2.562   0.101  0.00  0.00    -0.304 N 
ATOM     14  HN  UNK N   1      12.088  -2.874  -0.026  1.00  0.00     0.186 HD
HETATM   15  N   UNK N   1      10.710  -1.300   0.085  0.00  0.00    -0.257 N 
HETATM   16  C   UNK N   1       7.518  -2.917   0.581  0.00  0.00     0.057 A 
HETATM   17  C   UNK N   1       6.525  -1.727   0.443  0.00  0.00    -0.006 A 
HETATM   18  C   UNK N   1       5.604  -1.897  -0.790  0.00  0.00     0.035 C 
HETATM   19  C   UNK N   1       5.030  -3.283  -1.208  0.00  0.00     0.124 C 
HETATM   20  C   UNK N   1       3.505  -3.361  -1.244  0.00  0.00     0.045 C 
HETATM   21  C   UNK N   1       2.843  -2.568  -0.101  0.00  0.00     0.001 C 
HETATM   22  C   UNK N   1       1.317  -2.572  -0.249  0.00  0.00     0.131 C 
HETATM   23  C   UNK N   1       3.263  -3.151   1.245  0.00  0.00     0.019 C 
HETATM   24  C   UNK N   1       5.733  -1.702   1.740  0.00  0.00     0.021 C 
HETATM   25  C   UNK N   1       6.732   2.230   0.169  0.00  0.00     0.048 C 
ENDROOT
BRANCH  22  26
HETATM   26  C   UNK N   1       0.742  -3.960  -0.443  0.00  0.00     0.186 C 
HETATM   27  O   UNK N   1       0.207  -4.267  -1.498  0.00  0.00    -0.292 OA
BRANCH  26  28
HETATM   28  C   UNK N   1       0.796  -4.949   0.691  0.00  0.00     0.260 C 
BRANCH  28  29
HETATM   29  O   UNK N   1       0.939  -6.245   0.242  0.00  0.00    -0.314 OA
BRANCH  29  30
HETATM   30  C   UNK N   1      -0.117  -7.005  -0.143  0.00  0.00     0.255 C 
HETATM   31  O   UNK N   1       0.067  -8.166  -0.466  0.00  0.00    -0.266 OA
HETATM   32  C   UNK N   1      -1.509  -6.449  -0.184  0.00  0.00     0.126 C 
ENDBRANCH  29  30
ENDBRANCH  28  29
ENDBRANCH  26  28
ENDBRANCH  22  26
BRANCH  22  33
HETATM   33  O   UNK N   1       0.718  -1.990   0.880  0.00  0.00    -0.381 OA
HETATM   34  H   UNK N   1       0.859  -1.431   1.659  0.00  0.00     0.211 HD
ENDBRANCH  22  33
BRANCH  19  35
HETATM   35  O   UNK N   1       5.557  -4.365  -0.504  0.00  0.00    -0.395 OA
HETATM   36  H   UNK N   1       5.088  -5.059  -0.015  0.00  0.00     0.210 HD
ENDBRANCH  19  35
BRANCH  15  37
HETATM   37  C   UNK N   1      11.567  -0.174  -0.161  0.00  0.00     0.057 A 
HETATM   38  C   UNK N   1      11.114   1.135   0.068  0.00  0.00     0.031 A 
HETATM   39  C   UNK N   1      11.946   2.227  -0.180  0.00  0.00     0.002 A 
HETATM   40  C   UNK N   1      13.233   2.021  -0.679  0.00  0.00     0.000 A 
HETATM   41  C   UNK N   1      13.691   0.723  -0.918  0.00  0.00     0.002 A 
HETATM   42  C   UNK N   1      12.865  -0.373  -0.650  0.00  0.00     0.031 A 
ENDBRANCH  15  37
TORSDOF 7
