MODEL 1
REMARK VINA RESULT:      -6.6      0.000      0.000
REMARK  3 active torsions:
REMARK  status: ('A' for Active; 'I' for Inactive)
REMARK    1  A    between atoms: C_2  and  C_10 
REMARK    2  A    between atoms: C_6  and  N_9 
REMARK    3  A    between atoms: C_12  and  C_18 
ROOT
HETATM    1  C   UNK N   1      35.177  10.705  18.519  0.00  0.00     0.009 A 
HETATM    2  C   UNK N   1      35.411  11.303  17.263  0.00  0.00     0.028 A 
HETATM    3  C   UNK N   1      35.478  12.699  17.105  0.00  0.00     0.016 A 
HETATM    4  C   UNK N   1      35.302  13.516  18.242  0.00  0.00     0.130 A 
HETATM    5  C   UNK N   1      35.049  12.939  19.485  0.00  0.00     0.086 A 
HETATM    6  C   UNK N   1      34.981  11.556  19.637  0.00  0.00     0.128 A 
HETATM    7  F   UNK N   1      34.749  11.073  20.881  0.00  0.00    -0.205 F 
HETATM    8  F   UNK N   1      35.367  14.868  18.164  0.00  0.00    -0.205 F 
ENDROOT
BRANCH   1   9
HETATM    9  C   UNK N   1      35.190   9.174  18.605  0.00  0.00     0.059 C 
HETATM   10  C   UNK N   1      35.443   8.659  17.188  0.00  0.00     0.044 C 
HETATM   11  C   UNK N   1      36.306   8.610  19.514  0.00  0.00     0.046 C 
HETATM   12  C   UNK N   1      36.099   7.176  20.028  0.00  0.00     0.085 C 
HETATM   13  S   UNK N   1      34.924   6.207  19.027  0.00  0.00    -0.095 SA
HETATM   14  C   UNK N   1      33.642   7.449  19.272  0.00  0.00     0.134 C 
HETATM   15  N   UNK N   1      33.892   8.702  19.075  0.00  0.00    -0.358 N 
ATOM     16  HN  UNK N   1      33.156   9.385  19.254  1.00  0.00     0.162 HD
BRANCH  14  17
HETATM   17  N   UNK N   1      32.369   7.050  19.730  0.00  0.00    -0.380 N 
HETATM   18  H   UNK N   1      31.927   6.822  20.581  0.00  0.00     0.158 HD
HETATM   19  H   UNK N   1      31.735   6.979  18.979  0.00  0.00     0.158 HD
ENDBRANCH  14  17
ENDBRANCH   1   9
BRANCH   3  20
HETATM   20  C   UNK N   1      35.746  13.274  15.752  0.00  0.00     0.008 A 
HETATM   21  C   UNK N   1      35.014  12.851  14.636  0.00  0.00     0.102 A 
HETATM   22  N   UNK N   1      35.265  13.380  13.410  0.00  0.00    -0.361 N 
HETATM   23  C   UNK N   1      36.231  14.320  13.241  0.00  0.00     0.180 A 
ATOM     24  HN  UNK N   1      34.720  13.070  12.606  1.00  0.00     0.166 HD
HETATM   25  N   UNK N   1      36.960  14.746  14.305  0.00  0.00    -0.361 N 
HETATM   26  C   UNK N   1      36.734  14.246  15.547  0.00  0.00     0.102 A 
ATOM     27  HN  UNK N   1      37.686  15.450  14.169  1.00  0.00     0.166 HD
ENDBRANCH   3  20
TORSDOF 3
ENDMDL
MODEL 2
REMARK VINA RESULT:      -6.5      2.852      6.125
REMARK  3 active torsions:
REMARK  status: ('A' for Active; 'I' for Inactive)
REMARK    1  A    between atoms: C_2  and  C_10 
REMARK    2  A    between atoms: C_6  and  N_9 
REMARK    3  A    between atoms: C_12  and  C_18 
ROOT
HETATM    1  C   UNK N   1      35.215  11.390  16.108  0.00  0.00     0.009 A 
HETATM    2  C   UNK N   1      35.342  10.745  17.355  0.00  0.00     0.028 A 
HETATM    3  C   UNK N   1      35.297  11.455  18.568  0.00  0.00     0.016 A 
HETATM    4  C   UNK N   1      35.120  12.855  18.524  0.00  0.00     0.130 A 
HETATM    5  C   UNK N   1      35.015  13.508  17.298  0.00  0.00     0.086 A 
HETATM    6  C   UNK N   1      35.063  12.801  16.098  0.00  0.00     0.128 A 
HETATM    7  F   UNK N   1      34.935  13.506  14.949  0.00  0.00    -0.205 F 
HETATM    8  F   UNK N   1      35.055  13.600  19.655  0.00  0.00    -0.205 F 
ENDROOT
BRANCH   1   9
HETATM    9  C   UNK N   1      35.208  10.525  14.842  0.00  0.00     0.059 C 
HETATM   10  C   UNK N   1      35.398   9.079  15.301  0.00  0.00     0.044 C 
HETATM   11  C   UNK N   1      33.883  10.593  14.048  0.00  0.00     0.046 C 
HETATM   12  C   UNK N   1      33.956  10.163  12.573  0.00  0.00     0.085 C 
HETATM   13  S   UNK N   1      35.396   9.111  12.193  0.00  0.00    -0.095 SA
HETATM   14  C   UNK N   1      36.521  10.367  12.825  0.00  0.00     0.134 C 
HETATM   15  N   UNK N   1      36.316  10.915  13.978  0.00  0.00    -0.358 N 
ATOM     16  HN  UNK N   1      36.952  11.647  14.295  1.00  0.00     0.162 HD
BRANCH  14  17
HETATM   17  N   UNK N   1      37.608  10.788  12.030  0.00  0.00    -0.380 N 
HETATM   18  H   UNK N   1      38.591  10.713  12.022  0.00  0.00     0.158 HD
HETATM   19  H   UNK N   1      37.292  11.309  11.256  0.00  0.00     0.158 HD
ENDBRANCH  14  17
ENDBRANCH   1   9
BRANCH   3  20
HETATM   20  C   UNK N   1      35.420  10.715  19.859  0.00  0.00     0.008 A 
HETATM   21  C   UNK N   1      34.369   9.921  20.333  0.00  0.00     0.102 A 
HETATM   22  N   UNK N   1      34.491   9.251  21.510  0.00  0.00    -0.361 N 
HETATM   23  C   UNK N   1      35.627   9.343  22.249  0.00  0.00     0.180 A 
ATOM     24  HN  UNK N   1      33.721   8.670  21.841  1.00  0.00     0.166 HD
HETATM   25  N   UNK N   1      36.661  10.109  21.816  0.00  0.00    -0.361 N 
HETATM   26  C   UNK N   1      36.580  10.787  20.643  0.00  0.00     0.102 A 
ATOM     27  HN  UNK N   1      37.509  10.175  22.379  1.00  0.00     0.166 HD
ENDBRANCH   3  20
TORSDOF 3
ENDMDL
MODEL 3
REMARK VINA RESULT:      -6.4     16.520     19.542
REMARK  3 active torsions:
REMARK  status: ('A' for Active; 'I' for Inactive)
REMARK    1  A    between atoms: C_2  and  C_10 
REMARK    2  A    between atoms: C_6  and  N_9 
REMARK    3  A    between atoms: C_12  and  C_18 
ROOT
HETATM    1  C   UNK N   1      24.637  19.174   4.274  0.00  0.00     0.009 A 
HETATM    2  C   UNK N   1      23.540  18.369   4.644  0.00  0.00     0.028 A 
HETATM    3  C   UNK N   1      22.253  18.574   4.112  0.00  0.00     0.016 A 
HETATM    4  C   UNK N   1      22.067  19.620   3.183  0.00  0.00     0.130 A 
HETATM    5  C   UNK N   1      23.138  20.437   2.826  0.00  0.00     0.086 A 
HETATM    6  C   UNK N   1      24.409  20.232   3.357  0.00  0.00     0.128 A 
HETATM    7  F   UNK N   1      25.401  21.058   2.946  0.00  0.00    -0.205 F 
HETATM    8  F   UNK N   1      20.857  19.866   2.622  0.00  0.00    -0.205 F 
ENDROOT
BRANCH   1   9
HETATM    9  C   UNK N   1      26.014  18.832   4.855  0.00  0.00     0.059 C 
HETATM   10  C   UNK N   1      26.921  18.509   3.667  0.00  0.00     0.044 C 
HETATM   11  C   UNK N   1      26.667  19.995   5.638  0.00  0.00     0.046 C 
HETATM   12  C   UNK N   1      27.777  19.604   6.627  0.00  0.00     0.085 C 
HETATM   13  S   UNK N   1      28.525  17.979   6.275  0.00  0.00    -0.095 SA
HETATM   14  C   UNK N   1      26.913  17.181   6.366  0.00  0.00     0.134 C 
HETATM   15  N   UNK N   1      25.902  17.662   5.719  0.00  0.00    -0.358 N 
ATOM     16  HN  UNK N   1      24.994  17.208   5.817  1.00  0.00     0.162 HD
BRANCH  14  17
HETATM   17  N   UNK N   1      26.745  16.049   7.191  0.00  0.00    -0.380 N 
HETATM   18  H   UNK N   1      26.615  15.077   7.095  0.00  0.00     0.158 HD
HETATM   19  H   UNK N   1      26.763  16.305   8.142  0.00  0.00     0.158 HD
ENDBRANCH  14  17
ENDBRANCH   1   9
BRANCH   3  20
HETATM   20  C   UNK N   1      21.134  17.678   4.528  0.00  0.00     0.008 A 
HETATM   21  C   UNK N   1      20.991  17.283   5.864  0.00  0.00     0.102 A 
HETATM   22  N   UNK N   1      19.968  16.467   6.233  0.00  0.00    -0.361 N 
HETATM   23  C   UNK N   1      19.073  16.014   5.317  0.00  0.00     0.180 A 
ATOM     24  HN  UNK N   1      19.870  16.192   7.210  1.00  0.00     0.166 HD
HETATM   25  N   UNK N   1      19.189  16.377   4.013  0.00  0.00    -0.361 N 
HETATM   26  C   UNK N   1      20.193  17.196   3.608  0.00  0.00     0.102 A 
ATOM     27  HN  UNK N   1      18.515  16.030   3.332  1.00  0.00     0.166 HD
ENDBRANCH   3  20
TORSDOF 3
ENDMDL
MODEL 4
REMARK VINA RESULT:      -6.4     10.728     14.000
REMARK  3 active torsions:
REMARK  status: ('A' for Active; 'I' for Inactive)
REMARK    1  A    between atoms: C_2  and  C_10 
REMARK    2  A    between atoms: C_6  and  N_9 
REMARK    3  A    between atoms: C_12  and  C_18 
ROOT
HETATM    1  C   UNK N   1      32.035  16.761   6.140  0.00  0.00     0.009 A 
HETATM    2  C   UNK N   1      30.740  16.289   6.439  0.00  0.00     0.028 A 
HETATM    3  C   UNK N   1      29.671  16.426   5.535  0.00  0.00     0.016 A 
HETATM    4  C   UNK N   1      29.913  17.056   4.296  0.00  0.00     0.130 A 
HETATM    5  C   UNK N   1      31.182  17.546   3.996  0.00  0.00     0.086 A 
HETATM    6  C   UNK N   1      32.238  17.411   4.895  0.00  0.00     0.128 A 
HETATM    7  F   UNK N   1      33.445  17.897   4.522  0.00  0.00    -0.205 F 
HETATM    8  F   UNK N   1      28.931  17.210   3.372  0.00  0.00    -0.205 F 
ENDROOT
BRANCH   1   9
HETATM    9  C   UNK N   1      33.152  16.506   7.159  0.00  0.00     0.059 C 
HETATM   10  C   UNK N   1      34.143  15.552   6.491  0.00  0.00     0.044 C 
HETATM   11  C   UNK N   1      33.929  17.781   7.563  0.00  0.00     0.046 C 
HETATM   12  C   UNK N   1      34.708  17.706   8.887  0.00  0.00     0.085 C 
HETATM   13  S   UNK N   1      35.065  16.002   9.426  0.00  0.00    -0.095 SA
HETATM   14  C   UNK N   1      33.313  15.587   9.383  0.00  0.00     0.134 C 
HETATM   15  N   UNK N   1      32.591  15.878   8.350  0.00  0.00    -0.358 N 
ATOM     16  HN  UNK N   1      31.595  15.660   8.368  1.00  0.00     0.162 HD
BRANCH  14  17
HETATM   17  N   UNK N   1      32.715  14.982  10.509  0.00  0.00    -0.380 N 
HETATM   18  H   UNK N   1      31.837  14.952  10.953  0.00  0.00     0.158 HD
HETATM   19  H   UNK N   1      33.369  14.425  10.993  0.00  0.00     0.158 HD
ENDBRANCH  14  17
ENDBRANCH   1   9
BRANCH   3  20
HETATM   20  C   UNK N   1      28.325  15.891   5.901  0.00  0.00     0.008 A 
HETATM   21  C   UNK N   1      27.846  14.705   5.331  0.00  0.00     0.102 A 
HETATM   22  N   UNK N   1      26.620  14.227   5.671  0.00  0.00    -0.361 N 
HETATM   23  C   UNK N   1      25.836  14.890   6.560  0.00  0.00     0.180 A 
ATOM     24  HN  UNK N   1      26.284  13.359   5.254  1.00  0.00     0.166 HD
HETATM   25  N   UNK N   1      26.272  16.045   7.125  0.00  0.00    -0.361 N 
HETATM   26  C   UNK N   1      27.494  16.550   6.816  0.00  0.00     0.102 A 
ATOM     27  HN  UNK N   1      25.676  16.538   7.789  1.00  0.00     0.166 HD
ENDBRANCH   3  20
TORSDOF 3
ENDMDL
MODEL 5
REMARK VINA RESULT:      -6.3     10.039     14.148
REMARK  3 active torsions:
REMARK  status: ('A' for Active; 'I' for Inactive)
REMARK    1  A    between atoms: C_2  and  C_10 
REMARK    2  A    between atoms: C_6  and  N_9 
REMARK    3  A    between atoms: C_12  and  C_18 
ROOT
HETATM    1  C   UNK N   1      31.188  16.812   5.941  0.00  0.00     0.009 A 
HETATM    2  C   UNK N   1      31.756  16.550   7.205  0.00  0.00     0.028 A 
HETATM    3  C   UNK N   1      33.132  16.309   7.367  0.00  0.00     0.016 A 
HETATM    4  C   UNK N   1      33.959  16.329   6.223  0.00  0.00     0.130 A 
HETATM    5  C   UNK N   1      33.408  16.564   4.965  0.00  0.00     0.086 A 
HETATM    6  C   UNK N   1      32.044  16.801   4.809  0.00  0.00     0.128 A 
HETATM    7  F   UNK N   1      31.588  17.039   3.556  0.00  0.00    -0.205 F 
HETATM    8  F   UNK N   1      35.296  16.116   6.308  0.00  0.00    -0.205 F 
ENDROOT
BRANCH   1   9
HETATM    9  C   UNK N   1      29.690  17.131   5.872  0.00  0.00     0.059 C 
HETATM   10  C   UNK N   1      28.999  15.871   5.350  0.00  0.00     0.044 C 
HETATM   11  C   UNK N   1      29.062  17.474   7.243  0.00  0.00     0.046 C 
HETATM   12  C   UNK N   1      27.736  18.250   7.204  0.00  0.00     0.085 C 
HETATM   13  S   UNK N   1      26.856  18.107   5.614  0.00  0.00    -0.095 SA
HETATM   14  C   UNK N   1      28.294  18.728   4.725  0.00  0.00     0.134 C 
HETATM   15  N   UNK N   1      29.468  18.234   4.944  0.00  0.00    -0.358 N 
ATOM     16  HN  UNK N   1      30.268  18.629   4.450  1.00  0.00     0.162 HD
BRANCH  14  17
HETATM   17  N   UNK N   1      28.139  19.798   3.818  0.00  0.00    -0.380 N 
HETATM   18  H   UNK N   1      27.641  20.002   2.993  0.00  0.00     0.158 HD
HETATM   19  H   UNK N   1      28.693  20.567   4.089  0.00  0.00     0.158 HD
ENDBRANCH  14  17
ENDBRANCH   1   9
BRANCH   3  20
HETATM   20  C   UNK N   1      33.679  16.055   8.733  0.00  0.00     0.008 A 
HETATM   21  C   UNK N   1      33.404  14.857   9.404  0.00  0.00     0.102 A 
HETATM   22  N   UNK N   1      33.907  14.635  10.647  0.00  0.00    -0.361 N 
HETATM   23  C   UNK N   1      34.675  15.570  11.265  0.00  0.00     0.180 A 
ATOM     24  HN  UNK N   1      33.706  13.756  11.123  1.00  0.00     0.166 HD
HETATM   25  N   UNK N   1      34.954  16.743  10.640  0.00  0.00    -0.361 N 
HETATM   26  C   UNK N   1      34.476  16.998   9.395  0.00  0.00     0.102 A 
ATOM     27  HN  UNK N   1      35.529  17.441  11.112  1.00  0.00     0.166 HD
ENDBRANCH   3  20
TORSDOF 3
ENDMDL
MODEL 6
REMARK VINA RESULT:      -6.3     10.285     13.760
REMARK  3 active torsions:
REMARK  status: ('A' for Active; 'I' for Inactive)
REMARK    1  A    between atoms: C_2  and  C_10 
REMARK    2  A    between atoms: C_6  and  N_9 
REMARK    3  A    between atoms: C_12  and  C_18 
ROOT
HETATM    1  C   UNK N   1      30.781  17.142   7.593  0.00  0.00     0.009 A 
HETATM    2  C   UNK N   1      30.121  16.486   6.534  0.00  0.00     0.028 A 
HETATM    3  C   UNK N   1      28.815  16.834   6.141  0.00  0.00     0.016 A 
HETATM    4  C   UNK N   1      28.156  17.870   6.837  0.00  0.00     0.130 A 
HETATM    5  C   UNK N   1      28.789  18.512   7.900  0.00  0.00     0.086 A 
HETATM    6  C   UNK N   1      30.080  18.162   8.286  0.00  0.00     0.128 A 
HETATM    7  F   UNK N   1      30.633  18.845   9.317  0.00  0.00    -0.205 F 
HETATM    8  F   UNK N   1      26.903  18.265   6.503  0.00  0.00    -0.205 F 
ENDROOT
BRANCH   1   9
HETATM    9  C   UNK N   1      32.228  16.739   7.904  0.00  0.00     0.059 C 
HETATM   10  C   UNK N   1      32.678  15.818   6.770  0.00  0.00     0.044 C 
HETATM   11  C   UNK N   1      33.209  17.933   7.954  0.00  0.00     0.046 C 
HETATM   12  C   UNK N   1      34.527  17.693   8.708  0.00  0.00     0.085 C 
HETATM   13  S   UNK N   1      34.955  15.930   8.882  0.00  0.00    -0.095 SA
HETATM   14  C   UNK N   1      33.379  15.594   9.687  0.00  0.00     0.134 C 
HETATM   15  N   UNK N   1      32.272  16.017   9.170  0.00  0.00    -0.358 N 
ATOM     16  HN  UNK N   1      31.398  15.840   9.666  1.00  0.00     0.162 HD
BRANCH  14  17
HETATM   17  N   UNK N   1      33.361  14.903  10.917  0.00  0.00    -0.380 N 
HETATM   18  H   UNK N   1      33.952  14.758  11.692  0.00  0.00     0.158 HD
HETATM   19  H   UNK N   1      32.507  14.426  11.036  0.00  0.00     0.158 HD
ENDBRANCH  14  17
ENDBRANCH   1   9
BRANCH   3  20
HETATM   20  C   UNK N   1      28.174  16.115   5.000  0.00  0.00     0.008 A 
HETATM   21  C   UNK N   1      28.344  16.562   3.684  0.00  0.00     0.102 A 
HETATM   22  N   UNK N   1      27.756  15.901   2.653  0.00  0.00    -0.361 N 
HETATM   23  C   UNK N   1      26.989  14.803   2.877  0.00  0.00     0.180 A 
ATOM     24  HN  UNK N   1      27.893  16.231   1.698  1.00  0.00     0.166 HD
HETATM   25  N   UNK N   1      26.802  14.349   4.143  0.00  0.00    -0.361 N 
HETATM   26  C   UNK N   1      27.379  14.978   5.199  0.00  0.00     0.102 A 
ATOM     27  HN  UNK N   1      26.221  13.525   4.303  1.00  0.00     0.166 HD
ENDBRANCH   3  20
TORSDOF 3
ENDMDL
MODEL 7
REMARK VINA RESULT:      -6.2     15.778     18.730
REMARK  3 active torsions:
REMARK  status: ('A' for Active; 'I' for Inactive)
REMARK    1  A    between atoms: C_2  and  C_10 
REMARK    2  A    between atoms: C_6  and  N_9 
REMARK    3  A    between atoms: C_12  and  C_18 
ROOT
HETATM    1  C   UNK N   1      26.227  18.601   4.346  0.00  0.00     0.009 A 
HETATM    2  C   UNK N   1      24.983  18.017   4.664  0.00  0.00     0.028 A 
HETATM    3  C   UNK N   1      23.767  18.567   4.218  0.00  0.00     0.016 A 
HETATM    4  C   UNK N   1      23.805  19.738   3.431  0.00  0.00     0.130 A 
HETATM    5  C   UNK N   1      25.026  20.338   3.128  0.00  0.00     0.086 A 
HETATM    6  C   UNK N   1      26.227  19.792   3.574  0.00  0.00     0.128 A 
HETATM    7  F   UNK N   1      27.372  20.424   3.221  0.00  0.00    -0.205 F 
HETATM    8  F   UNK N   1      22.672  20.314   2.958  0.00  0.00    -0.205 F 
ENDROOT
BRANCH   1   9
HETATM    9  C   UNK N   1      27.502  17.893   4.819  0.00  0.00     0.059 C 
HETATM   10  C   UNK N   1      28.192  18.844   5.797  0.00  0.00     0.044 C 
HETATM   11  C   UNK N   1      27.235  16.566   5.568  0.00  0.00     0.046 C 
HETATM   12  C   UNK N   1      28.417  15.585   5.645  0.00  0.00     0.085 C 
HETATM   13  S   UNK N   1      30.038  16.378   5.386  0.00  0.00    -0.095 SA
HETATM   14  C   UNK N   1      29.503  17.024   3.792  0.00  0.00     0.134 C 
HETATM   15  N   UNK N   1      28.374  17.643   3.678  0.00  0.00    -0.358 N 
ATOM     16  HN  UNK N   1      28.082  17.969   2.756  1.00  0.00     0.162 HD
BRANCH  14  17
HETATM   17  N   UNK N   1      30.305  16.808   2.651  0.00  0.00    -0.380 N 
HETATM   18  H   UNK N   1      30.850  17.333   2.021  0.00  0.00     0.158 HD
HETATM   19  H   UNK N   1      30.325  15.852   2.416  0.00  0.00     0.158 HD
ENDBRANCH  14  17
ENDBRANCH   1   9
BRANCH   3  20
HETATM   20  C   UNK N   1      22.482  17.894   4.572  0.00  0.00     0.008 A 
HETATM   21  C   UNK N   1      21.736  17.216   3.600  0.00  0.00     0.102 A 
HETATM   22  N   UNK N   1      20.567  16.607   3.933  0.00  0.00    -0.361 N 
HETATM   23  C   UNK N   1      20.098  16.649   5.207  0.00  0.00     0.180 A 
ATOM     24  HN  UNK N   1      20.036  16.110   3.218  1.00  0.00     0.166 HD
HETATM   25  N   UNK N   1      20.798  17.303   6.170  0.00  0.00    -0.361 N 
HETATM   26  C   UNK N   1      21.973  17.918   5.878  0.00  0.00     0.102 A 
ATOM     27  HN  UNK N   1      20.437  17.333   7.123  1.00  0.00     0.166 HD
ENDBRANCH   3  20
TORSDOF 3
ENDMDL
MODEL 8
REMARK VINA RESULT:      -6.2     12.831     14.965
REMARK  3 active torsions:
REMARK  status: ('A' for Active; 'I' for Inactive)
REMARK    1  A    between atoms: C_2  and  C_10 
REMARK    2  A    between atoms: C_6  and  N_9 
REMARK    3  A    between atoms: C_12  and  C_18 
ROOT
HETATM    1  C   UNK N   1      30.873  17.204   6.790  0.00  0.00     0.009 A 
HETATM    2  C   UNK N   1      29.857  17.570   5.882  0.00  0.00     0.028 A 
HETATM    3  C   UNK N   1      28.718  18.288   6.290  0.00  0.00     0.016 A 
HETATM    4  C   UNK N   1      28.597  18.644   7.650  0.00  0.00     0.130 A 
HETATM    5  C   UNK N   1      29.582  18.270   8.562  0.00  0.00     0.086 A 
HETATM    6  C   UNK N   1      30.708  17.558   8.154  0.00  0.00     0.128 A 
HETATM    7  F   UNK N   1      31.629  17.247   9.097  0.00  0.00    -0.205 F 
HETATM    8  F   UNK N   1      27.532  19.346   8.110  0.00  0.00    -0.205 F 
ENDROOT
BRANCH   1   9
HETATM    9  C   UNK N   1      32.110  16.483   6.240  0.00  0.00     0.059 C 
HETATM   10  C   UNK N   1      33.323  17.306   6.674  0.00  0.00     0.044 C 
HETATM   11  C   UNK N   1      32.293  15.051   6.794  0.00  0.00     0.046 C 
HETATM   12  C   UNK N   1      33.189  14.116   5.965  0.00  0.00     0.085 C 
HETATM   13  S   UNK N   1      34.325  15.000   4.847  0.00  0.00    -0.095 SA
HETATM   14  C   UNK N   1      32.944  15.854   4.067  0.00  0.00     0.134 C 
HETATM   15  N   UNK N   1      32.042  16.439   4.784  0.00  0.00    -0.358 N 
ATOM     16  HN  UNK N   1      31.254  16.886   4.315  1.00  0.00     0.162 HD
BRANCH  14  17
HETATM   17  N   UNK N   1      32.825  15.840   2.661  0.00  0.00    -0.380 N 
HETATM   18  H   UNK N   1      33.205  16.308   1.882  0.00  0.00     0.158 HD
HETATM   19  H   UNK N   1      32.168  15.164   2.374  0.00  0.00     0.158 HD
ENDBRANCH  14  17
ENDBRANCH   1   9
BRANCH   3  20
HETATM   20  C   UNK N   1      27.684  18.663   5.280  0.00  0.00     0.008 A 
HETATM   21  C   UNK N   1      27.805  19.842   4.534  0.00  0.00     0.102 A 
HETATM   22  N   UNK N   1      26.858  20.174   3.617  0.00  0.00    -0.361 N 
HETATM   23  C   UNK N   1      25.778  19.377   3.411  0.00  0.00     0.180 A 
ATOM     24  HN  UNK N   1      26.960  21.031   3.075  1.00  0.00     0.166 HD
HETATM   25  N   UNK N   1      25.632  18.229   4.123  0.00  0.00    -0.361 N 
HETATM   26  C   UNK N   1      26.560  17.860   5.043  0.00  0.00     0.102 A 
ATOM     27  HN  UNK N   1      24.816  17.638   3.965  1.00  0.00     0.166 HD
ENDBRANCH   3  20
TORSDOF 3
ENDMDL
MODEL 9
REMARK VINA RESULT:      -6.1     11.183     14.322
REMARK  3 active torsions:
REMARK  status: ('A' for Active; 'I' for Inactive)
REMARK    1  A    between atoms: C_2  and  C_10 
REMARK    2  A    between atoms: C_6  and  N_9 
REMARK    3  A    between atoms: C_12  and  C_18 
ROOT
HETATM    1  C   UNK N   1      29.177  17.212   6.105  0.00  0.00     0.009 A 
HETATM    2  C   UNK N   1      30.472  17.044   6.635  0.00  0.00     0.028 A 
HETATM    3  C   UNK N   1      30.841  17.580   7.883  0.00  0.00     0.016 A 
HETATM    4  C   UNK N   1      29.878  18.307   8.615  0.00  0.00     0.130 A 
HETATM    5  C   UNK N   1      28.601  18.499   8.093  0.00  0.00     0.086 A 
HETATM    6  C   UNK N   1      28.241  17.969   6.856  0.00  0.00     0.128 A 
HETATM    7  F   UNK N   1      26.974  18.184   6.426  0.00  0.00    -0.205 F 
HETATM    8  F   UNK N   1      30.161  18.840   9.829  0.00  0.00    -0.205 F 
ENDROOT
BRANCH   1   9
HETATM    9  C   UNK N   1      28.848  16.534   4.769  0.00  0.00     0.059 C 
HETATM   10  C   UNK N   1      28.294  17.624   3.851  0.00  0.00     0.044 C 
HETATM   11  C   UNK N   1      30.077  15.912   4.067  0.00  0.00     0.046 C 
HETATM   12  C   UNK N   1      29.778  14.834   3.012  0.00  0.00     0.085 C 
HETATM   13  S   UNK N   1      28.078  14.906   2.360  0.00  0.00    -0.095 SA
HETATM   14  C   UNK N   1      27.400  14.757   4.021  0.00  0.00     0.134 C 
HETATM   15  N   UNK N   1      27.834  15.508   4.980  0.00  0.00    -0.358 N 
ATOM     16  HN  UNK N   1      27.454  15.378   5.918  1.00  0.00     0.162 HD
BRANCH  14  17
HETATM   17  N   UNK N   1      26.419  13.777   4.285  0.00  0.00    -0.380 N 
HETATM   18  H   UNK N   1      26.373  12.829   4.546  0.00  0.00     0.158 HD
HETATM   19  H   UNK N   1      25.514  14.152   4.176  0.00  0.00     0.158 HD
ENDBRANCH  14  17
ENDBRANCH   1   9
BRANCH   3  20
HETATM   20  C   UNK N   1      32.224  17.354   8.401  0.00  0.00     0.008 A 
HETATM   21  C   UNK N   1      32.530  16.212   9.151  0.00  0.00     0.102 A 
HETATM   22  N   UNK N   1      33.792  16.016   9.618  0.00  0.00    -0.361 N 
HETATM   23  C   UNK N   1      34.773  16.923   9.374  0.00  0.00     0.180 A 
ATOM     24  HN  UNK N   1      34.005  15.178  10.157  1.00  0.00     0.166 HD
HETATM   25  N   UNK N   1      34.504  18.042   8.654  0.00  0.00    -0.361 N 
HETATM   26  C   UNK N   1      33.258  18.270   8.164  0.00  0.00     0.102 A 
ATOM     27  HN  UNK N   1      35.246  18.720   8.478  1.00  0.00     0.166 HD
ENDBRANCH   3  20
TORSDOF 3
ENDMDL
