MODEL 1
REMARK VINA RESULT:      -6.7      0.000      0.000
REMARK  11 active torsions:
REMARK  status: ('A' for Active; 'I' for Inactive)
REMARK    1  A    between atoms: C_2  and  C_4 
REMARK    2  A    between atoms: C_2  and  N_35 
REMARK       I    between atoms: C_4  and  N_6 
REMARK    3  A    between atoms: C_7  and  N_6 
REMARK    4  A    between atoms: C_7  and  C_8 
REMARK    5  A    between atoms: C_7  and  C_18 
REMARK    6  A    between atoms: C_8  and  C_9 
REMARK       I    between atoms: C_18  and  N_20 
REMARK    7  A    between atoms: C_21  and  N_20 
REMARK    8  A    between atoms: C_21  and  C_22 
REMARK    9  A    between atoms: C_21  and  N_32 
REMARK   10  A    between atoms: C_22  and  C_23 
REMARK   11  A    between atoms: N_32  and  C_33 
ROOT
HETATM    1  C   UNK N   1      36.490  14.126  11.057  0.00  0.00     0.181 C 
ENDROOT
BRANCH   1   2
HETATM    2  N   UNK N   1      36.877  14.027  12.454  0.00  0.00    -0.345 N 
HETATM    3  C   UNK N   1      36.048  13.666  13.469  0.00  0.00     0.245 C 
HETATM    4  O   UNK N   1      34.881  13.376  13.244  0.00  0.00    -0.271 OA
HETATM    5  H   UNK N   1      37.812  14.238  12.683  0.00  0.00     0.163 HD
BRANCH   3   6
HETATM    6  C   UNK N   1      36.567  13.615  14.884  0.00  0.00     0.098 C 
HETATM    7  C   UNK N   1      35.455  13.197  15.828  0.00  0.00     0.048 C 
HETATM    8  C   UNK N   1      37.070  14.988  15.288  0.00  0.00     0.048 C 
BRANCH   6   9
HETATM    9  N   UNK N   1      37.660  12.663  15.001  0.00  0.00    -0.415 N 
HETATM   10  H   UNK N   1      37.972  12.090  15.786  0.00  0.00     0.151 HD
HETATM   11  H   UNK N   1      38.211  12.548  14.151  0.00  0.00     0.151 HD
ENDBRANCH   6   9
ENDBRANCH   3   6
ENDBRANCH   1   2
BRANCH   1  12
HETATM   12  C   UNK N   1      36.024  15.552  10.739  0.00  0.00     0.075 C 
BRANCH  12  13
HETATM   13  C   UNK N   1      34.627  15.565  10.204  0.00  0.00    -0.028 A 
HETATM   14  C   UNK N   1      33.592  14.705  10.566  0.00  0.00     0.096 A 
HETATM   15  N   UNK N   1      32.454  15.074   9.932  0.00  0.00    -0.365 N 
HETATM   16  C   UNK N   1      32.774  16.154   9.188  0.00  0.00     0.042 A 
HETATM   17  H   UNK N   1      31.572  14.643  10.000  0.00  0.00     0.165 HD
HETATM   18  C   UNK N   1      34.094  16.468   9.331  0.00  0.00    -0.002 A 
HETATM   19  C   UNK N   1      31.920  16.901   8.390  0.00  0.00     0.030 A 
HETATM   20  C   UNK N   1      34.665  17.560   8.678  0.00  0.00     0.014 A 
HETATM   21  C   UNK N   1      33.832  18.338   7.857  0.00  0.00     0.001 A 
HETATM   22  C   UNK N   1      32.463  18.012   7.714  0.00  0.00     0.002 A 
ENDBRANCH  12  13
ENDBRANCH   1  12
BRANCH   1  23
HETATM   23  C   UNK N   1      37.605  13.680  10.136  0.00  0.00     0.242 C 
HETATM   24  O   UNK N   1      38.550  14.426   9.930  0.00  0.00    -0.271 OA
HETATM   25  N   UNK N   1      37.609  12.444   9.567  0.00  0.00    -0.338 N 
HETATM   26  H   UNK N   1      38.404  12.197   9.041  0.00  0.00     0.164 HD
BRANCH  25  27
HETATM   27  C   UNK N   1      36.549  11.456   9.664  0.00  0.00     0.190 C 
BRANCH  27  28
HETATM   28  C   UNK N   1      36.048  10.980   8.306  0.00  0.00     0.087 C 
BRANCH  28  29
HETATM   29  C   UNK N   1      34.911  11.805   7.824  0.00  0.00    -0.027 A 
HETATM   30  C   UNK N   1      33.553  11.572   8.016  0.00  0.00     0.096 A 
HETATM   31  N   UNK N   1      32.839  12.568   7.433  0.00  0.00    -0.365 N 
HETATM   32  C   UNK N   1      33.742  13.401   6.884  0.00  0.00     0.042 A 
HETATM   33  H   UNK N   1      31.859  12.661   7.415  0.00  0.00     0.165 HD
HETATM   34  C   UNK N   1      35.014  12.960   7.102  0.00  0.00    -0.002 A 
HETATM   35  C   UNK N   1      33.484  14.573   6.181  0.00  0.00     0.030 A 
HETATM   36  C   UNK N   1      36.129  13.649   6.632  0.00  0.00     0.014 A 
HETATM   37  C   UNK N   1      35.905  14.837   5.914  0.00  0.00     0.001 A 
HETATM   38  C   UNK N   1      34.588  15.299   5.691  0.00  0.00     0.002 A 
ENDBRANCH  28  29
ENDBRANCH  27  28
BRANCH  27  39
HETATM   39  N   UNK N   1      36.964  10.344  10.476  0.00  0.00    -0.347 N 
HETATM   40  H   UNK N   1      37.291   9.516  10.056  0.00  0.00     0.163 HD
BRANCH  39  41
HETATM   41  C   UNK N   1      36.898  10.445  11.819  0.00  0.00     0.350 C 
HETATM   42  O   UNK N   1      37.803  10.977  12.438  0.00  0.00    -0.284 OA
ENDBRANCH  39  41
ENDBRANCH  27  39
ENDBRANCH  25  27
ENDBRANCH   1  23
TORSDOF 11
ENDMDL
MODEL 2
REMARK VINA RESULT:      -6.6     11.248     15.156
REMARK  11 active torsions:
REMARK  status: ('A' for Active; 'I' for Inactive)
REMARK    1  A    between atoms: C_2  and  C_4 
REMARK    2  A    between atoms: C_2  and  N_35 
REMARK       I    between atoms: C_4  and  N_6 
REMARK    3  A    between atoms: C_7  and  N_6 
REMARK    4  A    between atoms: C_7  and  C_8 
REMARK    5  A    between atoms: C_7  and  C_18 
REMARK    6  A    between atoms: C_8  and  C_9 
REMARK       I    between atoms: C_18  and  N_20 
REMARK    7  A    between atoms: C_21  and  N_20 
REMARK    8  A    between atoms: C_21  and  C_22 
REMARK    9  A    between atoms: C_21  and  N_32 
REMARK   10  A    between atoms: C_22  and  C_23 
REMARK   11  A    between atoms: N_32  and  C_33 
ROOT
HETATM    1  C   UNK N   1      21.984  17.610   5.192  0.00  0.00     0.181 C 
ENDROOT
BRANCH   1   2
HETATM    2  N   UNK N   1      21.177  18.121   4.096  0.00  0.00    -0.345 N 
HETATM    3  C   UNK N   1      20.954  17.471   2.923  0.00  0.00     0.245 C 
HETATM    4  O   UNK N   1      21.431  16.362   2.728  0.00  0.00    -0.271 OA
HETATM    5  H   UNK N   1      20.762  19.007   4.212  0.00  0.00     0.163 HD
BRANCH   3   6
HETATM    6  C   UNK N   1      20.109  18.115   1.854  0.00  0.00     0.098 C 
HETATM    7  C   UNK N   1      20.086  17.240   0.615  0.00  0.00     0.048 C 
HETATM    8  C   UNK N   1      20.691  19.469   1.494  0.00  0.00     0.048 C 
BRANCH   6   9
HETATM    9  N   UNK N   1      18.742  18.303   2.316  0.00  0.00    -0.415 N 
HETATM   10  H   UNK N   1      18.258  19.130   2.667  0.00  0.00     0.151 HD
HETATM   11  H   UNK N   1      18.168  17.460   2.284  0.00  0.00     0.151 HD
ENDBRANCH   6   9
ENDBRANCH   3   6
ENDBRANCH   1   2
BRANCH   1  12
HETATM   12  C   UNK N   1      23.317  18.366   5.261  0.00  0.00     0.075 C 
BRANCH  12  13
HETATM   13  C   UNK N   1      24.467  17.481   4.895  0.00  0.00    -0.028 A 
HETATM   14  C   UNK N   1      24.400  16.131   4.556  0.00  0.00     0.096 A 
HETATM   15  N   UNK N   1      25.631  15.690   4.208  0.00  0.00    -0.365 N 
HETATM   16  C   UNK N   1      26.456  16.753   4.323  0.00  0.00     0.042 A 
HETATM   17  H   UNK N   1      25.877  14.779   3.927  0.00  0.00     0.165 HD
HETATM   18  C   UNK N   1      25.771  17.854   4.748  0.00  0.00    -0.002 A 
HETATM   19  C   UNK N   1      27.813  16.792   4.039  0.00  0.00     0.030 A 
HETATM   20  C   UNK N   1      26.398  19.087   4.925  0.00  0.00     0.014 A 
HETATM   21  C   UNK N   1      27.774  19.164   4.652  0.00  0.00     0.001 A 
HETATM   22  C   UNK N   1      28.480  18.022   4.207  0.00  0.00     0.002 A 
ENDBRANCH  12  13
ENDBRANCH   1  12
BRANCH   1  23
HETATM   23  C   UNK N   1      21.237  17.665   6.507  0.00  0.00     0.242 C 
HETATM   24  O   UNK N   1      21.034  18.745   7.039  0.00  0.00    -0.271 OA
HETATM   25  N   UNK N   1      20.739  16.542   7.091  0.00  0.00    -0.338 N 
HETATM   26  H   UNK N   1      20.200  16.663   7.906  0.00  0.00     0.164 HD
BRANCH  25  27
HETATM   27  C   UNK N   1      20.929  15.180   6.624  0.00  0.00     0.190 C 
BRANCH  27  28
HETATM   28  C   UNK N   1      20.905  14.152   7.749  0.00  0.00     0.087 C 
BRANCH  28  29
HETATM   29  C   UNK N   1      22.277  13.784   8.182  0.00  0.00    -0.027 A 
HETATM   30  C   UNK N   1      23.469  14.007   7.502  0.00  0.00     0.096 A 
HETATM   31  N   UNK N   1      24.505  13.537   8.242  0.00  0.00    -0.365 N 
HETATM   32  C   UNK N   1      23.960  13.026   9.362  0.00  0.00     0.042 A 
HETATM   33  H   UNK N   1      25.460  13.563   8.007  0.00  0.00     0.165 HD
HETATM   34  C   UNK N   1      22.602  13.158   9.351  0.00  0.00    -0.002 A 
HETATM   35  C   UNK N   1      24.630  12.434  10.427  0.00  0.00     0.030 A 
HETATM   36  C   UNK N   1      21.805  12.707  10.400  0.00  0.00     0.014 A 
HETATM   37  C   UNK N   1      22.449  12.099  11.493  0.00  0.00     0.001 A 
HETATM   38  C   UNK N   1      23.857  11.965  11.507  0.00  0.00     0.002 A 
ENDBRANCH  28  29
ENDBRANCH  27  28
BRANCH  27  39
HETATM   39  N   UNK N   1      19.967  14.851   5.609  0.00  0.00    -0.347 N 
HETATM   40  H   UNK N   1      20.167  14.157   4.939  0.00  0.00     0.163 HD
BRANCH  39  41
HETATM   41  C   UNK N   1      18.787  15.504   5.579  0.00  0.00     0.350 C 
HETATM   42  O   UNK N   1      18.609  16.411   4.785  0.00  0.00    -0.284 OA
ENDBRANCH  39  41
ENDBRANCH  27  39
ENDBRANCH  25  27
ENDBRANCH   1  23
TORSDOF 11
ENDMDL
MODEL 3
REMARK VINA RESULT:      -6.6     12.093     15.705
REMARK  11 active torsions:
REMARK  status: ('A' for Active; 'I' for Inactive)
REMARK    1  A    between atoms: C_2  and  C_4 
REMARK    2  A    between atoms: C_2  and  N_35 
REMARK       I    between atoms: C_4  and  N_6 
REMARK    3  A    between atoms: C_7  and  N_6 
REMARK    4  A    between atoms: C_7  and  C_8 
REMARK    5  A    between atoms: C_7  and  C_18 
REMARK    6  A    between atoms: C_8  and  C_9 
REMARK       I    between atoms: C_18  and  N_20 
REMARK    7  A    between atoms: C_21  and  N_20 
REMARK    8  A    between atoms: C_21  and  C_22 
REMARK    9  A    between atoms: C_21  and  N_32 
REMARK   10  A    between atoms: C_22  and  C_23 
REMARK   11  A    between atoms: N_32  and  C_33 
ROOT
HETATM    1  C   UNK N   1      23.124  17.497   4.966  0.00  0.00     0.181 C 
ENDROOT
BRANCH   1   2
HETATM    2  N   UNK N   1      24.409  18.061   5.345  0.00  0.00    -0.345 N 
HETATM    3  C   UNK N   1      25.005  19.120   4.737  0.00  0.00     0.245 C 
HETATM    4  O   UNK N   1      24.456  19.692   3.806  0.00  0.00    -0.271 OA
HETATM    5  H   UNK N   1      24.884  17.642   6.099  0.00  0.00     0.163 HD
BRANCH   3   6
HETATM    6  C   UNK N   1      26.352  19.603   5.215  0.00  0.00     0.098 C 
HETATM    7  C   UNK N   1      26.209  20.959   5.880  0.00  0.00     0.048 C 
HETATM    8  C   UNK N   1      27.293  19.728   4.032  0.00  0.00     0.048 C 
BRANCH   6   9
HETATM    9  N   UNK N   1      26.926  18.672   6.174  0.00  0.00    -0.415 N 
HETATM   10  H   UNK N   1      26.772  18.558   7.176  0.00  0.00     0.151 HD
HETATM   11  H   UNK N   1      27.600  18.019   5.774  0.00  0.00     0.151 HD
ENDBRANCH   6   9
ENDBRANCH   3   6
ENDBRANCH   1   2
BRANCH   1  12
HETATM   12  C   UNK N   1      22.992  16.071   5.513  0.00  0.00     0.075 C 
BRANCH  12  13
HETATM   13  C   UNK N   1      23.145  15.053   4.428  0.00  0.00    -0.028 A 
HETATM   14  C   UNK N   1      23.514  15.297   3.107  0.00  0.00     0.096 A 
HETATM   15  N   UNK N   1      23.627  14.123   2.443  0.00  0.00    -0.365 N 
HETATM   16  C   UNK N   1      23.337  13.157   3.341  0.00  0.00     0.042 A 
HETATM   17  H   UNK N   1      23.871  13.998   1.497  0.00  0.00     0.165 HD
HETATM   18  C   UNK N   1      23.033  13.699   4.555  0.00  0.00    -0.002 A 
HETATM   19  C   UNK N   1      23.354  11.786   3.127  0.00  0.00     0.030 A 
HETATM   20  C   UNK N   1      22.717  12.904   5.657  0.00  0.00     0.014 A 
HETATM   21  C   UNK N   1      22.720  11.510   5.478  0.00  0.00     0.001 A 
HETATM   22  C   UNK N   1      23.040  10.952   4.218  0.00  0.00     0.002 A 
ENDBRANCH  12  13
ENDBRANCH   1  12
BRANCH   1  23
HETATM   23  C   UNK N   1      21.976  18.379   5.409  0.00  0.00     0.242 C 
HETATM   24  O   UNK N   1      21.782  18.559   6.602  0.00  0.00    -0.271 OA
HETATM   25  N   UNK N   1      21.181  19.020   4.511  0.00  0.00    -0.338 N 
HETATM   26  H   UNK N   1      20.503  19.635   4.874  0.00  0.00     0.164 HD
BRANCH  25  27
HETATM   27  C   UNK N   1      21.239  18.881   3.066  0.00  0.00     0.190 C 
BRANCH  27  28
HETATM   28  C   UNK N   1      19.943  18.355   2.463  0.00  0.00     0.087 C 
BRANCH  28  29
HETATM   29  C   UNK N   1      20.030  16.904   2.161  0.00  0.00    -0.027 A 
HETATM   30  C   UNK N   1      20.412  16.308   0.963  0.00  0.00     0.096 A 
HETATM   31  N   UNK N   1      20.377  14.959   1.100  0.00  0.00    -0.365 N 
HETATM   32  C   UNK N   1      19.974  14.723   2.363  0.00  0.00     0.042 A 
HETATM   33  H   UNK N   1      20.599  14.288   0.415  0.00  0.00     0.165 HD
HETATM   34  C   UNK N   1      19.750  15.891   3.032  0.00  0.00    -0.002 A 
HETATM   35  C   UNK N   1      19.794  13.485   2.970  0.00  0.00     0.030 A 
HETATM   36  C   UNK N   1      19.325  15.916   4.358  0.00  0.00     0.014 A 
HETATM   37  C   UNK N   1      19.129  14.681   5.003  0.00  0.00     0.001 A 
HETATM   38  C   UNK N   1      19.365  13.470   4.312  0.00  0.00     0.002 A 
ENDBRANCH  28  29
ENDBRANCH  27  28
BRANCH  27  39
HETATM   39  N   UNK N   1      21.626  20.121   2.451  0.00  0.00    -0.347 N 
HETATM   40  H   UNK N   1      22.412  20.616   2.780  0.00  0.00     0.163 HD
BRANCH  39  41
HETATM   41  C   UNK N   1      20.902  20.604   1.421  0.00  0.00     0.350 C 
HETATM   42  O   UNK N   1      21.417  20.748   0.326  0.00  0.00    -0.284 OA
ENDBRANCH  39  41
ENDBRANCH  27  39
ENDBRANCH  25  27
ENDBRANCH   1  23
TORSDOF 11
ENDMDL
MODEL 4
REMARK VINA RESULT:      -6.5     12.278     15.750
REMARK  11 active torsions:
REMARK  status: ('A' for Active; 'I' for Inactive)
REMARK    1  A    between atoms: C_2  and  C_4 
REMARK    2  A    between atoms: C_2  and  N_35 
REMARK       I    between atoms: C_4  and  N_6 
REMARK    3  A    between atoms: C_7  and  N_6 
REMARK    4  A    between atoms: C_7  and  C_8 
REMARK    5  A    between atoms: C_7  and  C_18 
REMARK    6  A    between atoms: C_8  and  C_9 
REMARK       I    between atoms: C_18  and  N_20 
REMARK    7  A    between atoms: C_21  and  N_20 
REMARK    8  A    between atoms: C_21  and  C_22 
REMARK    9  A    between atoms: C_21  and  N_32 
REMARK   10  A    between atoms: C_22  and  C_23 
REMARK   11  A    between atoms: N_32  and  C_33 
ROOT
HETATM    1  C   UNK N   1      22.830  17.185   5.405  0.00  0.00     0.181 C 
ENDROOT
BRANCH   1   2
HETATM    2  N   UNK N   1      24.117  17.840   5.572  0.00  0.00    -0.345 N 
HETATM    3  C   UNK N   1      24.717  18.629   4.641  0.00  0.00     0.245 C 
HETATM    4  O   UNK N   1      24.169  18.852   3.570  0.00  0.00    -0.271 OA
HETATM    5  H   UNK N   1      24.591  17.701   6.424  0.00  0.00     0.163 HD
BRANCH   3   6
HETATM    6  C   UNK N   1      26.064  19.242   4.928  0.00  0.00     0.098 C 
HETATM    7  C   UNK N   1      26.498  20.108   3.760  0.00  0.00     0.048 C 
HETATM    8  C   UNK N   1      27.087  18.142   5.136  0.00  0.00     0.048 C 
BRANCH   6   9
HETATM    9  N   UNK N   1      26.014  20.067   6.126  0.00  0.00    -0.415 N 
HETATM   10  H   UNK N   1      25.913  19.818   7.110  0.00  0.00     0.151 HD
HETATM   11  H   UNK N   1      26.093  21.068   5.950  0.00  0.00     0.151 HD
ENDBRANCH   6   9
ENDBRANCH   3   6
ENDBRANCH   1   2
BRANCH   1  12
HETATM   12  C   UNK N   1      22.709  16.008   6.380  0.00  0.00     0.075 C 
BRANCH  12  13
HETATM   13  C   UNK N   1      22.572  14.707   5.653  0.00  0.00    -0.028 A 
HETATM   14  C   UNK N   1      23.599  13.820   5.339  0.00  0.00     0.096 A 
HETATM   15  N   UNK N   1      23.081  12.716   4.752  0.00  0.00    -0.365 N 
HETATM   16  C   UNK N   1      21.745  12.909   4.705  0.00  0.00     0.042 A 
HETATM   17  H   UNK N   1      23.577  11.930   4.426  0.00  0.00     0.165 HD
HETATM   18  C   UNK N   1      21.412  14.118   5.241  0.00  0.00    -0.002 A 
HETATM   19  C   UNK N   1      20.791  12.029   4.217  0.00  0.00     0.030 A 
HETATM   20  C   UNK N   1      20.086  14.544   5.327  0.00  0.00     0.014 A 
HETATM   21  C   UNK N   1      19.091  13.681   4.839  0.00  0.00     0.001 A 
HETATM   22  C   UNK N   1      19.441  12.426   4.288  0.00  0.00     0.002 A 
ENDBRANCH  12  13
ENDBRANCH   1  12
BRANCH   1  23
HETATM   23  C   UNK N   1      21.684  18.161   5.556  0.00  0.00     0.242 C 
HETATM   24  O   UNK N   1      21.378  18.563   6.668  0.00  0.00    -0.271 OA
HETATM   25  N   UNK N   1      21.012  18.645   4.476  0.00  0.00    -0.338 N 
HETATM   26  H   UNK N   1      20.329  19.333   4.646  0.00  0.00     0.164 HD
BRANCH  25  27
HETATM   27  C   UNK N   1      21.211  18.241   3.095  0.00  0.00     0.190 C 
BRANCH  27  28
HETATM   28  C   UNK N   1      20.255  17.140   2.650  0.00  0.00     0.087 C 
BRANCH  28  29
HETATM   29  C   UNK N   1      20.988  15.959   2.127  0.00  0.00    -0.027 A 
HETATM   30  C   UNK N   1      22.361  15.735   2.150  0.00  0.00     0.096 A 
HETATM   31  N   UNK N   1      22.629  14.530   1.587  0.00  0.00    -0.365 N 
HETATM   32  C   UNK N   1      21.440  14.019   1.217  0.00  0.00     0.042 A 
HETATM   33  H   UNK N   1      23.514  14.113   1.472  0.00  0.00     0.165 HD
HETATM   34  C   UNK N   1      20.421  14.870   1.529  0.00  0.00    -0.002 A 
HETATM   35  C   UNK N   1      21.207  12.794   0.602  0.00  0.00     0.030 A 
HETATM   36  C   UNK N   1      19.091  14.570   1.248  0.00  0.00     0.014 A 
HETATM   37  C   UNK N   1      18.819  13.341   0.621  0.00  0.00     0.001 A 
HETATM   38  C   UNK N   1      19.873  12.454   0.302  0.00  0.00     0.002 A 
ENDBRANCH  28  29
ENDBRANCH  27  28
BRANCH  27  39
HETATM   39  N   UNK N   1      21.131  19.376   2.216  0.00  0.00    -0.347 N 
HETATM   40  H   UNK N   1      21.105  19.248   1.240  0.00  0.00     0.163 HD
BRANCH  39  41
HETATM   41  C   UNK N   1      21.095  20.618   2.740  0.00  0.00     0.350 C 
HETATM   42  O   UNK N   1      22.104  21.300   2.769  0.00  0.00    -0.284 OA
ENDBRANCH  39  41
ENDBRANCH  27  39
ENDBRANCH  25  27
ENDBRANCH   1  23
TORSDOF 11
ENDMDL
MODEL 5
REMARK VINA RESULT:      -6.4     17.157     21.155
REMARK  11 active torsions:
REMARK  status: ('A' for Active; 'I' for Inactive)
REMARK    1  A    between atoms: C_2  and  C_4 
REMARK    2  A    between atoms: C_2  and  N_35 
REMARK       I    between atoms: C_4  and  N_6 
REMARK    3  A    between atoms: C_7  and  N_6 
REMARK    4  A    between atoms: C_7  and  C_8 
REMARK    5  A    between atoms: C_7  and  C_18 
REMARK    6  A    between atoms: C_8  and  C_9 
REMARK       I    between atoms: C_18  and  N_20 
REMARK    7  A    between atoms: C_21  and  N_20 
REMARK    8  A    between atoms: C_21  and  C_22 
REMARK    9  A    between atoms: C_21  and  N_32 
REMARK   10  A    between atoms: C_22  and  C_23 
REMARK   11  A    between atoms: N_32  and  C_33 
ROOT
HETATM    1  C   UNK N   1      26.738  24.888  -5.268  0.00  0.00     0.181 C 
ENDROOT
BRANCH   1   2
HETATM    2  N   UNK N   1      26.395  23.884  -6.262  0.00  0.00    -0.345 N 
HETATM    3  C   UNK N   1      27.291  23.103  -6.922  0.00  0.00     0.245 C 
HETATM    4  O   UNK N   1      28.488  23.198  -6.688  0.00  0.00    -0.271 OA
HETATM    5  H   UNK N   1      25.441  23.762  -6.475  0.00  0.00     0.163 HD
BRANCH   3   6
HETATM    6  C   UNK N   1      26.812  22.106  -7.945  0.00  0.00     0.098 C 
HETATM    7  C   UNK N   1      25.444  21.578  -7.553  0.00  0.00     0.048 C 
HETATM    8  C   UNK N   1      27.787  20.947  -8.020  0.00  0.00     0.048 C 
BRANCH   6   9
HETATM    9  N   UNK N   1      26.713  22.720  -9.261  0.00  0.00    -0.415 N 
HETATM   10  H   UNK N   1      25.928  23.162  -9.739  0.00  0.00     0.151 HD
HETATM   11  H   UNK N   1      27.580  22.705  -9.798  0.00  0.00     0.151 HD
ENDBRANCH   6   9
ENDBRANCH   3   6
ENDBRANCH   1   2
BRANCH   1  12
HETATM   12  C   UNK N   1      25.665  25.983  -5.235  0.00  0.00     0.075 C 
BRANCH  12  13
HETATM   13  C   UNK N   1      26.168  27.220  -4.560  0.00  0.00    -0.028 A 
HETATM   14  C   UNK N   1      26.009  27.554  -3.216  0.00  0.00     0.096 A 
HETATM   15  N   UNK N   1      26.668  28.707  -2.955  0.00  0.00    -0.365 N 
HETATM   16  C   UNK N   1      27.236  29.085  -4.120  0.00  0.00     0.042 A 
HETATM   17  H   UNK N   1      26.723  29.176  -2.091  0.00  0.00     0.165 HD
HETATM   18  C   UNK N   1      26.939  28.199  -5.114  0.00  0.00    -0.002 A 
HETATM   19  C   UNK N   1      28.041  30.194  -4.335  0.00  0.00     0.030 A 
HETATM   20  C   UNK N   1      27.427  28.359  -6.411  0.00  0.00     0.014 A 
HETATM   21  C   UNK N   1      28.243  29.473  -6.669  0.00  0.00     0.001 A 
HETATM   22  C   UNK N   1      28.552  30.387  -5.634  0.00  0.00     0.002 A 
ENDBRANCH  12  13
ENDBRANCH   1  12
BRANCH   1  23
HETATM   23  C   UNK N   1      26.953  24.270  -3.903  0.00  0.00     0.242 C 
HETATM   24  O   UNK N   1      25.991  23.874  -3.264  0.00  0.00    -0.271 OA
HETATM   25  N   UNK N   1      28.199  24.096  -3.387  0.00  0.00    -0.338 N 
HETATM   26  H   UNK N   1      28.265  23.619  -2.528  0.00  0.00     0.164 HD
BRANCH  25  27
HETATM   27  C   UNK N   1      29.443  24.549  -3.987  0.00  0.00     0.190 C 
BRANCH  27  28
HETATM   28  C   UNK N   1      29.757  26.008  -3.682  0.00  0.00     0.087 C 
BRANCH  28  29
HETATM   29  C   UNK N   1      30.419  26.676  -4.831  0.00  0.00    -0.027 A 
HETATM   30  C   UNK N   1      30.473  26.237  -6.150  0.00  0.00     0.096 A 
HETATM   31  N   UNK N   1      31.157  27.140  -6.897  0.00  0.00    -0.365 N 
HETATM   32  C   UNK N   1      31.526  28.120  -6.051  0.00  0.00     0.042 A 
HETATM   33  H   UNK N   1      31.347  27.089  -7.862  0.00  0.00     0.165 HD
HETATM   34  C   UNK N   1      31.094  27.862  -4.783  0.00  0.00    -0.002 A 
HETATM   35  C   UNK N   1      32.244  29.270  -6.360  0.00  0.00     0.030 A 
HETATM   36  C   UNK N   1      31.349  28.727  -3.722  0.00  0.00     0.014 A 
HETATM   37  C   UNK N   1      32.077  29.899  -3.997  0.00  0.00     0.001 A 
HETATM   38  C   UNK N   1      32.521  30.170  -5.312  0.00  0.00     0.002 A 
ENDBRANCH  28  29
ENDBRANCH  27  28
BRANCH  27  39
HETATM   39  N   UNK N   1      30.534  23.697  -3.600  0.00  0.00    -0.347 N 
HETATM   40  H   UNK N   1      31.412  23.785  -4.036  0.00  0.00     0.163 HD
BRANCH  39  41
HETATM   41  C   UNK N   1      30.343  22.774  -2.636  0.00  0.00     0.350 C 
HETATM   42  O   UNK N   1      30.420  23.090  -1.462  0.00  0.00    -0.284 OA
ENDBRANCH  39  41
ENDBRANCH  27  39
ENDBRANCH  25  27
ENDBRANCH   1  23
TORSDOF 11
ENDMDL
MODEL 6
REMARK VINA RESULT:      -6.3      1.411      2.042
REMARK  11 active torsions:
REMARK  status: ('A' for Active; 'I' for Inactive)
REMARK    1  A    between atoms: C_2  and  C_4 
REMARK    2  A    between atoms: C_2  and  N_35 
REMARK       I    between atoms: C_4  and  N_6 
REMARK    3  A    between atoms: C_7  and  N_6 
REMARK    4  A    between atoms: C_7  and  C_8 
REMARK    5  A    between atoms: C_7  and  C_18 
REMARK    6  A    between atoms: C_8  and  C_9 
REMARK       I    between atoms: C_18  and  N_20 
REMARK    7  A    between atoms: C_21  and  N_20 
REMARK    8  A    between atoms: C_21  and  C_22 
REMARK    9  A    between atoms: C_21  and  N_32 
REMARK   10  A    between atoms: C_22  and  C_23 
REMARK   11  A    between atoms: N_32  and  C_33 
ROOT
HETATM    1  C   UNK N   1      36.711  14.020  10.672  0.00  0.00     0.181 C 
ENDROOT
BRANCH   1   2
HETATM    2  N   UNK N   1      37.022  13.784  12.072  0.00  0.00    -0.345 N 
HETATM    3  C   UNK N   1      36.368  12.906  12.878  0.00  0.00     0.245 C 
HETATM    4  O   UNK N   1      35.452  12.224  12.440  0.00  0.00    -0.271 OA
HETATM    5  H   UNK N   1      37.761  14.301  12.467  0.00  0.00     0.163 HD
BRANCH   3   6
HETATM    6  C   UNK N   1      36.776  12.762  14.323  0.00  0.00     0.098 C 
HETATM    7  C   UNK N   1      35.786  11.875  15.054  0.00  0.00     0.048 C 
HETATM    8  C   UNK N   1      36.798  14.128  14.981  0.00  0.00     0.048 C 
BRANCH   6   9
HETATM    9  N   UNK N   1      38.100  12.169  14.431  0.00  0.00    -0.415 N 
HETATM   10  H   UNK N   1      38.443  11.387  14.990  0.00  0.00     0.151 HD
HETATM   11  H   UNK N   1      38.809  12.613  13.847  0.00  0.00     0.151 HD
ENDBRANCH   6   9
ENDBRANCH   3   6
ENDBRANCH   1   2
BRANCH   1  12
HETATM   12  C   UNK N   1      36.235  15.464  10.475  0.00  0.00     0.075 C 
BRANCH  12  13
HETATM   13  C   UNK N   1      34.782  15.518  10.123  0.00  0.00    -0.028 A 
HETATM   14  C   UNK N   1      33.780  14.679  10.607  0.00  0.00     0.096 A 
HETATM   15  N   UNK N   1      32.580  15.084  10.128  0.00  0.00    -0.365 N 
HETATM   16  C   UNK N   1      32.830  16.166   9.360  0.00  0.00     0.042 A 
HETATM   17  H   UNK N   1      31.703  14.673  10.305  0.00  0.00     0.165 HD
HETATM   18  C   UNK N   1      34.164  16.445   9.336  0.00  0.00    -0.002 A 
HETATM   19  C   UNK N   1      31.900  16.944   8.686  0.00  0.00     0.030 A 
HETATM   20  C   UNK N   1      34.676  17.532   8.626  0.00  0.00     0.014 A 
HETATM   21  C   UNK N   1      33.764  18.341   7.926  0.00  0.00     0.001 A 
HETATM   22  C   UNK N   1      32.380  18.050   7.958  0.00  0.00     0.002 A 
ENDBRANCH  12  13
ENDBRANCH   1  12
BRANCH   1  23
HETATM   23  C   UNK N   1      37.885  13.687   9.777  0.00  0.00     0.242 C 
HETATM   24  O   UNK N   1      39.021  13.901  10.169  0.00  0.00    -0.271 OA
HETATM   25  N   UNK N   1      37.711  13.105   8.559  0.00  0.00    -0.338 N 
HETATM   26  H   UNK N   1      38.523  12.849   8.066  0.00  0.00     0.164 HD
BRANCH  25  27
HETATM   27  C   UNK N   1      36.436  12.827   7.920  0.00  0.00     0.190 C 
BRANCH  27  28
HETATM   28  C   UNK N   1      35.991  13.929   6.967  0.00  0.00     0.087 C 
BRANCH  28  29
HETATM   29  C   UNK N   1      34.519  13.922   6.774  0.00  0.00    -0.027 A 
HETATM   30  C   UNK N   1      33.596  13.036   7.320  0.00  0.00     0.096 A 
HETATM   31  N   UNK N   1      32.348  13.379   6.914  0.00  0.00    -0.365 N 
HETATM   32  C   UNK N   1      32.497  14.459   6.123  0.00  0.00     0.042 A 
HETATM   33  H   UNK N   1      31.504  12.930   7.149  0.00  0.00     0.165 HD
HETATM   34  C   UNK N   1      33.811  14.810   6.015  0.00  0.00    -0.002 A 
HETATM   35  C   UNK N   1      31.493  15.172   5.477  0.00  0.00     0.030 A 
HETATM   36  C   UNK N   1      34.228  15.897   5.251  0.00  0.00     0.014 A 
HETATM   37  C   UNK N   1      33.239  16.638   4.579  0.00  0.00     0.001 A 
HETATM   38  C   UNK N   1      31.876  16.279   4.695  0.00  0.00     0.002 A 
ENDBRANCH  28  29
ENDBRANCH  27  28
BRANCH  27  39
HETATM   39  N   UNK N   1      36.469  11.554   7.253  0.00  0.00    -0.347 N 
HETATM   40  H   UNK N   1      35.771  11.316   6.600  0.00  0.00     0.163 HD
BRANCH  39  41
HETATM   41  C   UNK N   1      37.464  10.687   7.530  0.00  0.00     0.350 C 
HETATM   42  O   UNK N   1      38.443  10.626   6.806  0.00  0.00    -0.284 OA
ENDBRANCH  39  41
ENDBRANCH  27  39
ENDBRANCH  25  27
ENDBRANCH   1  23
TORSDOF 11
ENDMDL
MODEL 7
REMARK VINA RESULT:      -6.3     17.277     20.413
REMARK  11 active torsions:
REMARK  status: ('A' for Active; 'I' for Inactive)
REMARK    1  A    between atoms: C_2  and  C_4 
REMARK    2  A    between atoms: C_2  and  N_35 
REMARK       I    between atoms: C_4  and  N_6 
REMARK    3  A    between atoms: C_7  and  N_6 
REMARK    4  A    between atoms: C_7  and  C_8 
REMARK    5  A    between atoms: C_7  and  C_18 
REMARK    6  A    between atoms: C_8  and  C_9 
REMARK       I    between atoms: C_18  and  N_20 
REMARK    7  A    between atoms: C_21  and  N_20 
REMARK    8  A    between atoms: C_21  and  C_22 
REMARK    9  A    between atoms: C_21  and  N_32 
REMARK   10  A    between atoms: C_22  and  C_23 
REMARK   11  A    between atoms: N_32  and  C_33 
ROOT
HETATM    1  C   UNK N   1      28.147  24.918  -4.240  0.00  0.00     0.181 C 
ENDROOT
BRANCH   1   2
HETATM    2  N   UNK N   1      27.961  26.357  -4.146  0.00  0.00    -0.345 N 
HETATM    3  C   UNK N   1      28.343  27.255  -5.092  0.00  0.00     0.245 C 
HETATM    4  O   UNK N   1      28.873  26.879  -6.128  0.00  0.00    -0.271 OA
HETATM    5  H   UNK N   1      27.526  26.707  -3.334  0.00  0.00     0.163 HD
BRANCH   3   6
HETATM    6  C   UNK N   1      28.109  28.728  -4.870  0.00  0.00     0.098 C 
HETATM    7  C   UNK N   1      26.803  28.938  -4.125  0.00  0.00     0.048 C 
HETATM    8  C   UNK N   1      28.035  29.437  -6.209  0.00  0.00     0.048 C 
BRANCH   6   9
HETATM    9  N   UNK N   1      29.189  29.313  -4.090  0.00  0.00    -0.415 N 
HETATM   10  H   UNK N   1      29.429  29.225  -3.102  0.00  0.00     0.151 HD
HETATM   11  H   UNK N   1      29.814  29.917  -4.624  0.00  0.00     0.151 HD
ENDBRANCH   6   9
ENDBRANCH   3   6
ENDBRANCH   1   2
BRANCH   1  12
HETATM   12  C   UNK N   1      29.190  24.454  -3.216  0.00  0.00     0.075 C 
BRANCH  12  13
HETATM   13  C   UNK N   1      30.475  24.072  -3.879  0.00  0.00    -0.028 A 
HETATM   14  C   UNK N   1      31.497  24.937  -4.266  0.00  0.00     0.096 A 
HETATM   15  N   UNK N   1      32.535  24.220  -4.757  0.00  0.00    -0.365 N 
HETATM   16  C   UNK N   1      32.168  22.923  -4.671  0.00  0.00     0.042 A 
HETATM   17  H   UNK N   1      33.386  24.572  -5.106  0.00  0.00     0.165 HD
HETATM   18  C   UNK N   1      30.915  22.809  -4.146  0.00  0.00    -0.002 A 
HETATM   19  C   UNK N   1      32.925  21.816  -5.025  0.00  0.00     0.030 A 
HETATM   20  C   UNK N   1      30.315  21.566  -3.937  0.00  0.00     0.014 A 
HETATM   21  C   UNK N   1      31.050  20.421  -4.288  0.00  0.00     0.001 A 
HETATM   22  C   UNK N   1      32.352  20.544  -4.828  0.00  0.00     0.002 A 
ENDBRANCH  12  13
ENDBRANCH   1  12
BRANCH   1  23
HETATM   23  C   UNK N   1      26.837  24.175  -4.086  0.00  0.00     0.242 C 
HETATM   24  O   UNK N   1      26.373  24.000  -2.970  0.00  0.00    -0.271 OA
HETATM   25  N   UNK N   1      26.134  23.739  -5.165  0.00  0.00    -0.338 N 
HETATM   26  H   UNK N   1      25.254  23.331  -4.991  0.00  0.00     0.164 HD
BRANCH  25  27
HETATM   27  C   UNK N   1      26.559  23.820  -6.552  0.00  0.00     0.190 C 
BRANCH  27  28
HETATM   28  C   UNK N   1      26.891  22.461  -7.156  0.00  0.00     0.087 C 
BRANCH  28  29
HETATM   29  C   UNK N   1      28.343  22.331  -7.441  0.00  0.00    -0.027 A 
HETATM   30  C   UNK N   1      29.284  23.351  -7.530  0.00  0.00     0.096 A 
HETATM   31  N   UNK N   1      30.504  22.816  -7.790  0.00  0.00    -0.365 N 
HETATM   32  C   UNK N   1      30.318  21.485  -7.866  0.00  0.00     0.042 A 
HETATM   33  H   UNK N   1      31.353  23.303  -7.901  0.00  0.00     0.165 HD
HETATM   34  C   UNK N   1      29.010  21.160  -7.662  0.00  0.00    -0.002 A 
HETATM   35  C   UNK N   1      31.285  20.515  -8.110  0.00  0.00     0.030 A 
HETATM   36  C   UNK N   1      28.559  19.842  -7.691  0.00  0.00     0.014 A 
HETATM   37  C   UNK N   1      29.509  18.835  -7.940  0.00  0.00     0.001 A 
HETATM   38  C   UNK N   1      30.867  19.170  -8.146  0.00  0.00     0.002 A 
ENDBRANCH  28  29
ENDBRANCH  27  28
BRANCH  27  39
HETATM   39  N   UNK N   1      25.578  24.508  -7.346  0.00  0.00    -0.347 N 
HETATM   40  H   UNK N   1      24.916  24.000  -7.869  0.00  0.00     0.163 HD
BRANCH  39  41
HETATM   41  C   UNK N   1      25.573  25.856  -7.369  0.00  0.00     0.350 C 
HETATM   42  O   UNK N   1      25.385  26.485  -6.342  0.00  0.00    -0.284 OA
ENDBRANCH  39  41
ENDBRANCH  27  39
ENDBRANCH  25  27
ENDBRANCH   1  23
TORSDOF 11
ENDMDL
MODEL 8
REMARK VINA RESULT:      -6.2     10.523     14.617
REMARK  11 active torsions:
REMARK  status: ('A' for Active; 'I' for Inactive)
REMARK    1  A    between atoms: C_2  and  C_4 
REMARK    2  A    between atoms: C_2  and  N_35 
REMARK       I    between atoms: C_4  and  N_6 
REMARK    3  A    between atoms: C_7  and  N_6 
REMARK    4  A    between atoms: C_7  and  C_8 
REMARK    5  A    between atoms: C_7  and  C_18 
REMARK    6  A    between atoms: C_8  and  C_9 
REMARK       I    between atoms: C_18  and  N_20 
REMARK    7  A    between atoms: C_21  and  N_20 
REMARK    8  A    between atoms: C_21  and  C_22 
REMARK    9  A    between atoms: C_21  and  N_32 
REMARK   10  A    between atoms: C_22  and  C_23 
REMARK   11  A    between atoms: N_32  and  C_33 
ROOT
HETATM    1  C   UNK N   1      23.464  16.276   4.132  0.00  0.00     0.181 C 
ENDROOT
BRANCH   1   2
HETATM    2  N   UNK N   1      22.478  15.746   3.205  0.00  0.00    -0.345 N 
HETATM    3  C   UNK N   1      21.465  16.462   2.651  0.00  0.00     0.245 C 
HETATM    4  O   UNK N   1      21.334  17.652   2.904  0.00  0.00    -0.271 OA
HETATM    5  H   UNK N   1      22.550  14.794   2.960  0.00  0.00     0.163 HD
BRANCH   3   6
HETATM    6  C   UNK N   1      20.494  15.792   1.712  0.00  0.00     0.098 C 
HETATM    7  C   UNK N   1      21.180  14.649   0.987  0.00  0.00     0.048 C 
HETATM    8  C   UNK N   1      19.997  16.799   0.693  0.00  0.00     0.048 C 
BRANCH   6   9
HETATM    9  N   UNK N   1      19.351  15.261   2.440  0.00  0.00    -0.415 N 
HETATM   10  H   UNK N   1      18.385  15.584   2.503  0.00  0.00     0.151 HD
HETATM   11  H   UNK N   1      19.551  14.421   2.982  0.00  0.00     0.151 HD
ENDBRANCH   6   9
ENDBRANCH   3   6
ENDBRANCH   1   2
BRANCH   1  12
HETATM   12  C   UNK N   1      23.541  15.392   5.382  0.00  0.00     0.075 C 
BRANCH  12  13
HETATM   13  C   UNK N   1      22.506  15.779   6.390  0.00  0.00    -0.028 A 
HETATM   14  C   UNK N   1      21.760  16.956   6.404  0.00  0.00     0.096 A 
HETATM   15  N   UNK N   1      20.868  16.916   7.420  0.00  0.00    -0.365 N 
HETATM   16  C   UNK N   1      21.050  15.725   8.031  0.00  0.00     0.042 A 
HETATM   17  H   UNK N   1      20.217  17.613   7.666  0.00  0.00     0.165 HD
HETATM   18  C   UNK N   1      22.047  15.018   7.426  0.00  0.00    -0.002 A 
HETATM   19  C   UNK N   1      20.337  15.222   9.109  0.00  0.00     0.030 A 
HETATM   20  C   UNK N   1      22.413  13.744   7.860  0.00  0.00     0.014 A 
HETATM   21  C   UNK N   1      21.716  13.202   8.953  0.00  0.00     0.001 A 
HETATM   22  C   UNK N   1      20.679  13.937   9.575  0.00  0.00     0.002 A 
ENDBRANCH  12  13
ENDBRANCH   1  12
BRANCH   1  23
HETATM   23  C   UNK N   1      24.818  16.439   3.474  0.00  0.00     0.242 C 
HETATM   24  O   UNK N   1      25.322  15.490   2.892  0.00  0.00    -0.271 OA
HETATM   25  N   UNK N   1      25.469  17.633   3.469  0.00  0.00    -0.338 N 
HETATM   26  H   UNK N   1      26.309  17.682   2.957  0.00  0.00     0.164 HD
BRANCH  25  27
HETATM   27  C   UNK N   1      25.041  18.843   4.148  0.00  0.00     0.190 C 
BRANCH  27  28
HETATM   28  C   UNK N   1      26.156  19.868   4.306  0.00  0.00     0.087 C 
BRANCH  28  29
HETATM   29  C   UNK N   1      26.712  19.864   5.683  0.00  0.00    -0.027 A 
HETATM   30  C   UNK N   1      26.330  20.665   6.754  0.00  0.00     0.096 A 
HETATM   31  N   UNK N   1      27.069  20.340   7.845  0.00  0.00    -0.365 N 
HETATM   32  C   UNK N   1      27.900  19.356   7.452  0.00  0.00     0.042 A 
HETATM   33  H   UNK N   1      27.011  20.743   8.741  0.00  0.00     0.165 HD
HETATM   34  C   UNK N   1      27.708  19.047   6.138  0.00  0.00    -0.002 A 
HETATM   35  C   UNK N   1      28.845  18.695   8.229  0.00  0.00     0.030 A 
HETATM   36  C   UNK N   1      28.447  18.059   5.492  0.00  0.00     0.014 A 
HETATM   37  C   UNK N   1      29.415  17.372   6.247  0.00  0.00     0.001 A 
HETATM   38  C   UNK N   1      29.611  17.687   7.612  0.00  0.00     0.002 A 
ENDBRANCH  28  29
ENDBRANCH  27  28
BRANCH  27  39
HETATM   39  N   UNK N   1      23.902  19.421   3.488  0.00  0.00    -0.347 N 
HETATM   40  H   UNK N   1      23.055  18.921   3.428  0.00  0.00     0.163 HD
BRANCH  39  41
HETATM   41  C   UNK N   1      24.003  20.654   2.951  0.00  0.00     0.350 C 
HETATM   42  O   UNK N   1      23.021  21.372   2.878  0.00  0.00    -0.284 OA
ENDBRANCH  39  41
ENDBRANCH  27  39
ENDBRANCH  25  27
ENDBRANCH   1  23
TORSDOF 11
ENDMDL
MODEL 9
REMARK VINA RESULT:      -6.2     17.321     21.394
REMARK  11 active torsions:
REMARK  status: ('A' for Active; 'I' for Inactive)
REMARK    1  A    between atoms: C_2  and  C_4 
REMARK    2  A    between atoms: C_2  and  N_35 
REMARK       I    between atoms: C_4  and  N_6 
REMARK    3  A    between atoms: C_7  and  N_6 
REMARK    4  A    between atoms: C_7  and  C_8 
REMARK    5  A    between atoms: C_7  and  C_18 
REMARK    6  A    between atoms: C_8  and  C_9 
REMARK       I    between atoms: C_18  and  N_20 
REMARK    7  A    between atoms: C_21  and  N_20 
REMARK    8  A    between atoms: C_21  and  C_22 
REMARK    9  A    between atoms: C_21  and  N_32 
REMARK   10  A    between atoms: C_22  and  C_23 
REMARK   11  A    between atoms: N_32  and  C_33 
ROOT
HETATM    1  C   UNK N   1      26.912  24.700  -6.537  0.00  0.00     0.181 C 
ENDROOT
BRANCH   1   2
HETATM    2  N   UNK N   1      26.904  23.539  -7.413  0.00  0.00    -0.345 N 
HETATM    3  C   UNK N   1      27.732  22.468  -7.293  0.00  0.00     0.245 C 
HETATM    4  O   UNK N   1      28.553  22.415  -6.388  0.00  0.00    -0.271 OA
HETATM    5  H   UNK N   1      26.250  23.530  -8.149  0.00  0.00     0.163 HD
BRANCH   3   6
HETATM    6  C   UNK N   1      27.637  21.329  -8.277  0.00  0.00     0.098 C 
HETATM    7  C   UNK N   1      28.183  21.763  -9.624  0.00  0.00     0.048 C 
HETATM    8  C   UNK N   1      26.186  20.919  -8.439  0.00  0.00     0.048 C 
BRANCH   6   9
HETATM    9  N   UNK N   1      28.399  20.179  -7.814  0.00  0.00    -0.415 N 
HETATM   10  H   UNK N   1      28.213  19.504  -7.072  0.00  0.00     0.151 HD
HETATM   11  H   UNK N   1      29.270  20.021  -8.319  0.00  0.00     0.151 HD
ENDBRANCH   6   9
ENDBRANCH   3   6
ENDBRANCH   1   2
BRANCH   1  12
HETATM   12  C   UNK N   1      26.282  25.902  -7.251  0.00  0.00     0.075 C 
BRANCH  12  13
HETATM   13  C   UNK N   1      27.101  27.140  -7.063  0.00  0.00    -0.028 A 
HETATM   14  C   UNK N   1      28.051  27.648  -7.947  0.00  0.00     0.096 A 
HETATM   15  N   UNK N   1      28.525  28.825  -7.475  0.00  0.00    -0.365 N 
HETATM   16  C   UNK N   1      27.875  29.051  -6.314  0.00  0.00     0.042 A 
HETATM   17  H   UNK N   1      29.206  29.400  -7.893  0.00  0.00     0.165 HD
HETATM   18  C   UNK N   1      27.008  28.035  -6.038  0.00  0.00    -0.002 A 
HETATM   19  C   UNK N   1      28.006  30.156  -5.485  0.00  0.00     0.030 A 
HETATM   20  C   UNK N   1      26.201  28.045  -4.900  0.00  0.00     0.014 A 
HETATM   21  C   UNK N   1      26.309  29.146  -4.034  0.00  0.00     0.001 A 
HETATM   22  C   UNK N   1      27.206  30.200  -4.326  0.00  0.00     0.002 A 
ENDBRANCH  12  13
ENDBRANCH   1  12
BRANCH   1  23
HETATM   23  C   UNK N   1      26.228  24.407  -5.219  0.00  0.00     0.242 C 
HETATM   24  O   UNK N   1      25.011  24.313  -5.179  0.00  0.00    -0.271 OA
HETATM   25  N   UNK N   1      26.939  24.195  -4.078  0.00  0.00    -0.338 N 
HETATM   26  H   UNK N   1      26.431  23.936  -3.276  0.00  0.00     0.164 HD
BRANCH  25  27
HETATM   27  C   UNK N   1      28.380  24.315  -3.935  0.00  0.00     0.190 C 
BRANCH  27  28
HETATM   28  C   UNK N   1      28.813  25.649  -3.339  0.00  0.00     0.087 C 
BRANCH  28  29
HETATM   29  C   UNK N   1      29.754  26.367  -4.235  0.00  0.00    -0.027 A 
HETATM   30  C   UNK N   1      30.258  25.935  -5.458  0.00  0.00     0.096 A 
HETATM   31  N   UNK N   1      31.075  26.889  -5.971  0.00  0.00    -0.365 N 
HETATM   32  C   UNK N   1      31.081  27.895  -5.076  0.00  0.00     0.042 A 
HETATM   33  H   UNK N   1      31.565  26.853  -6.824  0.00  0.00     0.165 HD
HETATM   34  C   UNK N   1      30.288  27.603  -4.005  0.00  0.00    -0.002 A 
HETATM   35  C   UNK N   1      31.773  29.097  -5.168  0.00  0.00     0.030 A 
HETATM   36  C   UNK N   1      30.126  28.485  -2.939  0.00  0.00     0.014 A 
HETATM   37  C   UNK N   1      30.815  29.710  -2.997  0.00  0.00     0.001 A 
HETATM   38  C   UNK N   1      31.633  30.016  -4.110  0.00  0.00     0.002 A 
ENDBRANCH  28  29
ENDBRANCH  27  28
BRANCH  27  39
HETATM   39  N   UNK N   1      28.908  23.217  -3.173  0.00  0.00    -0.347 N 
HETATM   40  H   UNK N   1      28.382  22.393  -3.057  0.00  0.00     0.163 HD
BRANCH  39  41
HETATM   41  C   UNK N   1      30.132  23.326  -2.616  0.00  0.00     0.350 C 
HETATM   42  O   UNK N   1      30.295  23.054  -1.439  0.00  0.00    -0.284 OA
ENDBRANCH  39  41
ENDBRANCH  27  39
ENDBRANCH  25  27
ENDBRANCH   1  23
TORSDOF 11
ENDMDL
