MODEL 1
REMARK VINA RESULT:      -7.7      0.000      0.000
REMARK  25 active torsions:
REMARK  status: ('A' for Active; 'I' for Inactive)
REMARK    1  A    between atoms: C_25  and  O_2 
REMARK    2  A    between atoms: O_2  and  C_29 
REMARK    3  A    between atoms: C_21  and  O_4 
REMARK    4  A    between atoms: C_22  and  O_5 
REMARK    5  A    between atoms: C_28  and  O_6 
REMARK    6  A    between atoms: O_6  and  C_32 
REMARK    7  A    between atoms: C_23  and  O_7 
REMARK    8  A    between atoms: C_24  and  O_8 
REMARK    9  A    between atoms: C_26  and  O_9 
REMARK   10  A    between atoms: C_27  and  O_10 
REMARK   11  A    between atoms: O_13  and  C_38 
REMARK   12  A    between atoms: O_14  and  C_43 
REMARK   13  A    between atoms: O_14  and  C_47 
REMARK   14  A    between atoms: O_15  and  C_44 
REMARK   15  A    between atoms: O_15  and  C_48 
REMARK   16  A    between atoms: O_16  and  C_46 
REMARK   17  A    between atoms: O_16  and  C_49 
REMARK   18  A    between atoms: O_17  and  C_50 
REMARK   19  A    between atoms: O_18  and  C_51 
REMARK   20  A    between atoms: O_19  and  C_52 
REMARK   21  A    between atoms: C_20  and  C_29 
REMARK   22  A    between atoms: C_33  and  C_36 
REMARK   23  A    between atoms: C_47  and  C_50 
REMARK   24  A    between atoms: C_48  and  C_51 
REMARK   25  A    between atoms: C_49  and  C_52 
ROOT
HETATM    1  O   UNK N   1      25.696  13.958   5.687  0.00  0.00    -0.306 OA
HETATM    2  O   UNK N   1      23.477  14.076   2.406  0.00  0.00    -0.284 OA
HETATM    3  C   UNK N   1      23.606  13.570   4.616  0.00  0.00     0.157 A 
HETATM    4  C   UNK N   1      24.437  13.524   5.767  0.00  0.00     0.124 A 
HETATM    5  C   UNK N   1      24.152  14.064   3.418  0.00  0.00     0.223 A 
HETATM    6  C   UNK N   1      25.474  14.542   3.395  0.00  0.00     0.084 A 
HETATM    7  C   UNK N   1      26.228  14.466   4.582  0.00  0.00     0.096 A 
HETATM    8  C   UNK N   1      26.070  15.100   2.239  0.00  0.00     0.085 A 
HETATM    9  C   UNK N   1      27.544  14.940   4.612  0.00  0.00     0.075 A 
HETATM   10  C   UNK N   1      27.377  15.584   2.291  0.00  0.00     0.074 A 
HETATM   11  C   UNK N   1      28.123  15.509   3.475  0.00  0.00     0.074 A 
ENDROOT
BRANCH   3  12
HETATM   12  O   UNK N   1      22.323  13.116   4.646  0.00  0.00    -0.311 OA
BRANCH  12  13
HETATM   13  C   UNK N   1      21.319  13.793   5.332  0.00  0.00     0.298 C 
HETATM   14  O   UNK N   1      21.099  15.091   4.810  0.00  0.00    -0.348 OA
HETATM   15  C   UNK N   1      20.609  14.953   3.495  0.00  0.00     0.180 C 
HETATM   16  C   UNK N   1      19.180  14.407   3.506  0.00  0.00     0.180 C 
HETATM   17  C   UNK N   1      19.267  12.994   4.066  0.00  0.00     0.183 C 
HETATM   18  C   UNK N   1      19.986  13.009   5.412  0.00  0.00     0.205 C 
BRANCH  15  19
HETATM   19  C   UNK N   1      20.766  16.244   2.719  0.00  0.00     0.205 C 
BRANCH  19  20
HETATM   20  O   UNK N   1      19.853  17.165   3.238  0.00  0.00    -0.356 OA
BRANCH  20  21
HETATM   21  C   UNK N   1      20.566  18.352   3.395  0.00  0.00     0.291 C 
HETATM   22  O   UNK N   1      21.948  18.090   3.305  0.00  0.00    -0.351 OA
HETATM   23  C   UNK N   1      22.625  19.265   3.692  0.00  0.00     0.152 C 
HETATM   24  C   UNK N   1      22.414  20.357   2.635  0.00  0.00     0.178 C 
HETATM   25  C   UNK N   1      24.109  18.966   3.823  0.00  0.00     0.042 C 
HETATM   26  C   UNK N   1      20.917  20.629   2.505  0.00  0.00     0.183 C 
HETATM   27  C   UNK N   1      20.162  19.325   2.288  0.00  0.00     0.204 C 
BRANCH  24  28
HETATM   28  O   UNK N   1      23.066  21.531   3.016  0.00  0.00    -0.390 OA
HETATM   29  H   UNK N   1      23.986  21.596   3.316  0.00  0.00     0.210 HD
ENDBRANCH  24  28
BRANCH  26  30
HETATM   30  O   UNK N   1      20.679  21.500   1.442  0.00  0.00    -0.390 OA
HETATM   31  H   UNK N   1      19.783  21.672   1.114  0.00  0.00     0.210 HD
ENDBRANCH  26  30
BRANCH  27  32
HETATM   32  O   UNK N   1      18.787  19.561   2.334  0.00  0.00    -0.388 OA
HETATM   33  H   UNK N   1      18.070  18.970   2.613  0.00  0.00     0.210 HD
ENDBRANCH  27  32
ENDBRANCH  20  21
ENDBRANCH  19  20
ENDBRANCH  15  19
BRANCH  16  34
HETATM   34  O   UNK N   1      18.659  14.355   2.210  0.00  0.00    -0.390 OA
HETATM   35  H   UNK N   1      17.760  14.467   1.864  0.00  0.00     0.210 HD
ENDBRANCH  16  34
BRANCH  17  36
HETATM   36  O   UNK N   1      17.987  12.456   4.214  0.00  0.00    -0.390 OA
HETATM   37  H   UNK N   1      17.752  11.628   3.765  0.00  0.00     0.210 HD
ENDBRANCH  17  36
BRANCH  18  38
HETATM   38  O   UNK N   1      20.189  11.703   5.858  0.00  0.00    -0.388 OA
HETATM   39  H   UNK N   1      20.884  11.366   6.445  0.00  0.00     0.210 HD
ENDBRANCH  18  38
ENDBRANCH  12  13
ENDBRANCH   3  12
BRANCH   4  40
HETATM   40  C   UNK N   1      23.986  12.989   7.078  0.00  0.00     0.004 A 
HETATM   41  C   UNK N   1      23.105  13.753   7.851  0.00  0.00     0.054 A 
HETATM   42  C   UNK N   1      22.678  13.316   9.116  0.00  0.00     0.103 A 
HETATM   43  C   UNK N   1      23.131  12.086   9.612  0.00  0.00     0.102 A 
HETATM   44  C   UNK N   1      24.003  11.312   8.835  0.00  0.00     0.040 A 
HETATM   45  C   UNK N   1      24.427  11.763   7.585  0.00  0.00     0.017 A 
BRANCH  42  46
HETATM   46  O   UNK N   1      21.882  14.091   9.895  0.00  0.00    -0.346 OA
BRANCH  46  47
HETATM   47  C   UNK N   1      20.506  14.116   9.797  0.00  0.00     0.201 C 
BRANCH  47  48
HETATM   48  C   UNK N   1      20.034  15.321   9.009  0.00  0.00     0.190 C 
BRANCH  48  49
HETATM   49  O   UNK N   1      18.693  15.560   9.303  0.00  0.00    -0.399 OA
HETATM   50  H   UNK N   1      18.043  15.922   8.680  0.00  0.00     0.209 HD
ENDBRANCH  48  49
ENDBRANCH  47  48
ENDBRANCH  46  47
ENDBRANCH  42  46
BRANCH  43  51
HETATM   51  O   UNK N   1      22.748  11.703  10.857  0.00  0.00    -0.346 OA
BRANCH  51  52
HETATM   52  C   UNK N   1      23.579  11.655  11.961  0.00  0.00     0.201 C 
BRANCH  52  53
HETATM   53  C   UNK N   1      22.871  12.000  13.257  0.00  0.00     0.190 C 
BRANCH  53  54
HETATM   54  O   UNK N   1      23.801  12.492  14.171  0.00  0.00    -0.399 OA
HETATM   55  H   UNK N   1      24.235  11.968  14.863  0.00  0.00     0.209 HD
ENDBRANCH  53  54
ENDBRANCH  52  53
ENDBRANCH  51  52
ENDBRANCH  43  51
ENDBRANCH   4  40
BRANCH   8  56
HETATM   56  O   UNK N   1      25.394  15.193   1.083  0.00  0.00    -0.360 OA
HETATM   57  H   UNK N   1      25.671  14.706   0.333  0.00  0.00     0.217 HD
ENDBRANCH   8  56
BRANCH  11  58
HETATM   58  O   UNK N   1      29.387  15.999   3.552  0.00  0.00    -0.349 OA
BRANCH  58  59
HETATM   59  C   UNK N   1      29.854  16.789   4.585  0.00  0.00     0.201 C 
BRANCH  59  60
HETATM   60  C   UNK N   1      31.252  17.309   4.301  0.00  0.00     0.190 C 
BRANCH  60  61
HETATM   61  O   UNK N   1      31.491  17.256   2.928  0.00  0.00    -0.399 OA
HETATM   62  H   UNK N   1      30.777  17.061   2.301  0.00  0.00     0.209 HD
ENDBRANCH  60  61
ENDBRANCH  59  60
ENDBRANCH  58  59
ENDBRANCH  11  58
TORSDOF 25
ENDMDL
MODEL 2
REMARK VINA RESULT:      -7.7      4.571      9.627
REMARK  25 active torsions:
REMARK  status: ('A' for Active; 'I' for Inactive)
REMARK    1  A    between atoms: C_25  and  O_2 
REMARK    2  A    between atoms: O_2  and  C_29 
REMARK    3  A    between atoms: C_21  and  O_4 
REMARK    4  A    between atoms: C_22  and  O_5 
REMARK    5  A    between atoms: C_28  and  O_6 
REMARK    6  A    between atoms: O_6  and  C_32 
REMARK    7  A    between atoms: C_23  and  O_7 
REMARK    8  A    between atoms: C_24  and  O_8 
REMARK    9  A    between atoms: C_26  and  O_9 
REMARK   10  A    between atoms: C_27  and  O_10 
REMARK   11  A    between atoms: O_13  and  C_38 
REMARK   12  A    between atoms: O_14  and  C_43 
REMARK   13  A    between atoms: O_14  and  C_47 
REMARK   14  A    between atoms: O_15  and  C_44 
REMARK   15  A    between atoms: O_15  and  C_48 
REMARK   16  A    between atoms: O_16  and  C_46 
REMARK   17  A    between atoms: O_16  and  C_49 
REMARK   18  A    between atoms: O_17  and  C_50 
REMARK   19  A    between atoms: O_18  and  C_51 
REMARK   20  A    between atoms: O_19  and  C_52 
REMARK   21  A    between atoms: C_20  and  C_29 
REMARK   22  A    between atoms: C_33  and  C_36 
REMARK   23  A    between atoms: C_47  and  C_50 
REMARK   24  A    between atoms: C_48  and  C_51 
REMARK   25  A    between atoms: C_49  and  C_52 
ROOT
HETATM    1  O   UNK N   1      24.426  15.057   2.960  0.00  0.00    -0.306 OA
HETATM    2  O   UNK N   1      26.236  11.914   1.365  0.00  0.00    -0.284 OA
HETATM    3  C   UNK N   1      26.329  13.630   2.848  0.00  0.00     0.157 A 
HETATM    4  C   UNK N   1      25.656  14.762   3.383  0.00  0.00     0.124 A 
HETATM    5  C   UNK N   1      25.669  12.863   1.872  0.00  0.00     0.223 A 
HETATM    6  C   UNK N   1      24.358  13.195   1.486  0.00  0.00     0.084 A 
HETATM    7  C   UNK N   1      23.762  14.330   2.070  0.00  0.00     0.096 A 
HETATM    8  C   UNK N   1      23.617  12.437   0.548  0.00  0.00     0.085 A 
HETATM    9  C   UNK N   1      22.456  14.693   1.727  0.00  0.00     0.075 A 
HETATM   10  C   UNK N   1      22.310  12.803   0.231  0.00  0.00     0.074 A 
HETATM   11  C   UNK N   1      21.718  13.932   0.816  0.00  0.00     0.074 A 
ENDROOT
BRANCH   3  12
HETATM   12  O   UNK N   1      27.593  13.307   3.234  0.00  0.00    -0.311 OA
BRANCH  12  13
HETATM   13  C   UNK N   1      28.709  13.709   2.509  0.00  0.00     0.298 C 
HETATM   14  O   UNK N   1      29.399  14.773   3.141  0.00  0.00    -0.348 OA
HETATM   15  C   UNK N   1      29.915  14.292   4.363  0.00  0.00     0.180 C 
HETATM   16  C   UNK N   1      31.066  13.316   4.116  0.00  0.00     0.180 C 
HETATM   17  C   UNK N   1      30.459  12.107   3.417  0.00  0.00     0.183 C 
HETATM   18  C   UNK N   1      29.685  12.553   2.180  0.00  0.00     0.205 C 
BRANCH  15  19
HETATM   19  C   UNK N   1      30.268  15.436   5.290  0.00  0.00     0.205 C 
BRANCH  19  20
HETATM   20  O   UNK N   1      31.634  15.694   5.145  0.00  0.00    -0.356 OA
BRANCH  20  21
HETATM   21  C   UNK N   1      32.036  16.273   6.347  0.00  0.00     0.291 C 
HETATM   22  O   UNK N   1      32.269  15.263   7.304  0.00  0.00    -0.351 OA
HETATM   23  C   UNK N   1      32.450  15.899   8.550  0.00  0.00     0.152 C 
HETATM   24  C   UNK N   1      33.771  16.679   8.546  0.00  0.00     0.178 C 
HETATM   25  C   UNK N   1      32.484  14.848   9.646  0.00  0.00     0.042 C 
HETATM   26  C   UNK N   1      33.724  17.716   7.426  0.00  0.00     0.183 C 
HETATM   27  C   UNK N   1      33.327  17.056   6.113  0.00  0.00     0.204 C 
BRANCH  24  28
HETATM   28  O   UNK N   1      33.953  17.327   9.769  0.00  0.00    -0.390 OA
HETATM   29  H   UNK N   1      33.252  17.548  10.403  0.00  0.00     0.210 HD
ENDBRANCH  24  28
BRANCH  26  30
HETATM   30  O   UNK N   1      34.967  18.334   7.293  0.00  0.00    -0.390 OA
HETATM   31  H   UNK N   1      35.084  19.284   7.450  0.00  0.00     0.210 HD
ENDBRANCH  26  30
BRANCH  27  32
HETATM   32  O   UNK N   1      33.127  18.031   5.135  0.00  0.00    -0.388 OA
HETATM   33  H   UNK N   1      33.261  17.977   4.176  0.00  0.00     0.210 HD
ENDBRANCH  27  32
ENDBRANCH  20  21
ENDBRANCH  19  20
ENDBRANCH  15  19
BRANCH  16  34
HETATM   34  O   UNK N   1      31.638  12.907   5.324  0.00  0.00    -0.390 OA
HETATM   35  H   UNK N   1      31.363  13.021   6.247  0.00  0.00     0.210 HD
ENDBRANCH  16  34
BRANCH  17  36
HETATM   36  O   UNK N   1      31.463  11.207   3.054  0.00  0.00    -0.390 OA
HETATM   37  H   UNK N   1      31.435  10.291   3.373  0.00  0.00     0.210 HD
ENDBRANCH  17  36
BRANCH  18  38
HETATM   38  O   UNK N   1      29.015  11.465   1.620  0.00  0.00    -0.388 OA
HETATM   39  H   UNK N   1      29.323  10.550   1.524  0.00  0.00     0.210 HD
ENDBRANCH  18  38
ENDBRANCH  12  13
ENDBRANCH   3  12
BRANCH   4  40
HETATM   40  C   UNK N   1      26.262  15.671   4.390  0.00  0.00     0.004 A 
HETATM   41  C   UNK N   1      26.739  16.918   3.972  0.00  0.00     0.054 A 
HETATM   42  C   UNK N   1      27.359  17.801   4.872  0.00  0.00     0.103 A 
HETATM   43  C   UNK N   1      27.493  17.435   6.219  0.00  0.00     0.102 A 
HETATM   44  C   UNK N   1      27.005  16.192   6.644  0.00  0.00     0.040 A 
HETATM   45  C   UNK N   1      26.401  15.321   5.736  0.00  0.00     0.017 A 
BRANCH  42  46
HETATM   46  O   UNK N   1      27.885  18.979   4.452  0.00  0.00    -0.346 OA
BRANCH  46  47
HETATM   47  C   UNK N   1      27.125  20.045   4.018  0.00  0.00     0.201 C 
BRANCH  47  48
HETATM   48  C   UNK N   1      26.673  20.905   5.180  0.00  0.00     0.190 C 
BRANCH  48  49
HETATM   49  O   UNK N   1      27.736  21.072   6.065  0.00  0.00    -0.399 OA
HETATM   50  H   UNK N   1      28.068  21.927   6.381  0.00  0.00     0.209 HD
ENDBRANCH  48  49
ENDBRANCH  47  48
ENDBRANCH  46  47
ENDBRANCH  42  46
BRANCH  43  51
HETATM   51  O   UNK N   1      28.139  18.279   7.064  0.00  0.00    -0.346 OA
BRANCH  51  52
HETATM   52  C   UNK N   1      29.128  17.903   7.954  0.00  0.00     0.201 C 
BRANCH  52  53
HETATM   53  C   UNK N   1      28.678  17.951   9.401  0.00  0.00     0.190 C 
BRANCH  53  54
HETATM   54  O   UNK N   1      27.333  18.315   9.452  0.00  0.00    -0.399 OA
HETATM   55  H   UNK N   1      26.969  19.154   9.127  0.00  0.00     0.209 HD
ENDBRANCH  53  54
ENDBRANCH  52  53
ENDBRANCH  51  52
ENDBRANCH  43  51
ENDBRANCH   4  40
BRANCH   8  56
HETATM   56  O   UNK N   1      24.142  11.348  -0.037  0.00  0.00    -0.360 OA
HETATM   57  H   UNK N   1      24.736  10.799   0.435  0.00  0.00     0.217 HD
ENDBRANCH   8  56
BRANCH  11  58
HETATM   58  O   UNK N   1      20.438  14.288   0.540  0.00  0.00    -0.349 OA
BRANCH  58  59
HETATM   59  C   UNK N   1      19.796  15.378   1.095  0.00  0.00     0.201 C 
BRANCH  59  60
HETATM   60  C   UNK N   1      19.506  16.444   0.053  0.00  0.00     0.190 C 
BRANCH  60  61
HETATM   61  O   UNK N   1      18.132  16.681   0.009  0.00  0.00    -0.399 OA
HETATM   62  H   UNK N   1      17.776  17.513  -0.339  0.00  0.00     0.209 HD
ENDBRANCH  60  61
ENDBRANCH  59  60
ENDBRANCH  58  59
ENDBRANCH  11  58
TORSDOF 25
ENDMDL
MODEL 3
REMARK VINA RESULT:      -7.5      3.298      7.045
REMARK  25 active torsions:
REMARK  status: ('A' for Active; 'I' for Inactive)
REMARK    1  A    between atoms: C_25  and  O_2 
REMARK    2  A    between atoms: O_2  and  C_29 
REMARK    3  A    between atoms: C_21  and  O_4 
REMARK    4  A    between atoms: C_22  and  O_5 
REMARK    5  A    between atoms: C_28  and  O_6 
REMARK    6  A    between atoms: O_6  and  C_32 
REMARK    7  A    between atoms: C_23  and  O_7 
REMARK    8  A    between atoms: C_24  and  O_8 
REMARK    9  A    between atoms: C_26  and  O_9 
REMARK   10  A    between atoms: C_27  and  O_10 
REMARK   11  A    between atoms: O_13  and  C_38 
REMARK   12  A    between atoms: O_14  and  C_43 
REMARK   13  A    between atoms: O_14  and  C_47 
REMARK   14  A    between atoms: O_15  and  C_44 
REMARK   15  A    between atoms: O_15  and  C_48 
REMARK   16  A    between atoms: O_16  and  C_46 
REMARK   17  A    between atoms: O_16  and  C_49 
REMARK   18  A    between atoms: O_17  and  C_50 
REMARK   19  A    between atoms: O_18  and  C_51 
REMARK   20  A    between atoms: O_19  and  C_52 
REMARK   21  A    between atoms: C_20  and  C_29 
REMARK   22  A    between atoms: C_33  and  C_36 
REMARK   23  A    between atoms: C_47  and  C_50 
REMARK   24  A    between atoms: C_48  and  C_51 
REMARK   25  A    between atoms: C_49  and  C_52 
ROOT
HETATM    1  O   UNK N   1      27.448  17.769   5.554  0.00  0.00    -0.306 OA
HETATM    2  O   UNK N   1      28.194  14.117   4.211  0.00  0.00    -0.284 OA
HETATM    3  C   UNK N   1      26.836  15.935   4.164  0.00  0.00     0.157 A 
HETATM    4  C   UNK N   1      26.590  17.236   4.682  0.00  0.00     0.124 A 
HETATM    5  C   UNK N   1      27.980  15.247   4.604  0.00  0.00     0.223 A 
HETATM    6  C   UNK N   1      28.872  15.868   5.498  0.00  0.00     0.084 A 
HETATM    7  C   UNK N   1      28.556  17.161   5.959  0.00  0.00     0.096 A 
HETATM    8  C   UNK N   1      30.067  15.255   5.942  0.00  0.00     0.085 A 
HETATM    9  C   UNK N   1      29.417  17.824   6.839  0.00  0.00     0.075 A 
HETATM   10  C   UNK N   1      30.923  15.937   6.806  0.00  0.00     0.074 A 
HETATM   11  C   UNK N   1      30.607  17.225   7.260  0.00  0.00     0.074 A 
ENDROOT
BRANCH   3  12
HETATM   12  O   UNK N   1      25.977  15.344   3.290  0.00  0.00    -0.311 OA
BRANCH  12  13
HETATM   13  C   UNK N   1      25.272  14.190   3.618  0.00  0.00     0.298 C 
HETATM   14  O   UNK N   1      23.892  14.445   3.811  0.00  0.00    -0.348 OA
HETATM   15  C   UNK N   1      23.350  14.862   2.577  0.00  0.00     0.180 C 
HETATM   16  C   UNK N   1      23.287  13.692   1.593  0.00  0.00     0.180 C 
HETATM   17  C   UNK N   1      24.729  13.300   1.302  0.00  0.00     0.183 C 
HETATM   18  C   UNK N   1      25.472  13.034   2.608  0.00  0.00     0.205 C 
BRANCH  15  19
HETATM   19  C   UNK N   1      22.026  15.568   2.777  0.00  0.00     0.205 C 
BRANCH  19  20
HETATM   20  O   UNK N   1      21.483  15.119   3.983  0.00  0.00    -0.356 OA
BRANCH  20  21
HETATM   21  C   UNK N   1      20.277  14.507   3.647  0.00  0.00     0.291 C 
HETATM   22  O   UNK N   1      20.270  14.198   2.270  0.00  0.00    -0.351 OA
HETATM   23  C   UNK N   1      18.961  13.795   1.937  0.00  0.00     0.152 C 
HETATM   24  C   UNK N   1      18.652  12.442   2.593  0.00  0.00     0.178 C 
HETATM   25  C   UNK N   1      18.847  13.665   0.427  0.00  0.00     0.042 C 
HETATM   26  C   UNK N   1      18.789  12.590   4.106  0.00  0.00     0.183 C 
HETATM   27  C   UNK N   1      20.132  13.218   4.454  0.00  0.00     0.204 C 
BRANCH  24  28
HETATM   28  O   UNK N   1      17.351  12.041   2.283  0.00  0.00    -0.390 OA
HETATM   29  H   UNK N   1      16.571  12.618   2.257  0.00  0.00     0.210 HD
ENDBRANCH  24  28
BRANCH  26  30
HETATM   30  O   UNK N   1      18.671  11.344   4.721  0.00  0.00    -0.390 OA
HETATM   31  H   UNK N   1      17.883  11.099   5.231  0.00  0.00     0.210 HD
ENDBRANCH  26  30
BRANCH  27  32
HETATM   32  O   UNK N   1      20.182  13.499   5.820  0.00  0.00    -0.388 OA
HETATM   33  H   UNK N   1      20.100  14.351   6.277  0.00  0.00     0.210 HD
ENDBRANCH  27  32
ENDBRANCH  20  21
ENDBRANCH  19  20
ENDBRANCH  15  19
BRANCH  16  34
HETATM   34  O   UNK N   1      22.668  14.079   0.402  0.00  0.00    -0.390 OA
HETATM   35  H   UNK N   1      22.473  13.598  -0.418  0.00  0.00     0.210 HD
ENDBRANCH  16  34
BRANCH  17  36
HETATM   36  O   UNK N   1      24.764  12.163   0.491  0.00  0.00    -0.390 OA
HETATM   37  H   UNK N   1      24.693  12.249  -0.472  0.00  0.00     0.210 HD
ENDBRANCH  17  36
BRANCH  18  38
HETATM   38  O   UNK N   1      26.824  12.811   2.349  0.00  0.00    -0.388 OA
HETATM   39  H   UNK N   1      27.225  12.225   1.687  0.00  0.00     0.210 HD
ENDBRANCH  18  38
ENDBRANCH  12  13
ENDBRANCH   3  12
BRANCH   4  40
HETATM   40  C   UNK N   1      25.398  18.045   4.322  0.00  0.00     0.004 A 
HETATM   41  C   UNK N   1      24.164  17.720   4.897  0.00  0.00     0.054 A 
HETATM   42  C   UNK N   1      22.995  18.425   4.562  0.00  0.00     0.103 A 
HETATM   43  C   UNK N   1      23.064  19.482   3.645  0.00  0.00     0.102 A 
HETATM   44  C   UNK N   1      24.300  19.819   3.077  0.00  0.00     0.040 A 
HETATM   45  C   UNK N   1      25.451  19.103   3.411  0.00  0.00     0.017 A 
BRANCH  42  46
HETATM   46  O   UNK N   1      21.788  18.063   5.065  0.00  0.00    -0.346 OA
BRANCH  46  47
HETATM   47  C   UNK N   1      21.433  18.215   6.389  0.00  0.00     0.201 C 
BRANCH  47  48
HETATM   48  C   UNK N   1      20.806  16.950   6.938  0.00  0.00     0.190 C 
BRANCH  48  49
HETATM   49  O   UNK N   1      21.688  15.887   6.753  0.00  0.00    -0.399 OA
HETATM   50  H   UNK N   1      22.378  15.849   6.072  0.00  0.00     0.209 HD
ENDBRANCH  48  49
ENDBRANCH  47  48
ENDBRANCH  46  47
ENDBRANCH  42  46
BRANCH  43  51
HETATM   51  O   UNK N   1      21.917  20.119   3.295  0.00  0.00    -0.346 OA
BRANCH  51  52
HETATM   52  C   UNK N   1      21.107  19.764   2.233  0.00  0.00     0.201 C 
BRANCH  52  53
HETATM   53  C   UNK N   1      20.742  20.936   1.342  0.00  0.00     0.190 C 
BRANCH  53  54
HETATM   54  O   UNK N   1      20.680  20.504   0.018  0.00  0.00    -0.399 OA
HETATM   55  H   UNK N   1      21.071  20.968  -0.739  0.00  0.00     0.209 HD
ENDBRANCH  53  54
ENDBRANCH  52  53
ENDBRANCH  51  52
ENDBRANCH  43  51
ENDBRANCH   4  40
BRANCH   8  56
HETATM   56  O   UNK N   1      30.411  14.023   5.532  0.00  0.00    -0.360 OA
HETATM   57  H   UNK N   1      29.824  13.304   5.652  0.00  0.00     0.217 HD
ENDBRANCH   8  56
BRANCH  11  58
HETATM   58  O   UNK N   1      31.442  17.914   8.079  0.00  0.00    -0.349 OA
BRANCH  58  59
HETATM   59  C   UNK N   1      32.687  17.467   8.477  0.00  0.00     0.201 C 
BRANCH  59  60
HETATM   60  C   UNK N   1      33.785  17.989   7.566  0.00  0.00     0.190 C 
BRANCH  60  61
HETATM   61  O   UNK N   1      34.550  18.925   8.259  0.00  0.00    -0.399 OA
HETATM   62  H   UNK N   1      34.907  18.730   9.140  0.00  0.00     0.209 HD
ENDBRANCH  60  61
ENDBRANCH  59  60
ENDBRANCH  58  59
ENDBRANCH  11  58
TORSDOF 25
ENDMDL
MODEL 4
REMARK VINA RESULT:      -7.4      3.612      6.711
REMARK  25 active torsions:
REMARK  status: ('A' for Active; 'I' for Inactive)
REMARK    1  A    between atoms: C_25  and  O_2 
REMARK    2  A    between atoms: O_2  and  C_29 
REMARK    3  A    between atoms: C_21  and  O_4 
REMARK    4  A    between atoms: C_22  and  O_5 
REMARK    5  A    between atoms: C_28  and  O_6 
REMARK    6  A    between atoms: O_6  and  C_32 
REMARK    7  A    between atoms: C_23  and  O_7 
REMARK    8  A    between atoms: C_24  and  O_8 
REMARK    9  A    between atoms: C_26  and  O_9 
REMARK   10  A    between atoms: C_27  and  O_10 
REMARK   11  A    between atoms: O_13  and  C_38 
REMARK   12  A    between atoms: O_14  and  C_43 
REMARK   13  A    between atoms: O_14  and  C_47 
REMARK   14  A    between atoms: O_15  and  C_44 
REMARK   15  A    between atoms: O_15  and  C_48 
REMARK   16  A    between atoms: O_16  and  C_46 
REMARK   17  A    between atoms: O_16  and  C_49 
REMARK   18  A    between atoms: O_17  and  C_50 
REMARK   19  A    between atoms: O_18  and  C_51 
REMARK   20  A    between atoms: O_19  and  C_52 
REMARK   21  A    between atoms: C_20  and  C_29 
REMARK   22  A    between atoms: C_33  and  C_36 
REMARK   23  A    between atoms: C_47  and  C_50 
REMARK   24  A    between atoms: C_48  and  C_51 
REMARK   25  A    between atoms: C_49  and  C_52 
ROOT
HETATM    1  O   UNK N   1      29.594  16.382   5.086  0.00  0.00    -0.306 OA
HETATM    2  O   UNK N   1      30.743  13.561   2.552  0.00  0.00    -0.284 OA
HETATM    3  C   UNK N   1      29.023  14.688   3.513  0.00  0.00     0.157 A 
HETATM    4  C   UNK N   1      28.648  15.694   4.445  0.00  0.00     0.124 A 
HETATM    5  C   UNK N   1      30.392  14.444   3.311  0.00  0.00     0.223 A 
HETATM    6  C   UNK N   1      31.351  15.221   3.986  0.00  0.00     0.084 A 
HETATM    7  C   UNK N   1      30.894  16.202   4.888  0.00  0.00     0.096 A 
HETATM    8  C   UNK N   1      32.744  15.064   3.791  0.00  0.00     0.085 A 
HETATM    9  C   UNK N   1      31.809  17.007   5.574  0.00  0.00     0.075 A 
HETATM   10  C   UNK N   1      33.641  15.887   4.470  0.00  0.00     0.074 A 
HETATM   11  C   UNK N   1      33.183  16.865   5.365  0.00  0.00     0.074 A 
ENDROOT
BRANCH   3  12
HETATM   12  O   UNK N   1      28.091  13.948   2.854  0.00  0.00    -0.311 OA
BRANCH  12  13
HETATM   13  C   UNK N   1      27.540  12.796   3.407  0.00  0.00     0.298 C 
HETATM   14  O   UNK N   1      26.187  12.980   3.783  0.00  0.00    -0.348 OA
HETATM   15  C   UNK N   1      25.438  13.213   2.611  0.00  0.00     0.180 C 
HETATM   16  C   UNK N   1      25.328  11.935   1.778  0.00  0.00     0.180 C 
HETATM   17  C   UNK N   1      26.739  11.607   1.310  0.00  0.00     0.183 C 
HETATM   18  C   UNK N   1      27.685  11.546   2.505  0.00  0.00     0.205 C 
BRANCH  15  19
HETATM   19  C   UNK N   1      24.103  13.849   2.937  0.00  0.00     0.205 C 
BRANCH  19  20
HETATM   20  O   UNK N   1      23.886  14.878   2.018  0.00  0.00    -0.356 OA
BRANCH  20  21
HETATM   21  C   UNK N   1      22.532  14.814   1.695  0.00  0.00     0.291 C 
HETATM   22  O   UNK N   1      22.131  13.465   1.600  0.00  0.00    -0.351 OA
HETATM   23  C   UNK N   1      20.830  13.451   1.057  0.00  0.00     0.152 C 
HETATM   24  C   UNK N   1      19.838  14.033   2.074  0.00  0.00     0.178 C 
HETATM   25  C   UNK N   1      20.441  12.019   0.731  0.00  0.00     0.042 C 
HETATM   26  C   UNK N   1      20.256  15.464   2.402  0.00  0.00     0.183 C 
HETATM   27  C   UNK N   1      21.727  15.505   2.795  0.00  0.00     0.204 C 
BRANCH  24  28
HETATM   28  O   UNK N   1      18.548  14.039   1.540  0.00  0.00    -0.390 OA
HETATM   29  H   UNK N   1      17.808  14.585   1.851  0.00  0.00     0.210 HD
ENDBRANCH  24  28
BRANCH  26  30
HETATM   30  O   UNK N   1      19.471  15.966   3.439  0.00  0.00    -0.390 OA
HETATM   31  H   UNK N   1      18.888  16.732   3.313  0.00  0.00     0.210 HD
ENDBRANCH  26  30
BRANCH  27  32
HETATM   32  O   UNK N   1      22.142  16.830   2.934  0.00  0.00    -0.388 OA
HETATM   33  H   UNK N   1      22.123  17.552   2.287  0.00  0.00     0.210 HD
ENDBRANCH  27  32
ENDBRANCH  20  21
ENDBRANCH  19  20
ENDBRANCH  15  19
BRANCH  16  34
HETATM   34  O   UNK N   1      24.511  12.139   0.662  0.00  0.00    -0.390 OA
HETATM   35  H   UNK N   1      24.303  12.931   0.142  0.00  0.00     0.210 HD
ENDBRANCH  16  34
BRANCH  17  36
HETATM   36  O   UNK N   1      26.749  10.389   0.628  0.00  0.00    -0.390 OA
HETATM   37  H   UNK N   1      25.982   9.797   0.676  0.00  0.00     0.210 HD
ENDBRANCH  17  36
BRANCH  18  38
HETATM   38  O   UNK N   1      28.998  11.383   2.066  0.00  0.00    -0.388 OA
HETATM   39  H   UNK N   1      29.317  10.943   1.261  0.00  0.00     0.210 HD
ENDBRANCH  18  38
ENDBRANCH  12  13
ENDBRANCH   3  12
BRANCH   4  40
HETATM   40  C   UNK N   1      27.235  16.018   4.772  0.00  0.00     0.004 A 
HETATM   41  C   UNK N   1      26.541  16.913   3.949  0.00  0.00     0.054 A 
HETATM   42  C   UNK N   1      25.217  17.287   4.234  0.00  0.00     0.103 A 
HETATM   43  C   UNK N   1      24.571  16.747   5.354  0.00  0.00     0.102 A 
HETATM   44  C   UNK N   1      25.258  15.841   6.172  0.00  0.00     0.040 A 
HETATM   45  C   UNK N   1      26.577  15.486   5.884  0.00  0.00     0.017 A 
BRANCH  42  46
HETATM   46  O   UNK N   1      24.570  18.209   3.477  0.00  0.00    -0.346 OA
BRANCH  46  47
HETATM   47  C   UNK N   1      24.890  19.551   3.465  0.00  0.00     0.201 C 
BRANCH  47  48
HETATM   48  C   UNK N   1      23.689  20.398   3.098  0.00  0.00     0.190 C 
BRANCH  48  49
HETATM   49  O   UNK N   1      22.535  19.786   3.584  0.00  0.00    -0.399 OA
HETATM   50  H   UNK N   1      22.335  18.839   3.510  0.00  0.00     0.209 HD
ENDBRANCH  48  49
ENDBRANCH  47  48
ENDBRANCH  46  47
ENDBRANCH  42  46
BRANCH  43  51
HETATM   51  O   UNK N   1      23.309  17.158   5.641  0.00  0.00    -0.346 OA
BRANCH  51  52
HETATM   52  C   UNK N   1      22.393  16.439   6.387  0.00  0.00     0.201 C 
BRANCH  52  53
HETATM   53  C   UNK N   1      21.010  17.061   6.394  0.00  0.00     0.190 C 
BRANCH  53  54
HETATM   54  O   UNK N   1      20.882  17.908   5.294  0.00  0.00    -0.399 OA
HETATM   55  H   UNK N   1      21.581  18.090   4.645  0.00  0.00     0.209 HD
ENDBRANCH  53  54
ENDBRANCH  52  53
ENDBRANCH  51  52
ENDBRANCH  43  51
ENDBRANCH   4  40
BRANCH   8  56
HETATM   56  O   UNK N   1      33.228  14.143   2.944  0.00  0.00    -0.360 OA
HETATM   57  H   UNK N   1      34.019  13.684   3.146  0.00  0.00     0.217 HD
ENDBRANCH   8  56
BRANCH  11  58
HETATM   58  O   UNK N   1      34.040  17.693   6.014  0.00  0.00    -0.349 OA
BRANCH  58  59
HETATM   59  C   UNK N   1      33.931  18.036   7.348  0.00  0.00     0.201 C 
BRANCH  59  60
HETATM   60  C   UNK N   1      34.377  16.901   8.254  0.00  0.00     0.190 C 
BRANCH  60  61
HETATM   61  O   UNK N   1      33.581  16.887   9.398  0.00  0.00    -0.399 OA
HETATM   62  H   UNK N   1      33.270  17.711   9.805  0.00  0.00     0.209 HD
ENDBRANCH  60  61
ENDBRANCH  59  60
ENDBRANCH  58  59
ENDBRANCH  11  58
TORSDOF 25
ENDMDL
MODEL 5
REMARK VINA RESULT:      -7.4      2.766      7.760
REMARK  25 active torsions:
REMARK  status: ('A' for Active; 'I' for Inactive)
REMARK    1  A    between atoms: C_25  and  O_2 
REMARK    2  A    between atoms: O_2  and  C_29 
REMARK    3  A    between atoms: C_21  and  O_4 
REMARK    4  A    between atoms: C_22  and  O_5 
REMARK    5  A    between atoms: C_28  and  O_6 
REMARK    6  A    between atoms: O_6  and  C_32 
REMARK    7  A    between atoms: C_23  and  O_7 
REMARK    8  A    between atoms: C_24  and  O_8 
REMARK    9  A    between atoms: C_26  and  O_9 
REMARK   10  A    between atoms: C_27  and  O_10 
REMARK   11  A    between atoms: O_13  and  C_38 
REMARK   12  A    between atoms: O_14  and  C_43 
REMARK   13  A    between atoms: O_14  and  C_47 
REMARK   14  A    between atoms: O_15  and  C_44 
REMARK   15  A    between atoms: O_15  and  C_48 
REMARK   16  A    between atoms: O_16  and  C_46 
REMARK   17  A    between atoms: O_16  and  C_49 
REMARK   18  A    between atoms: O_17  and  C_50 
REMARK   19  A    between atoms: O_18  and  C_51 
REMARK   20  A    between atoms: O_19  and  C_52 
REMARK   21  A    between atoms: C_20  and  C_29 
REMARK   22  A    between atoms: C_33  and  C_36 
REMARK   23  A    between atoms: C_47  and  C_50 
REMARK   24  A    between atoms: C_48  and  C_51 
REMARK   25  A    between atoms: C_49  and  C_52 
ROOT
HETATM    1  O   UNK N   1      23.118  16.656   4.680  0.00  0.00    -0.306 OA
HETATM    2  O   UNK N   1      26.770  17.872   3.736  0.00  0.00    -0.284 OA
HETATM    3  C   UNK N   1      25.449  16.198   4.514  0.00  0.00     0.157 A 
HETATM    4  C   UNK N   1      24.128  15.803   4.861  0.00  0.00     0.124 A 
HETATM    5  C   UNK N   1      25.645  17.492   4.001  0.00  0.00     0.223 A 
HETATM    6  C   UNK N   1      24.542  18.341   3.797  0.00  0.00     0.084 A 
HETATM    7  C   UNK N   1      23.266  17.869   4.161  0.00  0.00     0.096 A 
HETATM    8  C   UNK N   1      24.661  19.634   3.237  0.00  0.00     0.085 A 
HETATM    9  C   UNK N   1      22.137  18.671   3.966  0.00  0.00     0.075 A 
HETATM   10  C   UNK N   1      23.524  20.415   3.032  0.00  0.00     0.074 A 
HETATM   11  C   UNK N   1      22.254  19.941   3.394  0.00  0.00     0.074 A 
ENDROOT
BRANCH   3  12
HETATM   12  O   UNK N   1      26.511  15.368   4.703  0.00  0.00    -0.311 OA
BRANCH  12  13
HETATM   13  C   UNK N   1      27.227  14.835   3.637  0.00  0.00     0.298 C 
HETATM   14  O   UNK N   1      28.404  15.574   3.362  0.00  0.00    -0.348 OA
HETATM   15  C   UNK N   1      29.264  15.452   4.473  0.00  0.00     0.180 C 
HETATM   16  C   UNK N   1      29.835  14.035   4.560  0.00  0.00     0.180 C 
HETATM   17  C   UNK N   1      28.655  13.116   4.845  0.00  0.00     0.183 C 
HETATM   18  C   UNK N   1      27.560  13.332   3.804  0.00  0.00     0.205 C 
BRANCH  15  19
HETATM   19  C   UNK N   1      30.318  16.538   4.466  0.00  0.00     0.205 C 
BRANCH  19  20
HETATM   20  O   UNK N   1      29.814  17.625   5.184  0.00  0.00    -0.356 OA
BRANCH  20  21
HETATM   21  C   UNK N   1      29.710  17.187   6.503  0.00  0.00     0.291 C 
HETATM   22  O   UNK N   1      30.946  17.360   7.159  0.00  0.00    -0.351 OA
HETATM   23  C   UNK N   1      30.858  16.702   8.403  0.00  0.00     0.152 C 
HETATM   24  C   UNK N   1      29.879  17.452   9.316  0.00  0.00     0.178 C 
HETATM   25  C   UNK N   1      32.233  16.671   9.049  0.00  0.00     0.042 C 
HETATM   26  C   UNK N   1      28.510  17.489   8.641  0.00  0.00     0.183 C 
HETATM   27  C   UNK N   1      28.640  18.012   7.217  0.00  0.00     0.204 C 
BRANCH  24  28
HETATM   28  O   UNK N   1      29.770  16.800  10.546  0.00  0.00    -0.390 OA
HETATM   29  H   UNK N   1      30.509  16.556  11.126  0.00  0.00     0.210 HD
ENDBRANCH  24  28
BRANCH  26  30
HETATM   30  O   UNK N   1      27.639  18.298   9.370  0.00  0.00    -0.390 OA
HETATM   31  H   UNK N   1      27.659  18.326  10.339  0.00  0.00     0.210 HD
ENDBRANCH  26  30
BRANCH  27  32
HETATM   32  O   UNK N   1      27.417  17.889   6.555  0.00  0.00    -0.388 OA
HETATM   33  H   UNK N   1      26.611  18.421   6.647  0.00  0.00     0.210 HD
ENDBRANCH  27  32
ENDBRANCH  20  21
ENDBRANCH  19  20
ENDBRANCH  15  19
BRANCH  16  34
HETATM   34  O   UNK N   1      30.756  13.935   5.606  0.00  0.00    -0.390 OA
HETATM   35  H   UNK N   1      31.724  13.875   5.618  0.00  0.00     0.210 HD
ENDBRANCH  16  34
BRANCH  17  36
HETATM   36  O   UNK N   1      29.070  11.783   4.833  0.00  0.00    -0.390 OA
HETATM   37  H   UNK N   1      29.659  11.461   4.132  0.00  0.00     0.210 HD
ENDBRANCH  17  36
BRANCH  18  38
HETATM   38  O   UNK N   1      26.427  12.593   4.143  0.00  0.00    -0.388 OA
HETATM   39  H   UNK N   1      25.760  12.206   3.555  0.00  0.00     0.210 HD
ENDBRANCH  18  38
ENDBRANCH  12  13
ENDBRANCH   3  12
BRANCH   4  40
HETATM   40  C   UNK N   1      23.799  14.478   5.446  0.00  0.00     0.004 A 
HETATM   41  C   UNK N   1      24.127  14.233   6.784  0.00  0.00     0.054 A 
HETATM   42  C   UNK N   1      23.877  12.984   7.378  0.00  0.00     0.103 A 
HETATM   43  C   UNK N   1      23.278  11.966   6.624  0.00  0.00     0.102 A 
HETATM   44  C   UNK N   1      22.937  12.212   5.287  0.00  0.00     0.040 A 
HETATM   45  C   UNK N   1      23.200  13.454   4.707  0.00  0.00     0.017 A 
BRANCH  42  46
HETATM   46  O   UNK N   1      24.260  12.724   8.654  0.00  0.00    -0.346 OA
BRANCH  46  47
HETATM   47  C   UNK N   1      23.476  12.987   9.758  0.00  0.00     0.201 C 
BRANCH  47  48
HETATM   48  C   UNK N   1      23.780  12.026  10.889  0.00  0.00     0.190 C 
BRANCH  48  49
HETATM   49  O   UNK N   1      22.605  11.380  11.266  0.00  0.00    -0.399 OA
HETATM   50  H   UNK N   1      22.016  11.669  11.980  0.00  0.00     0.209 HD
ENDBRANCH  48  49
ENDBRANCH  47  48
ENDBRANCH  46  47
ENDBRANCH  42  46
BRANCH  43  51
HETATM   51  O   UNK N   1      23.090  10.751   7.200  0.00  0.00    -0.346 OA
BRANCH  51  52
HETATM   52  C   UNK N   1      23.862   9.631   6.954  0.00  0.00     0.201 C 
BRANCH  52  53
HETATM   53  C   UNK N   1      23.086   8.503   6.301  0.00  0.00     0.190 C 
BRANCH  53  54
HETATM   54  O   UNK N   1      23.175   8.626   4.915  0.00  0.00    -0.399 OA
HETATM   55  H   UNK N   1      23.985   8.507   4.395  0.00  0.00     0.209 HD
ENDBRANCH  53  54
ENDBRANCH  52  53
ENDBRANCH  51  52
ENDBRANCH  43  51
ENDBRANCH   4  40
BRANCH   8  56
HETATM   56  O   UNK N   1      25.856  20.129   2.875  0.00  0.00    -0.360 OA
HETATM   57  H   UNK N   1      26.479  19.585   2.436  0.00  0.00     0.217 HD
ENDBRANCH   8  56
BRANCH  11  58
HETATM   58  O   UNK N   1      21.134  20.675   3.178  0.00  0.00    -0.349 OA
BRANCH  58  59
HETATM   59  C   UNK N   1      20.239  20.446   2.149  0.00  0.00     0.201 C 
BRANCH  59  60
HETATM   60  C   UNK N   1      20.615  21.224   0.900  0.00  0.00     0.190 C 
BRANCH  60  61
HETATM   61  O   UNK N   1      20.614  20.361  -0.196  0.00  0.00    -0.399 OA
HETATM   62  H   UNK N   1      20.458  20.691  -1.095  0.00  0.00     0.209 HD
ENDBRANCH  60  61
ENDBRANCH  59  60
ENDBRANCH  58  59
ENDBRANCH  11  58
TORSDOF 25
ENDMDL
MODEL 6
REMARK VINA RESULT:      -7.4      1.342      2.325
REMARK  25 active torsions:
REMARK  status: ('A' for Active; 'I' for Inactive)
REMARK    1  A    between atoms: C_25  and  O_2 
REMARK    2  A    between atoms: O_2  and  C_29 
REMARK    3  A    between atoms: C_21  and  O_4 
REMARK    4  A    between atoms: C_22  and  O_5 
REMARK    5  A    between atoms: C_28  and  O_6 
REMARK    6  A    between atoms: O_6  and  C_32 
REMARK    7  A    between atoms: C_23  and  O_7 
REMARK    8  A    between atoms: C_24  and  O_8 
REMARK    9  A    between atoms: C_26  and  O_9 
REMARK   10  A    between atoms: C_27  and  O_10 
REMARK   11  A    between atoms: O_13  and  C_38 
REMARK   12  A    between atoms: O_14  and  C_43 
REMARK   13  A    between atoms: O_14  and  C_47 
REMARK   14  A    between atoms: O_15  and  C_44 
REMARK   15  A    between atoms: O_15  and  C_48 
REMARK   16  A    between atoms: O_16  and  C_46 
REMARK   17  A    between atoms: O_16  and  C_49 
REMARK   18  A    between atoms: O_17  and  C_50 
REMARK   19  A    between atoms: O_18  and  C_51 
REMARK   20  A    between atoms: O_19  and  C_52 
REMARK   21  A    between atoms: C_20  and  C_29 
REMARK   22  A    between atoms: C_33  and  C_36 
REMARK   23  A    between atoms: C_47  and  C_50 
REMARK   24  A    between atoms: C_48  and  C_51 
REMARK   25  A    between atoms: C_49  and  C_52 
ROOT
HETATM    1  O   UNK N   1      26.164  13.952   5.643  0.00  0.00    -0.306 OA
HETATM    2  O   UNK N   1      23.989  14.371   2.357  0.00  0.00    -0.284 OA
HETATM    3  C   UNK N   1      24.069  13.731   4.534  0.00  0.00     0.157 A 
HETATM    4  C   UNK N   1      24.885  13.577   5.687  0.00  0.00     0.124 A 
HETATM    5  C   UNK N   1      24.651  14.267   3.372  0.00  0.00     0.223 A 
HETATM    6  C   UNK N   1      25.996  14.681   3.388  0.00  0.00     0.084 A 
HETATM    7  C   UNK N   1      26.732  14.498   4.575  0.00  0.00     0.096 A 
HETATM    8  C   UNK N   1      26.630  15.275   2.272  0.00  0.00     0.085 A 
HETATM    9  C   UNK N   1      28.069  14.904   4.643  0.00  0.00     0.075 A 
HETATM   10  C   UNK N   1      27.958  15.691   2.362  0.00  0.00     0.074 A 
HETATM   11  C   UNK N   1      28.688  15.510   3.546  0.00  0.00     0.074 A 
ENDROOT
BRANCH   3  12
HETATM   12  O   UNK N   1      22.765  13.340   4.528  0.00  0.00    -0.311 OA
BRANCH  12  13
HETATM   13  C   UNK N   1      21.801  13.983   5.296  0.00  0.00     0.298 C 
HETATM   14  O   UNK N   1      21.454  15.250   4.765  0.00  0.00    -0.348 OA
HETATM   15  C   UNK N   1      20.840  15.043   3.512  0.00  0.00     0.180 C 
HETATM   16  C   UNK N   1      19.454  14.421   3.686  0.00  0.00     0.180 C 
HETATM   17  C   UNK N   1      19.678  13.034   4.273  0.00  0.00     0.183 C 
HETATM   18  C   UNK N   1      20.530  13.132   5.535  0.00  0.00     0.205 C 
BRANCH  15  19
HETATM   19  C   UNK N   1      20.843  16.314   2.689  0.00  0.00     0.205 C 
BRANCH  19  20
HETATM   20  O   UNK N   1      19.943  17.204   3.280  0.00  0.00    -0.356 OA
BRANCH  20  21
HETATM   21  C   UNK N   1      20.637  18.405   3.416  0.00  0.00     0.291 C 
HETATM   22  O   UNK N   1      22.023  18.163   3.330  0.00  0.00    -0.351 OA
HETATM   23  C   UNK N   1      22.682  19.355   3.695  0.00  0.00     0.152 C 
HETATM   24  C   UNK N   1      22.453  20.424   2.619  0.00  0.00     0.178 C 
HETATM   25  C   UNK N   1      24.170  19.082   3.831  0.00  0.00     0.042 C 
HETATM   26  C   UNK N   1      20.952  20.670   2.485  0.00  0.00     0.183 C 
HETATM   27  C   UNK N   1      20.217  19.351   2.292  0.00  0.00     0.204 C 
BRANCH  24  28
HETATM   28  O   UNK N   1      23.086  21.615   2.979  0.00  0.00    -0.390 OA
HETATM   29  H   UNK N   1      22.831  22.504   2.685  0.00  0.00     0.210 HD
ENDBRANCH  24  28
BRANCH  26  30
HETATM   30  O   UNK N   1      20.700  21.519   1.407  0.00  0.00    -0.390 OA
HETATM   31  H   UNK N   1      21.345  21.641   0.692  0.00  0.00     0.210 HD
ENDBRANCH  26  30
BRANCH  27  32
HETATM   32  O   UNK N   1      18.839  19.566   2.334  0.00  0.00    -0.388 OA
HETATM   33  H   UNK N   1      18.339  20.386   2.193  0.00  0.00     0.210 HD
ENDBRANCH  27  32
ENDBRANCH  20  21
ENDBRANCH  19  20
ENDBRANCH  15  19
BRANCH  16  34
HETATM   34  O   UNK N   1      18.806  14.298   2.454  0.00  0.00    -0.390 OA
HETATM   35  H   UNK N   1      18.113  13.697   2.139  0.00  0.00     0.210 HD
ENDBRANCH  16  34
BRANCH  17  36
HETATM   36  O   UNK N   1      18.453  12.432   4.567  0.00  0.00    -0.390 OA
HETATM   37  H   UNK N   1      18.409  11.480   4.749  0.00  0.00     0.210 HD
ENDBRANCH  17  36
BRANCH  18  38
HETATM   38  O   UNK N   1      20.851  11.854   5.993  0.00  0.00    -0.388 OA
HETATM   39  H   UNK N   1      21.641  11.324   5.801  0.00  0.00     0.210 HD
ENDBRANCH  18  38
ENDBRANCH  12  13
ENDBRANCH   3  12
BRANCH   4  40
HETATM   40  C   UNK N   1      24.394  12.988   6.961  0.00  0.00     0.004 A 
HETATM   41  C   UNK N   1      24.192  11.605   7.029  0.00  0.00     0.054 A 
HETATM   42  C   UNK N   1      23.691  10.999   8.194  0.00  0.00     0.103 A 
HETATM   43  C   UNK N   1      23.399  11.789   9.314  0.00  0.00     0.102 A 
HETATM   44  C   UNK N   1      23.612  13.173   9.253  0.00  0.00     0.040 A 
HETATM   45  C   UNK N   1      24.101  13.763   8.086  0.00  0.00     0.017 A 
BRANCH  42  46
HETATM   46  O   UNK N   1      23.427   9.669   8.236  0.00  0.00    -0.346 OA
BRANCH  46  47
HETATM   47  C   UNK N   1      23.981   8.751   7.369  0.00  0.00     0.201 C 
BRANCH  47  48
HETATM   48  C   UNK N   1      22.909   8.015   6.591  0.00  0.00     0.190 C 
BRANCH  48  49
HETATM   49  O   UNK N   1      22.740   6.745   7.137  0.00  0.00    -0.399 OA
HETATM   50  H   UNK N   1      23.299   5.977   6.942  0.00  0.00     0.209 HD
ENDBRANCH  48  49
ENDBRANCH  47  48
ENDBRANCH  46  47
ENDBRANCH  42  46
BRANCH  43  51
HETATM   51  O   UNK N   1      22.869  11.194  10.413  0.00  0.00    -0.346 OA
BRANCH  51  52
HETATM   52  C   UNK N   1      22.243  11.860  11.451  0.00  0.00     0.201 C 
BRANCH  52  53
HETATM   53  C   UNK N   1      23.040  11.840  12.740  0.00  0.00     0.190 C 
BRANCH  53  54
HETATM   54  O   UNK N   1      24.351  12.235  12.476  0.00  0.00    -0.399 OA
HETATM   55  H   UNK N   1      25.146  11.769  12.780  0.00  0.00     0.209 HD
ENDBRANCH  53  54
ENDBRANCH  52  53
ENDBRANCH  51  52
ENDBRANCH  43  51
ENDBRANCH   4  40
BRANCH   8  56
HETATM   56  O   UNK N   1      25.972  15.470   1.118  0.00  0.00    -0.360 OA
HETATM   57  H   UNK N   1      26.184  14.960   0.362  0.00  0.00     0.217 HD
ENDBRANCH   8  56
BRANCH  11  58
HETATM   58  O   UNK N   1      29.972  15.932   3.661  0.00  0.00    -0.349 OA
BRANCH  58  59
HETATM   59  C   UNK N   1      30.711  16.470   2.624  0.00  0.00     0.201 C 
BRANCH  59  60
HETATM   60  C   UNK N   1      32.071  16.951   3.100  0.00  0.00     0.190 C 
BRANCH  60  61
HETATM   61  O   UNK N   1      31.914  18.135   3.819  0.00  0.00    -0.399 OA
HETATM   62  H   UNK N   1      31.445  18.149   4.668  0.00  0.00     0.209 HD
ENDBRANCH  60  61
ENDBRANCH  59  60
ENDBRANCH  58  59
ENDBRANCH  11  58
TORSDOF 25
ENDMDL
MODEL 7
REMARK VINA RESULT:      -7.4      2.266      4.613
REMARK  25 active torsions:
REMARK  status: ('A' for Active; 'I' for Inactive)
REMARK    1  A    between atoms: C_25  and  O_2 
REMARK    2  A    between atoms: O_2  and  C_29 
REMARK    3  A    between atoms: C_21  and  O_4 
REMARK    4  A    between atoms: C_22  and  O_5 
REMARK    5  A    between atoms: C_28  and  O_6 
REMARK    6  A    between atoms: O_6  and  C_32 
REMARK    7  A    between atoms: C_23  and  O_7 
REMARK    8  A    between atoms: C_24  and  O_8 
REMARK    9  A    between atoms: C_26  and  O_9 
REMARK   10  A    between atoms: C_27  and  O_10 
REMARK   11  A    between atoms: O_13  and  C_38 
REMARK   12  A    between atoms: O_14  and  C_43 
REMARK   13  A    between atoms: O_14  and  C_47 
REMARK   14  A    between atoms: O_15  and  C_44 
REMARK   15  A    between atoms: O_15  and  C_48 
REMARK   16  A    between atoms: O_16  and  C_46 
REMARK   17  A    between atoms: O_16  and  C_49 
REMARK   18  A    between atoms: O_17  and  C_50 
REMARK   19  A    between atoms: O_18  and  C_51 
REMARK   20  A    between atoms: O_19  and  C_52 
REMARK   21  A    between atoms: C_20  and  C_29 
REMARK   22  A    between atoms: C_33  and  C_36 
REMARK   23  A    between atoms: C_47  and  C_50 
REMARK   24  A    between atoms: C_48  and  C_51 
REMARK   25  A    between atoms: C_49  and  C_52 
ROOT
HETATM    1  O   UNK N   1      27.705  15.924   6.423  0.00  0.00    -0.306 OA
HETATM    2  O   UNK N   1      28.804  14.723   2.810  0.00  0.00    -0.284 OA
HETATM    3  C   UNK N   1      27.131  14.947   4.329  0.00  0.00     0.157 A 
HETATM    4  C   UNK N   1      26.778  15.372   5.639  0.00  0.00     0.124 A 
HETATM    5  C   UNK N   1      28.462  15.116   3.910  0.00  0.00     0.223 A 
HETATM    6  C   UNK N   1      29.394  15.736   4.762  0.00  0.00     0.084 A 
HETATM    7  C   UNK N   1      28.959  16.133   6.042  0.00  0.00     0.096 A 
HETATM    8  C   UNK N   1      30.735  15.984   4.386  0.00  0.00     0.085 A 
HETATM    9  C   UNK N   1      29.845  16.764   6.921  0.00  0.00     0.075 A 
HETATM   10  C   UNK N   1      31.600  16.631   5.267  0.00  0.00     0.074 A 
HETATM   11  C   UNK N   1      31.164  17.027   6.540  0.00  0.00     0.074 A 
ENDROOT
BRANCH   3  12
HETATM   12  O   UNK N   1      26.224  14.358   3.504  0.00  0.00    -0.311 OA
BRANCH  12  13
HETATM   13  C   UNK N   1      25.692  13.101   3.773  0.00  0.00     0.298 C 
HETATM   14  O   UNK N   1      24.301  13.156   4.034  0.00  0.00    -0.348 OA
HETATM   15  C   UNK N   1      23.653  13.578   2.854  0.00  0.00     0.180 C 
HETATM   16  C   UNK N   1      23.697  12.480   1.791  0.00  0.00     0.180 C 
HETATM   17  C   UNK N   1      25.163  12.304   1.420  0.00  0.00     0.183 C 
HETATM   18  C   UNK N   1      25.994  12.053   2.674  0.00  0.00     0.205 C 
BRANCH  15  19
HETATM   19  C   UNK N   1      22.258  14.087   3.153  0.00  0.00     0.205 C 
BRANCH  19  20
HETATM   20  O   UNK N   1      21.940  15.047   2.190  0.00  0.00    -0.356 OA
BRANCH  20  21
HETATM   21  C   UNK N   1      21.535  16.174   2.904  0.00  0.00     0.291 C 
HETATM   22  O   UNK N   1      22.557  17.146   2.875  0.00  0.00    -0.351 OA
HETATM   23  C   UNK N   1      22.199  18.160   3.786  0.00  0.00     0.152 C 
HETATM   24  C   UNK N   1      20.980  18.927   3.255  0.00  0.00     0.178 C 
HETATM   25  C   UNK N   1      23.367  19.116   3.954  0.00  0.00     0.042 C 
HETATM   26  C   UNK N   1      19.824  17.946   3.075  0.00  0.00     0.183 C 
HETATM   27  C   UNK N   1      20.275  16.745   2.256  0.00  0.00     0.204 C 
BRANCH  24  28
HETATM   28  O   UNK N   1      20.605  19.923   4.158  0.00  0.00    -0.390 OA
HETATM   29  H   UNK N   1      19.969  19.820   4.883  0.00  0.00     0.210 HD
ENDBRANCH  24  28
BRANCH  26  30
HETATM   30  O   UNK N   1      18.753  18.579   2.446  0.00  0.00    -0.390 OA
HETATM   31  H   UNK N   1      18.621  18.525   1.486  0.00  0.00     0.210 HD
ENDBRANCH  26  30
BRANCH  27  32
HETATM   32  O   UNK N   1      19.266  15.781   2.235  0.00  0.00    -0.388 OA
HETATM   33  H   UNK N   1      18.701  15.465   2.957  0.00  0.00     0.210 HD
ENDBRANCH  27  32
ENDBRANCH  20  21
ENDBRANCH  19  20
ENDBRANCH  15  19
BRANCH  16  34
HETATM   34  O   UNK N   1      22.979  12.860   0.654  0.00  0.00    -0.390 OA
HETATM   35  H   UNK N   1      22.140  12.550   0.280  0.00  0.00     0.210 HD
ENDBRANCH  16  34
BRANCH  17  36
HETATM   36  O   UNK N   1      25.309  11.239   0.528  0.00  0.00    -0.390 OA
HETATM   37  H   UNK N   1      24.531  10.744   0.229  0.00  0.00     0.210 HD
ENDBRANCH  17  36
BRANCH  18  38
HETATM   38  O   UNK N   1      27.351  12.030   2.351  0.00  0.00    -0.388 OA
HETATM   39  H   UNK N   1      28.073  12.551   2.737  0.00  0.00     0.210 HD
ENDBRANCH  18  38
ENDBRANCH  12  13
ENDBRANCH   3  12
BRANCH   4  40
HETATM   40  C   UNK N   1      25.415  15.213   6.208  0.00  0.00     0.004 A 
HETATM   41  C   UNK N   1      25.182  14.175   7.117  0.00  0.00     0.054 A 
HETATM   42  C   UNK N   1      23.903  13.951   7.656  0.00  0.00     0.103 A 
HETATM   43  C   UNK N   1      22.842  14.790   7.289  0.00  0.00     0.102 A 
HETATM   44  C   UNK N   1      23.075  15.838   6.389  0.00  0.00     0.040 A 
HETATM   45  C   UNK N   1      24.348  16.042   5.854  0.00  0.00     0.017 A 
BRANCH  42  46
HETATM   46  O   UNK N   1      23.662  12.901   8.480  0.00  0.00    -0.346 OA
BRANCH  46  47
HETATM   47  C   UNK N   1      23.684  12.988   9.857  0.00  0.00     0.201 C 
BRANCH  47  48
HETATM   48  C   UNK N   1      25.073  12.723  10.401  0.00  0.00     0.190 C 
BRANCH  48  49
HETATM   49  O   UNK N   1      24.971  12.304  11.726  0.00  0.00    -0.399 OA
HETATM   50  H   UNK N   1      25.513  11.610  12.133  0.00  0.00     0.209 HD
ENDBRANCH  48  49
ENDBRANCH  47  48
ENDBRANCH  46  47
ENDBRANCH  42  46
BRANCH  43  51
HETATM   51  O   UNK N   1      21.603  14.529   7.780  0.00  0.00    -0.346 OA
BRANCH  51  52
HETATM   52  C   UNK N   1      21.006  15.211   8.824  0.00  0.00     0.201 C 
BRANCH  52  53
HETATM   53  C   UNK N   1      19.954  16.202   8.365  0.00  0.00     0.190 C 
BRANCH  53  54
HETATM   54  O   UNK N   1      20.355  17.491   8.713  0.00  0.00    -0.399 OA
HETATM   55  H   UNK N   1      20.151  18.294   8.208  0.00  0.00     0.209 HD
ENDBRANCH  53  54
ENDBRANCH  52  53
ENDBRANCH  51  52
ENDBRANCH  43  51
ENDBRANCH   4  40
BRANCH   8  56
HETATM   56  O   UNK N   1      31.197  15.624   3.178  0.00  0.00    -0.360 OA
HETATM   57  H   UNK N   1      30.600  15.455   2.475  0.00  0.00     0.217 HD
ENDBRANCH   8  56
BRANCH  11  58
HETATM   58  O   UNK N   1      31.984  17.681   7.401  0.00  0.00    -0.349 OA
BRANCH  58  59
HETATM   59  C   UNK N   1      32.824  17.056   8.302  0.00  0.00     0.201 C 
BRANCH  59  60
HETATM   60  C   UNK N   1      34.257  17.540   8.156  0.00  0.00     0.190 C 
BRANCH  60  61
HETATM   61  O   UNK N   1      34.419  18.121   6.899  0.00  0.00    -0.399 OA
HETATM   62  H   UNK N   1      34.894  17.659   6.190  0.00  0.00     0.209 HD
ENDBRANCH  60  61
ENDBRANCH  59  60
ENDBRANCH  58  59
ENDBRANCH  11  58
TORSDOF 25
ENDMDL
MODEL 8
REMARK VINA RESULT:      -7.4      4.253     10.419
REMARK  25 active torsions:
REMARK  status: ('A' for Active; 'I' for Inactive)
REMARK    1  A    between atoms: C_25  and  O_2 
REMARK    2  A    between atoms: O_2  and  C_29 
REMARK    3  A    between atoms: C_21  and  O_4 
REMARK    4  A    between atoms: C_22  and  O_5 
REMARK    5  A    between atoms: C_28  and  O_6 
REMARK    6  A    between atoms: O_6  and  C_32 
REMARK    7  A    between atoms: C_23  and  O_7 
REMARK    8  A    between atoms: C_24  and  O_8 
REMARK    9  A    between atoms: C_26  and  O_9 
REMARK   10  A    between atoms: C_27  and  O_10 
REMARK   11  A    between atoms: O_13  and  C_38 
REMARK   12  A    between atoms: O_14  and  C_43 
REMARK   13  A    between atoms: O_14  and  C_47 
REMARK   14  A    between atoms: O_15  and  C_44 
REMARK   15  A    between atoms: O_15  and  C_48 
REMARK   16  A    between atoms: O_16  and  C_46 
REMARK   17  A    between atoms: O_16  and  C_49 
REMARK   18  A    between atoms: O_17  and  C_50 
REMARK   19  A    between atoms: O_18  and  C_51 
REMARK   20  A    between atoms: O_19  and  C_52 
REMARK   21  A    between atoms: C_20  and  C_29 
REMARK   22  A    between atoms: C_33  and  C_36 
REMARK   23  A    between atoms: C_47  and  C_50 
REMARK   24  A    between atoms: C_48  and  C_51 
REMARK   25  A    between atoms: C_49  and  C_52 
ROOT
HETATM    1  O   UNK N   1      26.440  17.582   5.129  0.00  0.00    -0.306 OA
HETATM    2  O   UNK N   1      25.330  14.081   3.642  0.00  0.00    -0.284 OA
HETATM    3  C   UNK N   1      26.939  15.297   4.685  0.00  0.00     0.157 A 
HETATM    4  C   UNK N   1      27.310  16.573   5.190  0.00  0.00     0.124 A 
HETATM    5  C   UNK N   1      25.660  15.149   4.121  0.00  0.00     0.223 A 
HETATM    6  C   UNK N   1      24.767  16.236   4.112  0.00  0.00     0.084 A 
HETATM    7  C   UNK N   1      25.212  17.464   4.639  0.00  0.00     0.096 A 
HETATM    8  C   UNK N   1      23.448  16.144   3.608  0.00  0.00     0.085 A 
HETATM    9  C   UNK N   1      24.357  18.571   4.664  0.00  0.00     0.075 A 
HETATM   10  C   UNK N   1      22.602  17.251   3.657  0.00  0.00     0.074 A 
HETATM   11  C   UNK N   1      23.048  18.472   4.184  0.00  0.00     0.074 A 
ENDROOT
BRANCH   3  12
HETATM   12  O   UNK N   1      27.803  14.246   4.706  0.00  0.00    -0.311 OA
BRANCH  12  13
HETATM   13  C   UNK N   1      28.558  13.891   3.593  0.00  0.00     0.298 C 
HETATM   14  O   UNK N   1      29.923  14.241   3.742  0.00  0.00    -0.348 OA
HETATM   15  C   UNK N   1      30.455  13.475   4.800  0.00  0.00     0.180 C 
HETATM   16  C   UNK N   1      30.583  12.007   4.392  0.00  0.00     0.180 C 
HETATM   17  C   UNK N   1      29.164  11.496   4.182  0.00  0.00     0.183 C 
HETATM   18  C   UNK N   1      28.423  12.399   3.202  0.00  0.00     0.205 C 
BRANCH  15  19
HETATM   19  C   UNK N   1      31.742  14.083   5.316  0.00  0.00     0.205 C 
BRANCH  19  20
HETATM   20  O   UNK N   1      31.681  14.089   6.711  0.00  0.00    -0.356 OA
BRANCH  20  21
HETATM   21  C   UNK N   1      32.969  13.783   7.145  0.00  0.00     0.291 C 
HETATM   22  O   UNK N   1      33.911  14.486   6.367  0.00  0.00    -0.351 OA
HETATM   23  C   UNK N   1      35.186  13.977   6.688  0.00  0.00     0.152 C 
HETATM   24  C   UNK N   1      35.558  14.379   8.122  0.00  0.00     0.178 C 
HETATM   25  C   UNK N   1      36.209  14.546   5.720  0.00  0.00     0.042 C 
HETATM   26  C   UNK N   1      34.508  13.814   9.076  0.00  0.00     0.183 C 
HETATM   27  C   UNK N   1      33.111  14.197   8.609  0.00  0.00     0.204 C 
BRANCH  24  28
HETATM   28  O   UNK N   1      36.812  13.865   8.457  0.00  0.00    -0.390 OA
HETATM   29  H   UNK N   1      37.223  13.902   9.335  0.00  0.00     0.210 HD
ENDBRANCH  24  28
BRANCH  26  30
HETATM   30  O   UNK N   1      34.728  14.292  10.368  0.00  0.00    -0.390 OA
HETATM   31  H   UNK N   1      34.807  13.693  11.127  0.00  0.00     0.210 HD
ENDBRANCH  26  30
BRANCH  27  32
HETATM   32  O   UNK N   1      32.156  13.544   9.389  0.00  0.00    -0.388 OA
HETATM   33  H   UNK N   1      32.097  13.467  10.354  0.00  0.00     0.210 HD
ENDBRANCH  27  32
ENDBRANCH  20  21
ENDBRANCH  19  20
ENDBRANCH  15  19
BRANCH  16  34
HETATM   34  O   UNK N   1      31.194  11.261   5.404  0.00  0.00    -0.390 OA
HETATM   35  H   UNK N   1      31.069  11.243   6.366  0.00  0.00     0.210 HD
ENDBRANCH  16  34
BRANCH  17  36
HETATM   36  O   UNK N   1      29.191  10.186   3.700  0.00  0.00    -0.390 OA
HETATM   37  H   UNK N   1      29.981   9.636   3.824  0.00  0.00     0.210 HD
ENDBRANCH  17  36
BRANCH  18  38
HETATM   38  O   UNK N   1      27.085  12.014   3.117  0.00  0.00    -0.388 OA
HETATM   39  H   UNK N   1      26.318  12.387   3.579  0.00  0.00     0.210 HD
ENDBRANCH  18  38
ENDBRANCH  12  13
ENDBRANCH   3  12
BRANCH   4  40
HETATM   40  C   UNK N   1      28.645  16.862   5.775  0.00  0.00     0.004 A 
HETATM   41  C   UNK N   1      28.827  16.697   7.152  0.00  0.00     0.054 A 
HETATM   42  C   UNK N   1      30.056  16.996   7.766  0.00  0.00     0.103 A 
HETATM   43  C   UNK N   1      31.125  17.455   6.985  0.00  0.00     0.102 A 
HETATM   44  C   UNK N   1      30.950  17.609   5.603  0.00  0.00     0.040 A 
HETATM   45  C   UNK N   1      29.721  17.318   5.009  0.00  0.00     0.017 A 
BRANCH  42  46
HETATM   46  O   UNK N   1      30.210  16.905   9.111  0.00  0.00    -0.346 OA
BRANCH  46  47
HETATM   47  C   UNK N   1      29.174  17.040  10.011  0.00  0.00     0.201 C 
BRANCH  47  48
HETATM   48  C   UNK N   1      29.285  16.025  11.131  0.00  0.00     0.190 C 
BRANCH  48  49
HETATM   49  O   UNK N   1      30.564  15.474  11.121  0.00  0.00    -0.399 OA
HETATM   50  H   UNK N   1      31.388  15.978  11.215  0.00  0.00     0.209 HD
ENDBRANCH  48  49
ENDBRANCH  47  48
ENDBRANCH  46  47
ENDBRANCH  42  46
BRANCH  43  51
HETATM   51  O   UNK N   1      32.289  17.785   7.601  0.00  0.00    -0.346 OA
BRANCH  51  52
HETATM   52  C   UNK N   1      33.544  17.678   7.032  0.00  0.00     0.201 C 
BRANCH  52  53
HETATM   53  C   UNK N   1      34.670  17.819   8.038  0.00  0.00     0.190 C 
BRANCH  53  54
HETATM   54  O   UNK N   1      34.866  19.171   8.320  0.00  0.00    -0.399 OA
HETATM   55  H   UNK N   1      34.826  19.889   7.669  0.00  0.00     0.209 HD
ENDBRANCH  53  54
ENDBRANCH  52  53
ENDBRANCH  51  52
ENDBRANCH  43  51
ENDBRANCH   4  40
BRANCH   8  56
HETATM   56  O   UNK N   1      22.978  14.996   3.095  0.00  0.00    -0.360 OA
HETATM   57  H   UNK N   1      22.065  14.792   3.151  0.00  0.00     0.217 HD
ENDBRANCH   8  56
BRANCH  11  58
HETATM   58  O   UNK N   1      22.231  19.552   4.265  0.00  0.00    -0.349 OA
BRANCH  58  59
HETATM   59  C   UNK N   1      20.944  19.594   3.762  0.00  0.00     0.201 C 
BRANCH  59  60
HETATM   60  C   UNK N   1      20.826  20.580   2.613  0.00  0.00     0.190 C 
BRANCH  60  61
HETATM   61  O   UNK N   1      21.808  21.561   2.747  0.00  0.00    -0.399 OA
HETATM   62  H   UNK N   1      22.564  21.437   3.343  0.00  0.00     0.209 HD
ENDBRANCH  60  61
ENDBRANCH  59  60
ENDBRANCH  58  59
ENDBRANCH  11  58
TORSDOF 25
ENDMDL
MODEL 9
REMARK VINA RESULT:      -7.4      2.141      3.614
REMARK  25 active torsions:
REMARK  status: ('A' for Active; 'I' for Inactive)
REMARK    1  A    between atoms: C_25  and  O_2 
REMARK    2  A    between atoms: O_2  and  C_29 
REMARK    3  A    between atoms: C_21  and  O_4 
REMARK    4  A    between atoms: C_22  and  O_5 
REMARK    5  A    between atoms: C_28  and  O_6 
REMARK    6  A    between atoms: O_6  and  C_32 
REMARK    7  A    between atoms: C_23  and  O_7 
REMARK    8  A    between atoms: C_24  and  O_8 
REMARK    9  A    between atoms: C_26  and  O_9 
REMARK   10  A    between atoms: C_27  and  O_10 
REMARK   11  A    between atoms: O_13  and  C_38 
REMARK   12  A    between atoms: O_14  and  C_43 
REMARK   13  A    between atoms: O_14  and  C_47 
REMARK   14  A    between atoms: O_15  and  C_44 
REMARK   15  A    between atoms: O_15  and  C_48 
REMARK   16  A    between atoms: O_16  and  C_46 
REMARK   17  A    between atoms: O_16  and  C_49 
REMARK   18  A    between atoms: O_17  and  C_50 
REMARK   19  A    between atoms: O_18  and  C_51 
REMARK   20  A    between atoms: O_19  and  C_52 
REMARK   21  A    between atoms: C_20  and  C_29 
REMARK   22  A    between atoms: C_33  and  C_36 
REMARK   23  A    between atoms: C_47  and  C_50 
REMARK   24  A    between atoms: C_48  and  C_51 
REMARK   25  A    between atoms: C_49  and  C_52 
ROOT
HETATM    1  O   UNK N   1      27.266  15.554   6.385  0.00  0.00    -0.306 OA
HETATM    2  O   UNK N   1      27.482  15.657   2.430  0.00  0.00    -0.284 OA
HETATM    3  C   UNK N   1      26.246  15.165   4.270  0.00  0.00     0.157 A 
HETATM    4  C   UNK N   1      26.212  15.124   5.690  0.00  0.00     0.124 A 
HETATM    5  C   UNK N   1      27.407  15.650   3.644  0.00  0.00     0.223 A 
HETATM    6  C   UNK N   1      28.478  16.125   4.423  0.00  0.00     0.084 A 
HETATM    7  C   UNK N   1      28.360  16.054   5.825  0.00  0.00     0.096 A 
HETATM    8  C   UNK N   1      29.654  16.674   3.861  0.00  0.00     0.085 A 
HETATM    9  C   UNK N   1      29.393  16.525   6.643  0.00  0.00     0.075 A 
HETATM   10  C   UNK N   1      30.667  17.155   4.690  0.00  0.00     0.074 A 
HETATM   11  C   UNK N   1      30.545  17.085   6.085  0.00  0.00     0.074 A 
ENDROOT
BRANCH   3  12
HETATM   12  O   UNK N   1      25.202  14.715   3.520  0.00  0.00    -0.311 OA
BRANCH  12  13
HETATM   13  C   UNK N   1      24.700  13.425   3.657  0.00  0.00     0.298 C 
HETATM   14  O   UNK N   1      23.289  13.412   3.772  0.00  0.00    -0.348 OA
HETATM   15  C   UNK N   1      22.749  13.884   2.557  0.00  0.00     0.180 C 
HETATM   16  C   UNK N   1      22.950  12.857   1.443  0.00  0.00     0.180 C 
HETATM   17  C   UNK N   1      24.453  12.758   1.219  0.00  0.00     0.183 C 
HETATM   18  C   UNK N   1      25.160  12.459   2.538  0.00  0.00     0.205 C 
BRANCH  15  19
HETATM   19  C   UNK N   1      21.310  14.321   2.736  0.00  0.00     0.205 C 
BRANCH  19  20
HETATM   20  O   UNK N   1      21.066  15.358   1.833  0.00  0.00    -0.356 OA
BRANCH  20  21
HETATM   21  C   UNK N   1      20.797  16.481   2.614  0.00  0.00     0.291 C 
HETATM   22  O   UNK N   1      21.987  16.929   3.224  0.00  0.00    -0.351 OA
HETATM   23  C   UNK N   1      21.630  17.912   4.169  0.00  0.00     0.152 C 
HETATM   24  C   UNK N   1      21.121  19.167   3.445  0.00  0.00     0.178 C 
HETATM   25  C   UNK N   1      22.847  18.267   5.005  0.00  0.00     0.042 C 
HETATM   26  C   UNK N   1      19.910  18.785   2.597  0.00  0.00     0.183 C 
HETATM   27  C   UNK N   1      20.239  17.586   1.719  0.00  0.00     0.204 C 
BRANCH  24  28
HETATM   28  O   UNK N   1      20.748  20.141   4.373  0.00  0.00    -0.390 OA
HETATM   29  H   UNK N   1      21.355  20.693   4.890  0.00  0.00     0.210 HD
ENDBRANCH  24  28
BRANCH  26  30
HETATM   30  O   UNK N   1      19.521  19.865   1.805  0.00  0.00    -0.390 OA
HETATM   31  H   UNK N   1      18.759  20.419   2.037  0.00  0.00     0.210 HD
ENDBRANCH  26  30
BRANCH  27  32
HETATM   32  O   UNK N   1      19.085  17.144   1.072  0.00  0.00    -0.388 OA
HETATM   33  H   UNK N   1      18.253  16.817   1.450  0.00  0.00     0.210 HD
ENDBRANCH  27  32
ENDBRANCH  20  21
ENDBRANCH  19  20
ENDBRANCH  15  19
BRANCH  16  34
HETATM   34  O   UNK N   1      22.338  13.281   0.260  0.00  0.00    -0.390 OA
HETATM   35  H   UNK N   1      22.142  12.823  -0.573  0.00  0.00     0.210 HD
ENDBRANCH  16  34
BRANCH  17  36
HETATM   36  O   UNK N   1      24.736  11.757   0.287  0.00  0.00    -0.390 OA
HETATM   37  H   UNK N   1      24.703  11.952  -0.663  0.00  0.00     0.210 HD
ENDBRANCH  17  36
BRANCH  18  38
HETATM   38  O   UNK N   1      26.542  12.506   2.359  0.00  0.00    -0.388 OA
HETATM   39  H   UNK N   1      27.060  13.114   1.807  0.00  0.00     0.210 HD
ENDBRANCH  18  38
ENDBRANCH  12  13
ENDBRANCH   3  12
BRANCH   4  40
HETATM   40  C   UNK N   1      25.057  14.598   6.463  0.00  0.00     0.004 A 
HETATM   41  C   UNK N   1      23.845  15.297   6.423  0.00  0.00     0.054 A 
HETATM   42  C   UNK N   1      22.733  14.869   7.167  0.00  0.00     0.103 A 
HETATM   43  C   UNK N   1      22.830  13.715   7.956  0.00  0.00     0.102 A 
HETATM   44  C   UNK N   1      24.039  13.006   7.989  0.00  0.00     0.040 A 
HETATM   45  C   UNK N   1      25.139  13.448   7.253  0.00  0.00     0.017 A 
BRANCH  42  46
HETATM   46  O   UNK N   1      21.581  15.586   7.183  0.00  0.00    -0.346 OA
BRANCH  46  47
HETATM   47  C   UNK N   1      20.527  15.363   6.321  0.00  0.00     0.201 C 
BRANCH  47  48
HETATM   48  C   UNK N   1      19.314  16.182   6.714  0.00  0.00     0.190 C 
BRANCH  48  49
HETATM   49  O   UNK N   1      18.290  15.945   5.800  0.00  0.00    -0.399 OA
HETATM   50  H   UNK N   1      17.440  15.527   6.012  0.00  0.00     0.209 HD
ENDBRANCH  48  49
ENDBRANCH  47  48
ENDBRANCH  46  47
ENDBRANCH  42  46
BRANCH  43  51
HETATM   51  O   UNK N   1      21.761  13.345   8.707  0.00  0.00    -0.346 OA
BRANCH  51  52
HETATM   52  C   UNK N   1      21.638  13.557  10.068  0.00  0.00     0.201 C 
BRANCH  52  53
HETATM   53  C   UNK N   1      21.330  12.292  10.844  0.00  0.00     0.190 C 
BRANCH  53  54
HETATM   54  O   UNK N   1      22.413  11.419  10.748  0.00  0.00    -0.399 OA
HETATM   55  H   UNK N   1      22.539  10.624  11.290  0.00  0.00     0.209 HD
ENDBRANCH  53  54
ENDBRANCH  52  53
ENDBRANCH  51  52
ENDBRANCH  43  51
ENDBRANCH   4  40
BRANCH   8  56
HETATM   56  O   UNK N   1      29.815  16.762   2.531  0.00  0.00    -0.360 OA
HETATM   57  H   UNK N   1      29.150  17.154   2.000  0.00  0.00     0.217 HD
ENDBRANCH   8  56
BRANCH  11  58
HETATM   58  O   UNK N   1      31.508  17.573   6.908  0.00  0.00    -0.349 OA
BRANCH  58  59
HETATM   59  C   UNK N   1      32.865  17.434   6.686  0.00  0.00     0.201 C 
BRANCH  59  60
HETATM   60  C   UNK N   1      33.672  17.795   7.921  0.00  0.00     0.190 C 
BRANCH  60  61
HETATM   61  O   UNK N   1      34.772  18.564   7.543  0.00  0.00    -0.399 OA
HETATM   62  H   UNK N   1      35.186  18.455   6.672  0.00  0.00     0.209 HD
ENDBRANCH  60  61
ENDBRANCH  59  60
ENDBRANCH  58  59
ENDBRANCH  11  58
TORSDOF 25
ENDMDL
