MODEL 1
REMARK VINA RESULT:      -8.6      0.000      0.000
REMARK  7 active torsions:
REMARK  status: ('A' for Active; 'I' for Inactive)
REMARK    1  A    between atoms: C_2  and  C_3 
REMARK    2  A    between atoms: C_2  and  O_12 
REMARK    3  A    between atoms: O_12  and  C_13 
REMARK    4  A    between atoms: C_15  and  C_22 
REMARK    5  A    between atoms: C_20  and  N_21 
REMARK       I    between atoms: C_22  and  N_24 
REMARK    6  A    between atoms: N_24  and  C_25 
REMARK    7  A    between atoms: C_28  and  C_31 
REMARK       I    between atoms: C_31  and  N_33 
ROOT
HETATM    1  C   UNK N   1      34.444  13.707  10.999  0.00  0.00     0.117 A 
HETATM    2  C   UNK N   1      34.460  15.085  10.921  0.00  0.00     0.077 A 
HETATM    3  C   UNK N   1      34.413  15.713   9.684  0.00  0.00     0.119 A 
HETATM    4  N   UNK N   1      34.329  14.951   8.557  0.00  0.00    -0.294 N 
ATOM      5  HN  UNK N   1      34.315  15.409   7.646  1.00  0.00     0.187 HD
HETATM    6  N   UNK N   1      34.266  13.623   8.619  0.00  0.00    -0.283 N 
ATOM      7  HN  UNK N   1      34.157  13.088   7.757  1.00  0.00     0.188 HD
HETATM    8  C   UNK N   1      34.341  12.962   9.808  0.00  0.00     0.147 A 
ENDROOT
BRANCH   3   9
HETATM    9  C   UNK N   1      34.693  17.157   9.585  0.00  0.00     0.274 C 
HETATM   10  O   UNK N   1      35.756  17.574  10.018  0.00  0.00    -0.266 OA
HETATM   11  N   UNK N   1      33.778  18.058   9.136  0.00  0.00    -0.322 N 
HETATM   12  H   UNK N   1      33.786  18.945   9.562  0.00  0.00     0.169 HD
BRANCH  11  13
HETATM   13  C   UNK N   1      32.811  17.849   8.115  0.00  0.00     0.035 C 
HETATM   14  C   UNK N   1      33.288  17.629   6.818  0.00  0.00     0.030 C 
HETATM   15  C   UNK N   1      32.576  16.818   5.935  0.00  0.00     0.019 C 
HETATM   16  C   UNK N   1      31.387  16.216   6.352  0.00  0.00     0.032 C 
HETATM   17  C   UNK N   1      30.828  16.581   7.585  0.00  0.00     0.019 C 
HETATM   18  C   UNK N   1      31.537  17.385   8.464  0.00  0.00     0.030 C 
BRANCH  16  19
HETATM   19  C   UNK N   1      31.230  14.802   5.955  0.00  0.00     0.253 C 
HETATM   20  O   UNK N   1      31.819  13.920   6.565  0.00  0.00    -0.267 OA
HETATM   21  N   UNK N   1      30.300  14.485   4.989  0.00  0.00    -0.345 N 
HETATM   22  C   UNK N   1      30.062  13.132   4.559  0.00  0.00     0.156 C 
HETATM   23  C   UNK N   1      29.464  15.499   4.383  0.00  0.00     0.156 C 
HETATM   24  C   UNK N   1      30.184  13.080   3.023  0.00  0.00     0.291 C 
HETATM   25  N   UNK N   1      29.449  14.156   2.326  0.00  0.00     0.087 N 
HETATM   26  C   UNK N   1      29.716  15.485   2.884  0.00  0.00     0.291 C 
HETATM   27  C   UNK N   1      28.014  13.902   2.333  0.00  0.00     0.310 C 
ENDBRANCH  16  19
ENDBRANCH  11  13
ENDBRANCH   3   9
BRANCH   1  28
HETATM   28  O   UNK N   1      34.576  13.146  12.222  0.00  0.00    -0.338 OA
BRANCH  28  29
HETATM   29  C   UNK N   1      35.717  13.260  12.977  0.00  0.00     0.161 C 
HETATM   30  C   UNK N   1      36.871  12.547  12.300  0.00  0.00     0.045 C 
BRANCH  29  31
HETATM   31  C   UNK N   1      35.539  12.766  14.409  0.00  0.00     0.017 A 
HETATM   32  C   UNK N   1      36.102  13.538  15.453  0.00  0.00     0.044 A 
HETATM   33  C   UNK N   1      35.976  13.131  16.782  0.00  0.00     0.028 A 
HETATM   34 Cl   UNK N   1      36.959  15.039  15.129  0.00  0.00    -0.084 Cl
HETATM   35  C   UNK N   1      35.298  11.960  17.101  0.00  0.00     0.046 A 
HETATM   36  C   UNK N   1      34.729  11.184  16.095  0.00  0.00     0.138 A 
HETATM   37  C   UNK N   1      34.836  11.569  14.749  0.00  0.00     0.083 A 
HETATM   38  F   UNK N   1      34.075  10.044  16.432  0.00  0.00    -0.204 F 
HETATM   39 Cl   UNK N   1      34.095  10.506  13.549  0.00  0.00    -0.080 Cl
ENDBRANCH  29  31
ENDBRANCH  28  29
ENDBRANCH   1  28
BRANCH   8  40
HETATM   40  N   UNK N   1      34.310  11.555   9.824  0.00  0.00    -0.382 N 
HETATM   41  H   UNK N   1      34.017  10.910  10.507  0.00  0.00     0.157 HD
HETATM   42  H   UNK N   1      34.643  11.138   8.997  0.00  0.00     0.157 HD
ENDBRANCH   8  40
TORSDOF 7
ENDMDL
MODEL 2
REMARK VINA RESULT:      -8.5      4.819     10.720
REMARK  7 active torsions:
REMARK  status: ('A' for Active; 'I' for Inactive)
REMARK    1  A    between atoms: C_2  and  C_3 
REMARK    2  A    between atoms: C_2  and  O_12 
REMARK    3  A    between atoms: O_12  and  C_13 
REMARK    4  A    between atoms: C_15  and  C_22 
REMARK    5  A    between atoms: C_20  and  N_21 
REMARK       I    between atoms: C_22  and  N_24 
REMARK    6  A    between atoms: N_24  and  C_25 
REMARK    7  A    between atoms: C_28  and  C_31 
REMARK       I    between atoms: C_31  and  N_33 
ROOT
HETATM    1  C   UNK N   1      29.573  17.616   7.271  0.00  0.00     0.117 A 
HETATM    2  C   UNK N   1      30.876  17.287   6.957  0.00  0.00     0.077 A 
HETATM    3  C   UNK N   1      31.891  17.506   7.879  0.00  0.00     0.119 A 
HETATM    4  N   UNK N   1      31.576  18.026   9.099  0.00  0.00    -0.294 N 
ATOM      5  HN  UNK N   1      32.321  18.207   9.772  1.00  0.00     0.187 HD
HETATM    6  N   UNK N   1      30.318  18.305   9.433  0.00  0.00    -0.283 N 
ATOM      7  HN  UNK N   1      30.115  18.650  10.371  1.00  0.00     0.188 HD
HETATM    8  C   UNK N   1      29.294  18.137   8.549  0.00  0.00     0.147 A 
ENDROOT
BRANCH   3   9
HETATM    9  C   UNK N   1      33.299  17.404   7.456  0.00  0.00     0.274 C 
HETATM   10  O   UNK N   1      33.669  18.067   6.501  0.00  0.00    -0.266 OA
HETATM   11  N   UNK N   1      34.175  16.523   8.011  0.00  0.00    -0.322 N 
HETATM   12  H   UNK N   1      34.847  16.130   7.409  0.00  0.00     0.169 HD
BRANCH  11  13
HETATM   13  C   UNK N   1      34.219  16.111   9.371  0.00  0.00     0.035 C 
HETATM   14  C   UNK N   1      33.711  14.843   9.672  0.00  0.00     0.030 C 
HETATM   15  C   UNK N   1      34.248  14.102  10.724  0.00  0.00     0.019 C 
HETATM   16  C   UNK N   1      35.303  14.627  11.474  0.00  0.00     0.032 C 
HETATM   17  C   UNK N   1      35.684  15.962  11.281  0.00  0.00     0.019 C 
HETATM   18  C   UNK N   1      35.153  16.697  10.233  0.00  0.00     0.030 C 
BRANCH  16  19
HETATM   19  C   UNK N   1      36.389  13.673  11.778  0.00  0.00     0.253 C 
HETATM   20  O   UNK N   1      37.329  13.540  11.006  0.00  0.00    -0.267 OA
HETATM   21  N   UNK N   1      36.399  13.050  13.007  0.00  0.00    -0.345 N 
HETATM   22  C   UNK N   1      37.430  12.125  13.397  0.00  0.00     0.156 C 
HETATM   23  C   UNK N   1      35.390  13.332  14.005  0.00  0.00     0.156 C 
HETATM   24  C   UNK N   1      36.762  10.819  13.869  0.00  0.00     0.291 C 
HETATM   25  N   UNK N   1      35.640  11.024  14.808  0.00  0.00     0.087 N 
HETATM   26  C   UNK N   1      34.681  12.030  14.342  0.00  0.00     0.291 C 
HETATM   27  C   UNK N   1      36.124  11.386  16.133  0.00  0.00     0.310 C 
ENDBRANCH  16  19
ENDBRANCH  11  13
ENDBRANCH   3   9
BRANCH   1  28
HETATM   28  O   UNK N   1      28.638  17.461   6.307  0.00  0.00    -0.338 OA
BRANCH  28  29
HETATM   29  C   UNK N   1      28.829  17.861   5.008  0.00  0.00     0.161 C 
HETATM   30  C   UNK N   1      28.255  19.247   4.792  0.00  0.00     0.045 C 
BRANCH  29  31
HETATM   31  C   UNK N   1      28.267  16.876   3.989  0.00  0.00     0.017 A 
HETATM   32  C   UNK N   1      29.176  16.228   3.118  0.00  0.00     0.044 A 
HETATM   33  C   UNK N   1      28.718  15.323   2.161  0.00  0.00     0.028 A 
HETATM   34 Cl   UNK N   1      30.908  16.518   3.215  0.00  0.00    -0.084 Cl
HETATM   35  C   UNK N   1      27.360  15.043   2.046  0.00  0.00     0.046 A 
HETATM   36  C   UNK N   1      26.444  15.660   2.893  0.00  0.00     0.138 A 
HETATM   37  C   UNK N   1      26.876  16.574   3.867  0.00  0.00     0.083 A 
HETATM   38  F   UNK N   1      25.125  15.373   2.758  0.00  0.00    -0.204 F 
HETATM   39 Cl   UNK N   1      25.632  17.315   4.879  0.00  0.00    -0.080 Cl
ENDBRANCH  29  31
ENDBRANCH  28  29
ENDBRANCH   1  28
BRANCH   8  40
HETATM   40  N   UNK N   1      27.984  18.482   8.930  0.00  0.00    -0.382 N 
HETATM   41  H   UNK N   1      27.626  19.235   9.453  0.00  0.00     0.157 HD
HETATM   42  H   UNK N   1      27.297  17.852   8.613  0.00  0.00     0.157 HD
ENDBRANCH   8  40
TORSDOF 7
ENDMDL
MODEL 3
REMARK VINA RESULT:      -8.4      1.411      2.217
REMARK  7 active torsions:
REMARK  status: ('A' for Active; 'I' for Inactive)
REMARK    1  A    between atoms: C_2  and  C_3 
REMARK    2  A    between atoms: C_2  and  O_12 
REMARK    3  A    between atoms: O_12  and  C_13 
REMARK    4  A    between atoms: C_15  and  C_22 
REMARK    5  A    between atoms: C_20  and  N_21 
REMARK       I    between atoms: C_22  and  N_24 
REMARK    6  A    between atoms: N_24  and  C_25 
REMARK    7  A    between atoms: C_28  and  C_31 
REMARK       I    between atoms: C_31  and  N_33 
ROOT
HETATM    1  C   UNK N   1      34.617  13.200   9.938  0.00  0.00     0.117 A 
HETATM    2  C   UNK N   1      35.100  14.476  10.142  0.00  0.00     0.077 A 
HETATM    3  C   UNK N   1      34.283  15.575   9.915  0.00  0.00     0.119 A 
HETATM    4  N   UNK N   1      32.996  15.372   9.514  0.00  0.00    -0.294 N 
ATOM      5  HN  UNK N   1      32.399  16.177   9.327  1.00  0.00     0.187 HD
HETATM    6  N   UNK N   1      32.502  14.146   9.359  0.00  0.00    -0.283 N 
ATOM      7  HN  UNK N   1      31.522  14.032   9.102  1.00  0.00     0.188 HD
HETATM    8  C   UNK N   1      33.276  13.039   9.538  0.00  0.00     0.147 A 
ENDROOT
BRANCH   3   9
HETATM    9  C   UNK N   1      34.868  16.927   9.877  0.00  0.00     0.274 C 
HETATM   10  O   UNK N   1      35.914  17.126  10.473  0.00  0.00    -0.266 OA
HETATM   11  N   UNK N   1      34.240  17.988   9.301  0.00  0.00    -0.322 N 
HETATM   12  H   UNK N   1      34.366  18.864   9.733  0.00  0.00     0.169 HD
BRANCH  11  13
HETATM   13  C   UNK N   1      33.419  17.962   8.141  0.00  0.00     0.035 C 
HETATM   14  C   UNK N   1      33.970  17.403   6.982  0.00  0.00     0.030 C 
HETATM   15  C   UNK N   1      33.152  16.752   6.059  0.00  0.00     0.019 C 
HETATM   16  C   UNK N   1      31.780  16.650   6.298  0.00  0.00     0.032 C 
HETATM   17  C   UNK N   1      31.215  17.362   7.366  0.00  0.00     0.019 C 
HETATM   18  C   UNK N   1      32.028  18.006   8.285  0.00  0.00     0.030 C 
BRANCH  16  19
HETATM   19  C   UNK N   1      31.191  15.326   6.010  0.00  0.00     0.253 C 
HETATM   20  O   UNK N   1      31.487  14.356   6.694  0.00  0.00    -0.267 OA
HETATM   21  N   UNK N   1      30.198  15.236   5.059  0.00  0.00    -0.345 N 
HETATM   22  C   UNK N   1      29.552  13.993   4.731  0.00  0.00     0.156 C 
HETATM   23  C   UNK N   1      29.707  16.407   4.365  0.00  0.00     0.156 C 
HETATM   24  C   UNK N   1      29.634  13.787   3.206  0.00  0.00     0.291 C 
HETATM   25  N   UNK N   1      29.258  14.979   2.418  0.00  0.00     0.087 N 
HETATM   26  C   UNK N   1      29.926  16.200   2.875  0.00  0.00     0.291 C 
HETATM   27  C   UNK N   1      27.815  15.179   2.426  0.00  0.00     0.310 C 
ENDBRANCH  16  19
ENDBRANCH  11  13
ENDBRANCH   3   9
BRANCH   1  28
HETATM   28  O   UNK N   1      35.479  12.170  10.093  0.00  0.00    -0.338 OA
BRANCH  28  29
HETATM   29  C   UNK N   1      36.258  12.009  11.211  0.00  0.00     0.161 C 
HETATM   30  C   UNK N   1      37.261  10.892  10.999  0.00  0.00     0.045 C 
BRANCH  29  31
HETATM   31  C   UNK N   1      35.444  11.775  12.479  0.00  0.00     0.017 A 
HETATM   32  C   UNK N   1      34.631  10.618  12.543  0.00  0.00     0.044 A 
HETATM   33  C   UNK N   1      33.859  10.357  13.675  0.00  0.00     0.028 A 
HETATM   34 Cl   UNK N   1      34.571   9.461  11.219  0.00  0.00    -0.084 Cl
HETATM   35  C   UNK N   1      33.875  11.228  14.759  0.00  0.00     0.046 A 
HETATM   36  C   UNK N   1      34.670  12.370  14.726  0.00  0.00     0.138 A 
HETATM   37  C   UNK N   1      35.460  12.659  13.602  0.00  0.00     0.083 A 
HETATM   38  F   UNK N   1      34.666  13.206  15.794  0.00  0.00    -0.204 F 
HETATM   39 Cl   UNK N   1      36.419  14.141  13.654  0.00  0.00    -0.080 Cl
ENDBRANCH  29  31
ENDBRANCH  28  29
ENDBRANCH   1  28
BRANCH   8  40
HETATM   40  N   UNK N   1      32.723  11.762   9.325  0.00  0.00    -0.382 N 
HETATM   41  H   UNK N   1      31.857  11.369   9.576  0.00  0.00     0.157 HD
HETATM   42  H   UNK N   1      33.314  11.148   8.831  0.00  0.00     0.157 HD
ENDBRANCH   8  40
TORSDOF 7
ENDMDL
MODEL 4
REMARK VINA RESULT:      -8.4      1.713      2.371
REMARK  7 active torsions:
REMARK  status: ('A' for Active; 'I' for Inactive)
REMARK    1  A    between atoms: C_2  and  C_3 
REMARK    2  A    between atoms: C_2  and  O_12 
REMARK    3  A    between atoms: O_12  and  C_13 
REMARK    4  A    between atoms: C_15  and  C_22 
REMARK    5  A    between atoms: C_20  and  N_21 
REMARK       I    between atoms: C_22  and  N_24 
REMARK    6  A    between atoms: N_24  and  C_25 
REMARK    7  A    between atoms: C_28  and  C_31 
REMARK       I    between atoms: C_31  and  N_33 
ROOT
HETATM    1  C   UNK N   1      34.901  13.493  11.841  0.00  0.00     0.117 A 
HETATM    2  C   UNK N   1      34.863  14.852  11.609  0.00  0.00     0.077 A 
HETATM    3  C   UNK N   1      34.831  15.336  10.308  0.00  0.00     0.119 A 
HETATM    4  N   UNK N   1      34.815  14.450   9.272  0.00  0.00    -0.294 N 
ATOM      5  HN  UNK N   1      34.811  14.802   8.315  1.00  0.00     0.187 HD
HETATM    6  N   UNK N   1      34.803  13.136   9.482  0.00  0.00    -0.283 N 
ATOM      7  HN  UNK N   1      34.744  12.504   8.684  1.00  0.00     0.188 HD
HETATM    8  C   UNK N   1      34.867  12.615  10.740  0.00  0.00     0.147 A 
ENDROOT
BRANCH   3   9
HETATM    9  C   UNK N   1      35.055  16.770  10.054  0.00  0.00     0.274 C 
HETATM   10  O   UNK N   1      36.035  17.303  10.552  0.00  0.00    -0.266 OA
HETATM   11  N   UNK N   1      34.164  17.551   9.385  0.00  0.00    -0.322 N 
HETATM   12  H   UNK N   1      34.078  18.483   9.688  0.00  0.00     0.169 HD
BRANCH  11  13
HETATM   13  C   UNK N   1      33.344  17.157   8.293  0.00  0.00     0.035 C 
HETATM   14  C   UNK N   1      33.983  16.898   7.075  0.00  0.00     0.030 C 
HETATM   15  C   UNK N   1      33.463  15.947   6.197  0.00  0.00     0.019 C 
HETATM   16  C   UNK N   1      32.305  15.246   6.540  0.00  0.00     0.032 C 
HETATM   17  C   UNK N   1      31.577  15.635   7.673  0.00  0.00     0.019 C 
HETATM   18  C   UNK N   1      32.096  16.577   8.548  0.00  0.00     0.030 C 
BRANCH  16  19
HETATM   19  C   UNK N   1      32.344  13.797   6.253  0.00  0.00     0.253 C 
HETATM   20  O   UNK N   1      32.767  13.012   7.090  0.00  0.00    -0.267 OA
HETATM   21  N   UNK N   1      31.761  13.337   5.092  0.00  0.00    -0.345 N 
HETATM   22  C   UNK N   1      31.730  11.941   4.743  0.00  0.00     0.156 C 
HETATM   23  C   UNK N   1      31.094  14.235   4.173  0.00  0.00     0.156 C 
HETATM   24  C   UNK N   1      32.305  11.780   3.323  0.00  0.00     0.291 C 
HETATM   25  N   UNK N   1      31.760  12.740   2.341  0.00  0.00     0.087 N 
HETATM   26  C   UNK N   1      31.782  14.125   2.822  0.00  0.00     0.291 C 
HETATM   27  C   UNK N   1      30.403  12.380   1.953  0.00  0.00     0.310 C 
ENDBRANCH  16  19
ENDBRANCH  11  13
ENDBRANCH   3   9
BRANCH   1  28
HETATM   28  O   UNK N   1      35.016  13.078  13.123  0.00  0.00    -0.338 OA
BRANCH  28  29
HETATM   29  C   UNK N   1      36.157  13.253  13.866  0.00  0.00     0.161 C 
HETATM   30  C   UNK N   1      37.128  12.115  13.617  0.00  0.00     0.045 C 
BRANCH  29  31
HETATM   31  C   UNK N   1      35.882  13.417  15.356  0.00  0.00     0.017 A 
HETATM   32  C   UNK N   1      35.050  12.462  15.988  0.00  0.00     0.044 A 
HETATM   33  C   UNK N   1      34.758  12.566  17.348  0.00  0.00     0.028 A 
HETATM   34 Cl   UNK N   1      34.368  11.106  15.100  0.00  0.00    -0.084 Cl
HETATM   35  C   UNK N   1      35.280  13.610  18.105  0.00  0.00     0.046 A 
HETATM   36  C   UNK N   1      36.106  14.560  17.512  0.00  0.00     0.138 A 
HETATM   37  C   UNK N   1      36.419  14.480  16.145  0.00  0.00     0.083 A 
HETATM   38  F   UNK N   1      36.599  15.570  18.270  0.00  0.00    -0.204 F 
HETATM   39 Cl   UNK N   1      37.462  15.744  15.487  0.00  0.00    -0.080 Cl
ENDBRANCH  29  31
ENDBRANCH  28  29
ENDBRANCH   1  28
BRANCH   8  40
HETATM   40  N   UNK N   1      34.892  11.219  10.914  0.00  0.00    -0.382 N 
HETATM   41  H   UNK N   1      34.179  10.563  11.086  0.00  0.00     0.157 HD
HETATM   42  H   UNK N   1      35.793  10.825  10.851  0.00  0.00     0.157 HD
ENDBRANCH   8  40
TORSDOF 7
ENDMDL
MODEL 5
REMARK VINA RESULT:      -8.1      6.376      9.257
REMARK  7 active torsions:
REMARK  status: ('A' for Active; 'I' for Inactive)
REMARK    1  A    between atoms: C_2  and  C_3 
REMARK    2  A    between atoms: C_2  and  O_12 
REMARK    3  A    between atoms: O_12  and  C_13 
REMARK    4  A    between atoms: C_15  and  C_22 
REMARK    5  A    between atoms: C_20  and  N_21 
REMARK       I    between atoms: C_22  and  N_24 
REMARK    6  A    between atoms: N_24  and  C_25 
REMARK    7  A    between atoms: C_28  and  C_31 
REMARK       I    between atoms: C_31  and  N_33 
ROOT
HETATM    1  C   UNK N   1      28.238  18.226   6.699  0.00  0.00     0.117 A 
HETATM    2  C   UNK N   1      27.968  18.635   5.409  0.00  0.00     0.077 A 
HETATM    3  C   UNK N   1      27.110  19.701   5.180  0.00  0.00     0.119 A 
HETATM    4  N   UNK N   1      26.560  20.349   6.247  0.00  0.00    -0.294 N 
ATOM      5  HN  UNK N   1      25.914  21.120   6.083  1.00  0.00     0.187 HD
HETATM    6  N   UNK N   1      26.848  19.996   7.498  0.00  0.00    -0.283 N 
ATOM      7  HN  UNK N   1      26.453  20.532   8.271  1.00  0.00     0.188 HD
HETATM    8  C   UNK N   1      27.659  18.935   7.769  0.00  0.00     0.147 A 
ENDROOT
BRANCH   3   9
HETATM    9  C   UNK N   1      26.619  19.968   3.817  0.00  0.00     0.274 C 
HETATM   10  O   UNK N   1      27.287  20.684   3.087  0.00  0.00    -0.266 OA
HETATM   11  N   UNK N   1      25.405  19.545   3.372  0.00  0.00    -0.322 N 
HETATM   12  H   UNK N   1      24.930  20.141   2.750  0.00  0.00     0.169 HD
BRANCH  11  13
HETATM   13  C   UNK N   1      24.751  18.330   3.715  0.00  0.00     0.035 C 
HETATM   14  C   UNK N   1      25.380  17.138   3.338  0.00  0.00     0.030 C 
HETATM   15  C   UNK N   1      25.231  15.989   4.114  0.00  0.00     0.019 C 
HETATM   16  C   UNK N   1      24.459  16.032   5.277  0.00  0.00     0.032 C 
HETATM   17  C   UNK N   1      23.694  17.174   5.550  0.00  0.00     0.019 C 
HETATM   18  C   UNK N   1      23.844  18.318   4.782  0.00  0.00     0.030 C 
BRANCH  16  19
HETATM   19  C   UNK N   1      25.048  15.343   6.444  0.00  0.00     0.253 C 
HETATM   20  O   UNK N   1      26.177  15.622   6.821  0.00  0.00    -0.267 OA
HETATM   21  N   UNK N   1      24.252  14.495   7.182  0.00  0.00    -0.345 N 
HETATM   22  C   UNK N   1      24.734  13.801   8.347  0.00  0.00     0.156 C 
HETATM   23  C   UNK N   1      22.857  14.290   6.855  0.00  0.00     0.156 C 
HETATM   24  C   UNK N   1      24.437  12.298   8.179  0.00  0.00     0.291 C 
HETATM   25  N   UNK N   1      23.059  12.005   7.732  0.00  0.00     0.087 N 
HETATM   26  C   UNK N   1      22.649  12.810   6.579  0.00  0.00     0.291 C 
HETATM   27  C   UNK N   1      22.105  12.186   8.819  0.00  0.00     0.310 C 
ENDBRANCH  16  19
ENDBRANCH  11  13
ENDBRANCH   3   9
BRANCH   1  28
HETATM   28  O   UNK N   1      29.013  17.131   6.861  0.00  0.00    -0.338 OA
BRANCH  28  29
HETATM   29  C   UNK N   1      29.929  16.718   5.925  0.00  0.00     0.161 C 
HETATM   30  C   UNK N   1      29.732  15.248   5.608  0.00  0.00     0.045 C 
BRANCH  29  31
HETATM   31  C   UNK N   1      31.371  16.997   6.334  0.00  0.00     0.017 A 
HETATM   32  C   UNK N   1      32.309  17.276   5.313  0.00  0.00     0.044 A 
HETATM   33  C   UNK N   1      33.644  17.532   5.627  0.00  0.00     0.028 A 
HETATM   34 Cl   UNK N   1      31.837  17.332   3.619  0.00  0.00    -0.084 Cl
HETATM   35  C   UNK N   1      34.074  17.515   6.950  0.00  0.00     0.046 A 
HETATM   36  C   UNK N   1      33.172  17.249   7.976  0.00  0.00     0.138 A 
HETATM   37  C   UNK N   1      31.822  16.990   7.690  0.00  0.00     0.083 A 
HETATM   38  F   UNK N   1      33.617  17.235   9.257  0.00  0.00    -0.204 F 
HETATM   39 Cl   UNK N   1      30.764  16.647   9.062  0.00  0.00    -0.080 Cl
ENDBRANCH  29  31
ENDBRANCH  28  29
ENDBRANCH   1  28
BRANCH   8  40
HETATM   40  N   UNK N   1      27.904  18.573   9.107  0.00  0.00    -0.382 N 
HETATM   41  H   UNK N   1      28.734  18.350   9.588  0.00  0.00     0.157 HD
HETATM   42  H   UNK N   1      27.094  18.535   9.666  0.00  0.00     0.157 HD
ENDBRANCH   8  40
TORSDOF 7
ENDMDL
MODEL 6
REMARK VINA RESULT:      -8.0      4.390      6.306
REMARK  7 active torsions:
REMARK  status: ('A' for Active; 'I' for Inactive)
REMARK    1  A    between atoms: C_2  and  C_3 
REMARK    2  A    between atoms: C_2  and  O_12 
REMARK    3  A    between atoms: O_12  and  C_13 
REMARK    4  A    between atoms: C_15  and  C_22 
REMARK    5  A    between atoms: C_20  and  N_21 
REMARK       I    between atoms: C_22  and  N_24 
REMARK    6  A    between atoms: N_24  and  C_25 
REMARK    7  A    between atoms: C_28  and  C_31 
REMARK       I    between atoms: C_31  and  N_33 
ROOT
HETATM    1  C   UNK N   1      35.139  14.489   9.040  0.00  0.00     0.117 A 
HETATM    2  C   UNK N   1      35.144  15.727   8.428  0.00  0.00     0.077 A 
HETATM    3  C   UNK N   1      34.714  16.849   9.123  0.00  0.00     0.119 A 
HETATM    4  N   UNK N   1      34.310  16.712  10.418  0.00  0.00    -0.294 N 
ATOM      5  HN  UNK N   1      33.975  17.530  10.925  1.00  0.00     0.187 HD
HETATM    6  N   UNK N   1      34.345  15.533  11.035  0.00  0.00    -0.283 N 
ATOM      7  HN  UNK N   1      34.078  15.477  12.019  1.00  0.00     0.188 HD
HETATM    8  C   UNK N   1      34.728  14.399  10.384  0.00  0.00     0.147 A 
ENDROOT
BRANCH   3   9
HETATM    9  C   UNK N   1      34.471  18.109   8.400  0.00  0.00     0.274 C 
HETATM   10  O   UNK N   1      35.325  18.982   8.448  0.00  0.00    -0.266 OA
HETATM   11  N   UNK N   1      33.295  18.389   7.774  0.00  0.00    -0.322 N 
HETATM   12  H   UNK N   1      32.997  19.326   7.793  0.00  0.00     0.169 HD
BRANCH  11  13
HETATM   13  C   UNK N   1      32.454  17.465   7.096  0.00  0.00     0.035 C 
HETATM   14  C   UNK N   1      31.267  17.092   7.737  0.00  0.00     0.030 C 
HETATM   15  C   UNK N   1      30.137  16.766   6.988  0.00  0.00     0.019 C 
HETATM   16  C   UNK N   1      30.190  16.821   5.593  0.00  0.00     0.032 C 
HETATM   17  C   UNK N   1      31.425  17.021   4.960  0.00  0.00     0.019 C 
HETATM   18  C   UNK N   1      32.547  17.348   5.704  0.00  0.00     0.030 C 
BRANCH  16  19
HETATM   19  C   UNK N   1      29.015  17.441   4.947  0.00  0.00     0.253 C 
HETATM   20  O   UNK N   1      28.915  18.659   4.885  0.00  0.00    -0.267 OA
HETATM   21  N   UNK N   1      28.116  16.630   4.290  0.00  0.00    -0.345 N 
HETATM   22  C   UNK N   1      26.957  17.149   3.613  0.00  0.00     0.156 C 
HETATM   23  C   UNK N   1      28.314  15.199   4.199  0.00  0.00     0.156 C 
HETATM   24  C   UNK N   1      25.713  16.400   4.129  0.00  0.00     0.291 C 
HETATM   25  N   UNK N   1      25.873  14.932   4.178  0.00  0.00     0.087 N 
HETATM   26  C   UNK N   1      27.115  14.514   4.834  0.00  0.00     0.291 C 
HETATM   27  C   UNK N   1      25.805  14.353   2.843  0.00  0.00     0.310 C 
ENDBRANCH  16  19
ENDBRANCH  11  13
ENDBRANCH   3   9
BRANCH   1  28
HETATM   28  O   UNK N   1      35.489  13.419   8.292  0.00  0.00    -0.338 OA
BRANCH  28  29
HETATM   29  C   UNK N   1      34.604  12.753   7.481  0.00  0.00     0.161 C 
HETATM   30  C   UNK N   1      34.783  11.254   7.624  0.00  0.00     0.045 C 
BRANCH  29  31
HETATM   31  C   UNK N   1      34.699  13.174   6.019  0.00  0.00     0.017 A 
HETATM   32  C   UNK N   1      33.521  13.630   5.380  0.00  0.00     0.044 A 
HETATM   33  C   UNK N   1      33.547  14.022   4.041  0.00  0.00     0.028 A 
HETATM   34 Cl   UNK N   1      31.992  13.742   6.241  0.00  0.00    -0.084 Cl
HETATM   35  C   UNK N   1      34.731  13.968   3.312  0.00  0.00     0.046 A 
HETATM   36  C   UNK N   1      35.905  13.529   3.916  0.00  0.00     0.138 A 
HETATM   37  C   UNK N   1      35.910  13.131   5.262  0.00  0.00     0.083 A 
HETATM   38  F   UNK N   1      37.046  13.483   3.182  0.00  0.00    -0.204 F 
HETATM   39 Cl   UNK N   1      37.449  12.575   5.927  0.00  0.00    -0.080 Cl
ENDBRANCH  29  31
ENDBRANCH  28  29
ENDBRANCH   1  28
BRANCH   8  40
HETATM   40  N   UNK N   1      34.711  13.167  11.064  0.00  0.00    -0.382 N 
HETATM   41  H   UNK N   1      35.241  12.345  10.953  0.00  0.00     0.157 HD
HETATM   42  H   UNK N   1      34.045  13.119  11.787  0.00  0.00     0.157 HD
ENDBRANCH   8  40
TORSDOF 7
ENDMDL
MODEL 7
REMARK VINA RESULT:      -7.9      5.044     10.712
REMARK  7 active torsions:
REMARK  status: ('A' for Active; 'I' for Inactive)
REMARK    1  A    between atoms: C_2  and  C_3 
REMARK    2  A    between atoms: C_2  and  O_12 
REMARK    3  A    between atoms: O_12  and  C_13 
REMARK    4  A    between atoms: C_15  and  C_22 
REMARK    5  A    between atoms: C_20  and  N_21 
REMARK       I    between atoms: C_22  and  N_24 
REMARK    6  A    between atoms: N_24  and  C_25 
REMARK    7  A    between atoms: C_28  and  C_31 
REMARK       I    between atoms: C_31  and  N_33 
ROOT
HETATM    1  C   UNK N   1      29.971  17.460   7.100  0.00  0.00     0.117 A 
HETATM    2  C   UNK N   1      31.298  17.146   6.885  0.00  0.00     0.077 A 
HETATM    3  C   UNK N   1      32.247  17.428   7.859  0.00  0.00     0.119 A 
HETATM    4  N   UNK N   1      31.843  17.995   9.032  0.00  0.00    -0.294 N 
ATOM      5  HN  UNK N   1      32.540  18.221   9.742  1.00  0.00     0.187 HD
HETATM    6  N   UNK N   1      30.561  18.259   9.271  0.00  0.00    -0.283 N 
ATOM      7  HN  UNK N   1      30.291  18.641  10.178  1.00  0.00     0.188 HD
HETATM    8  C   UNK N   1      29.600  18.030   8.333  0.00  0.00     0.147 A 
ENDROOT
BRANCH   3   9
HETATM    9  C   UNK N   1      33.680  17.339   7.532  0.00  0.00     0.274 C 
HETATM   10  O   UNK N   1      34.111  18.017   6.613  0.00  0.00    -0.266 OA
HETATM   11  N   UNK N   1      34.523  16.455   8.134  0.00  0.00    -0.322 N 
HETATM   12  H   UNK N   1      35.237  16.074   7.574  0.00  0.00     0.169 HD
BRANCH  11  13
HETATM   13  C   UNK N   1      34.476  16.027   9.489  0.00  0.00     0.035 C 
HETATM   14  C   UNK N   1      33.944  14.757   9.740  0.00  0.00     0.030 C 
HETATM   15  C   UNK N   1      34.409  14.001  10.816  0.00  0.00     0.019 C 
HETATM   16  C   UNK N   1      35.415  14.511  11.639  0.00  0.00     0.032 C 
HETATM   17  C   UNK N   1      35.814  15.846  11.488  0.00  0.00     0.019 C 
HETATM   18  C   UNK N   1      35.355  16.597  10.418  0.00  0.00     0.030 C 
BRANCH  16  19
HETATM   19  C   UNK N   1      36.475  13.547  12.000  0.00  0.00     0.253 C 
HETATM   20  O   UNK N   1      37.439  13.385  11.265  0.00  0.00    -0.267 OA
HETATM   21  N   UNK N   1      36.432  12.950  13.241  0.00  0.00    -0.345 N 
HETATM   22  C   UNK N   1      37.434  12.018  13.686  0.00  0.00     0.156 C 
HETATM   23  C   UNK N   1      35.393  13.267  14.197  0.00  0.00     0.156 C 
HETATM   24  C   UNK N   1      36.730  10.732  14.160  0.00  0.00     0.291 C 
HETATM   25  N   UNK N   1      35.578  10.973  15.054  0.00  0.00     0.087 N 
HETATM   26  C   UNK N   1      34.653  11.983  14.534  0.00  0.00     0.291 C 
HETATM   27  C   UNK N   1      36.021  11.355  16.388  0.00  0.00     0.310 C 
ENDBRANCH  16  19
ENDBRANCH  11  13
ENDBRANCH   3   9
BRANCH   1  28
HETATM   28  O   UNK N   1      29.103  17.241   6.086  0.00  0.00    -0.338 OA
BRANCH  28  29
HETATM   29  C   UNK N   1      28.224  16.187   6.070  0.00  0.00     0.161 C 
HETATM   30  C   UNK N   1      28.792  15.038   5.261  0.00  0.00     0.045 C 
BRANCH  29  31
HETATM   31  C   UNK N   1      26.837  16.572   5.567  0.00  0.00     0.017 A 
HETATM   32  C   UNK N   1      25.723  15.872   6.087  0.00  0.00     0.044 A 
HETATM   33  C   UNK N   1      24.431  16.177   5.658  0.00  0.00     0.028 A 
HETATM   34 Cl   UNK N   1      25.912  14.612   7.299  0.00  0.00    -0.084 Cl
HETATM   35  C   UNK N   1      24.217  17.173   4.711  0.00  0.00     0.046 A 
HETATM   36  C   UNK N   1      25.294  17.882   4.187  0.00  0.00     0.138 A 
HETATM   37  C   UNK N   1      26.605  17.600   4.601  0.00  0.00     0.083 A 
HETATM   38  F   UNK N   1      25.060  18.847   3.262  0.00  0.00    -0.204 F 
HETATM   39 Cl   UNK N   1      27.901  18.545   3.862  0.00  0.00    -0.080 Cl
ENDBRANCH  29  31
ENDBRANCH  28  29
ENDBRANCH   1  28
BRANCH   8  40
HETATM   40  N   UNK N   1      28.261  18.362   8.613  0.00  0.00    -0.382 N 
HETATM   41  H   UNK N   1      27.768  18.452   9.461  0.00  0.00     0.157 HD
HETATM   42  H   UNK N   1      27.717  18.537   7.812  0.00  0.00     0.157 HD
ENDBRANCH   8  40
TORSDOF 7
ENDMDL
MODEL 8
REMARK VINA RESULT:      -7.8      3.597      4.790
REMARK  7 active torsions:
REMARK  status: ('A' for Active; 'I' for Inactive)
REMARK    1  A    between atoms: C_2  and  C_3 
REMARK    2  A    between atoms: C_2  and  O_12 
REMARK    3  A    between atoms: O_12  and  C_13 
REMARK    4  A    between atoms: C_15  and  C_22 
REMARK    5  A    between atoms: C_20  and  N_21 
REMARK       I    between atoms: C_22  and  N_24 
REMARK    6  A    between atoms: N_24  and  C_25 
REMARK    7  A    between atoms: C_28  and  C_31 
REMARK       I    between atoms: C_31  and  N_33 
ROOT
HETATM    1  C   UNK N   1      34.471  14.544   9.631  0.00  0.00     0.117 A 
HETATM    2  C   UNK N   1      34.453  15.621   8.768  0.00  0.00     0.077 A 
HETATM    3  C   UNK N   1      34.640  16.907   9.256  0.00  0.00     0.119 A 
HETATM    4  N   UNK N   1      34.862  17.084  10.589  0.00  0.00    -0.294 N 
ATOM      5  HN  UNK N   1      34.980  18.029  10.954  1.00  0.00     0.187 HD
HETATM    6  N   UNK N   1      34.929  16.051  11.425  0.00  0.00    -0.283 N 
ATOM      7  HN  UNK N   1      35.142  16.218  12.409  1.00  0.00     0.188 HD
HETATM    8  C   UNK N   1      34.719  14.774  10.998  0.00  0.00     0.147 A 
ENDROOT
BRANCH   3   9
HETATM    9  C   UNK N   1      34.362  18.066   8.390  0.00  0.00     0.274 C 
HETATM   10  O   UNK N   1      35.293  18.787   8.066  0.00  0.00    -0.266 OA
HETATM   11  N   UNK N   1      33.103  18.433   8.027  0.00  0.00    -0.322 N 
HETATM   12  H   UNK N   1      32.931  19.399   7.941  0.00  0.00     0.169 HD
BRANCH  11  13
HETATM   13  C   UNK N   1      32.010  17.565   7.758  0.00  0.00     0.035 C 
HETATM   14  C   UNK N   1      30.815  17.810   8.444  0.00  0.00     0.030 C 
HETATM   15  C   UNK N   1      29.589  17.510   7.850  0.00  0.00     0.019 C 
HETATM   16  C   UNK N   1      29.556  16.971   6.563  0.00  0.00     0.032 C 
HETATM   17  C   UNK N   1      30.754  16.565   5.958  0.00  0.00     0.019 C 
HETATM   18  C   UNK N   1      31.972  16.866   6.546  0.00  0.00     0.030 C 
BRANCH  16  19
HETATM   19  C   UNK N   1      28.534  17.551   5.668  0.00  0.00     0.253 C 
HETATM   20  O   UNK N   1      28.720  18.639   5.141  0.00  0.00    -0.267 OA
HETATM   21  N   UNK N   1      27.443  16.783   5.324  0.00  0.00    -0.345 N 
HETATM   22  C   UNK N   1      26.412  17.258   4.439  0.00  0.00     0.156 C 
HETATM   23  C   UNK N   1      27.296  15.423   5.796  0.00  0.00     0.156 C 
HETATM   24  C   UNK N   1      25.049  17.076   5.135  0.00  0.00     0.291 C 
HETATM   25  N   UNK N   1      24.861  15.744   5.749  0.00  0.00     0.087 N 
HETATM   26  C   UNK N   1      25.997  15.332   6.579  0.00  0.00     0.291 C 
HETATM   27  C   UNK N   1      24.604  14.731   4.734  0.00  0.00     0.310 C 
ENDBRANCH  16  19
ENDBRANCH  11  13
ENDBRANCH   3   9
BRANCH   1  28
HETATM   28  O   UNK N   1      34.201  13.323   9.116  0.00  0.00    -0.338 OA
BRANCH  28  29
HETATM   29  C   UNK N   1      34.944  12.755   8.111  0.00  0.00     0.161 C 
HETATM   30  C   UNK N   1      34.244  11.524   7.569  0.00  0.00     0.045 C 
BRANCH  29  31
HETATM   31  C   UNK N   1      36.371  12.425   8.535  0.00  0.00     0.017 A 
HETATM   32  C   UNK N   1      37.433  13.037   7.828  0.00  0.00     0.044 A 
HETATM   33  C   UNK N   1      38.759  12.767   8.167  0.00  0.00     0.028 A 
HETATM   34 Cl   UNK N   1      37.133  14.168   6.515  0.00  0.00    -0.084 Cl
HETATM   35  C   UNK N   1      39.058  11.891   9.206  0.00  0.00     0.046 A 
HETATM   36  C   UNK N   1      38.034  11.279   9.922  0.00  0.00     0.138 A 
HETATM   37  C   UNK N   1      36.690  11.534   9.605  0.00  0.00     0.083 A 
HETATM   38  F   UNK N   1      38.352  10.427  10.928  0.00  0.00    -0.204 F 
HETATM   39 Cl   UNK N   1      35.468  10.694  10.564  0.00  0.00    -0.080 Cl
ENDBRANCH  29  31
ENDBRANCH  28  29
ENDBRANCH   1  28
BRANCH   8  40
HETATM   40  N   UNK N   1      34.760  13.715  11.924  0.00  0.00    -0.382 N 
HETATM   41  H   UNK N   1      35.508  13.262  12.375  0.00  0.00     0.157 HD
HETATM   42  H   UNK N   1      33.873  13.362  12.166  0.00  0.00     0.157 HD
ENDBRANCH   8  40
TORSDOF 7
ENDMDL
MODEL 9
REMARK VINA RESULT:      -7.8      2.835      3.785
REMARK  7 active torsions:
REMARK  status: ('A' for Active; 'I' for Inactive)
REMARK    1  A    between atoms: C_2  and  C_3 
REMARK    2  A    between atoms: C_2  and  O_12 
REMARK    3  A    between atoms: O_12  and  C_13 
REMARK    4  A    between atoms: C_15  and  C_22 
REMARK    5  A    between atoms: C_20  and  N_21 
REMARK       I    between atoms: C_22  and  N_24 
REMARK    6  A    between atoms: N_24  and  C_25 
REMARK    7  A    between atoms: C_28  and  C_31 
REMARK       I    between atoms: C_31  and  N_33 
ROOT
HETATM    1  C   UNK N   1      36.862  12.239  10.629  0.00  0.00     0.117 A 
HETATM    2  C   UNK N   1      35.972  13.260  10.894  0.00  0.00     0.077 A 
HETATM    3  C   UNK N   1      36.354  14.582  10.709  0.00  0.00     0.119 A 
HETATM    4  N   UNK N   1      37.606  14.851  10.241  0.00  0.00    -0.294 N 
ATOM      5  HN  UNK N   1      37.897  15.821  10.123  1.00  0.00     0.187 HD
HETATM    6  N   UNK N   1      38.458  13.875   9.937  0.00  0.00    -0.283 N 
ATOM      7  HN  UNK N   1      39.370  14.113   9.546  1.00  0.00     0.188 HD
HETATM    8  C   UNK N   1      38.140  12.565  10.133  0.00  0.00     0.147 A 
ENDROOT
BRANCH   3   9
HETATM    9  C   UNK N   1      35.509  15.669  11.235  0.00  0.00     0.274 C 
HETATM   10  O   UNK N   1      35.644  15.997  12.403  0.00  0.00    -0.266 OA
HETATM   11  N   UNK N   1      34.511  16.246  10.512  0.00  0.00    -0.322 N 
HETATM   12  H   UNK N   1      33.709  16.523  11.009  0.00  0.00     0.169 HD
BRANCH  11  13
HETATM   13  C   UNK N   1      34.510  16.490   9.111  0.00  0.00     0.035 C 
HETATM   14  C   UNK N   1      34.168  15.420   8.277  0.00  0.00     0.030 C 
HETATM   15  C   UNK N   1      33.525  15.654   7.062  0.00  0.00     0.019 C 
HETATM   16  C   UNK N   1      33.213  16.961   6.682  0.00  0.00     0.032 C 
HETATM   17  C   UNK N   1      33.714  18.032   7.435  0.00  0.00     0.019 C 
HETATM   18  C   UNK N   1      34.350  17.800   8.644  0.00  0.00     0.030 C 
BRANCH  16  19
HETATM   19  C   UNK N   1      31.865  17.140   6.106  0.00  0.00     0.253 C 
HETATM   20  O   UNK N   1      31.704  17.125   4.893  0.00  0.00    -0.267 OA
HETATM   21  N   UNK N   1      30.781  17.175   6.956  0.00  0.00    -0.345 N 
HETATM   22  C   UNK N   1      29.430  17.321   6.481  0.00  0.00     0.156 C 
HETATM   23  C   UNK N   1      30.936  17.013   8.386  0.00  0.00     0.156 C 
HETATM   24  C   UNK N   1      28.774  18.499   7.229  0.00  0.00     0.291 C 
HETATM   25  N   UNK N   1      28.984  18.472   8.692  0.00  0.00     0.087 N 
HETATM   26  C   UNK N   1      30.384  18.256   9.065  0.00  0.00     0.291 C 
HETATM   27  C   UNK N   1      28.148  17.460   9.323  0.00  0.00     0.310 C 
ENDBRANCH  16  19
ENDBRANCH  11  13
ENDBRANCH   3   9
BRANCH   1  28
HETATM   28  O   UNK N   1      36.468  10.976  10.906  0.00  0.00    -0.338 OA
BRANCH  28  29
HETATM   29  C   UNK N   1      36.937  10.266  11.983  0.00  0.00     0.161 C 
HETATM   30  C   UNK N   1      36.928   8.780  11.679  0.00  0.00     0.045 C 
BRANCH  29  31
HETATM   31  C   UNK N   1      36.178  10.562  13.271  0.00  0.00     0.017 A 
HETATM   32  C   UNK N   1      36.928  10.922  14.417  0.00  0.00     0.044 A 
HETATM   33  C   UNK N   1      36.288  11.196  15.625  0.00  0.00     0.028 A 
HETATM   34 Cl   UNK N   1      38.681  11.056  14.364  0.00  0.00    -0.084 Cl
HETATM   35  C   UNK N   1      34.902  11.119  15.725  0.00  0.00     0.046 A 
HETATM   36  C   UNK N   1      34.139  10.774  14.613  0.00  0.00     0.138 A 
HETATM   37  C   UNK N   1      34.756  10.494  13.383  0.00  0.00     0.083 A 
HETATM   38  F   UNK N   1      32.790  10.702  14.737  0.00  0.00    -0.204 F 
HETATM   39 Cl   UNK N   1      33.698  10.048  12.040  0.00  0.00    -0.080 Cl
ENDBRANCH  29  31
ENDBRANCH  28  29
ENDBRANCH   1  28
BRANCH   8  40
HETATM   40  N   UNK N   1      39.086  11.567   9.835  0.00  0.00    -0.382 N 
HETATM   41  H   UNK N   1      39.002  10.686   9.403  0.00  0.00     0.157 HD
HETATM   42  H   UNK N   1      40.005  11.793  10.108  0.00  0.00     0.157 HD
ENDBRANCH   8  40
TORSDOF 7
ENDMDL
