MODEL 1
REMARK VINA RESULT:      -8.0      0.000      0.000
REMARK  4 active torsions:
REMARK  status: ('A' for Active; 'I' for Inactive)
REMARK    1  A    between atoms: C_4  and  C_8 
REMARK    2  A    between atoms: C_11  and  C_9 
REMARK    3  A    between atoms: C_19  and  O_33 
REMARK    4  A    between atoms: C_24  and  O_29 
ROOT
HETATM    1  C   UNK N   1      30.332  16.727   5.207  0.00  0.00     0.164 C 
HETATM    2  C   UNK N   1      30.833  16.675   3.759  0.00  0.00     0.064 C 
HETATM    3  C   UNK N   1      29.761  16.180   2.819  0.00  0.00    -0.021 C 
HETATM    4  C   UNK N   1      29.206  14.963   2.890  0.00  0.00    -0.084 C 
HETATM    5  C   UNK N   1      29.644  13.953   3.911  0.00  0.00     0.060 C 
HETATM    6  C   UNK N   1      30.073  12.701   3.222  0.00  0.00    -0.026 C 
HETATM    7  C   UNK N   1      31.244  12.064   3.376  0.00  0.00    -0.024 C 
HETATM    8  C   UNK N   1      32.425  12.364   4.274  0.00  0.00     0.033 C 
HETATM    9  C   UNK N   1      32.412  13.653   5.121  0.00  0.00     0.136 C 
HETATM   10  C   UNK N   1      33.800  14.019   5.697  0.00  0.00     0.081 C 
HETATM   11  C   UNK N   1      33.790  15.441   6.226  0.00  0.00     0.143 C 
HETATM   12  O   UNK N   1      33.594  16.334   5.416  0.00  0.00    -0.297 OA
HETATM   13  C   UNK N   1      34.049  15.803   7.696  0.00  0.00     0.040 C 
HETATM   14  C   UNK N   1      33.807  17.303   8.016  0.00  0.00     0.142 C 
HETATM   15  C   UNK N   1      32.358  17.800   8.207  0.00  0.00     0.144 C 
HETATM   16  C   UNK N   1      31.295  17.148   7.369  0.00  0.00     0.262 C 
HETATM   17  O   UNK N   1      30.433  16.481   7.923  0.00  0.00    -0.265 OA
HETATM   18  O   UNK N   1      31.284  17.308   6.023  0.00  0.00    -0.311 OA
HETATM   19  C   UNK N   1      33.175  14.972   8.629  0.00  0.00     0.026 C 
HETATM   20  C   UNK N   1      35.499  15.487   8.025  0.00  0.00     0.026 C 
HETATM   21  C   UNK N   1      34.306  12.989   6.704  0.00  0.00     0.020 C 
HETATM   22  C   UNK N   1      32.687  11.122   5.108  0.00  0.00     0.017 C 
HETATM   23  C   UNK N   1      28.090  14.629   1.955  0.00  0.00     0.043 C 
ENDROOT
BRANCH   1  24
HETATM   24  C   UNK N   1      29.013  17.442   5.309  0.00  0.00    -0.052 C 
HETATM   25  C   UNK N   1      28.890  18.688   4.817  0.00  0.00     0.036 C 
HETATM   26  C   UNK N   1      27.861  16.703   5.914  0.00  0.00     0.046 C 
BRANCH  25  27
HETATM   27  C   UNK N   1      27.620  19.422   4.695  0.00  0.00     0.057 A 
HETATM   28  C   UNK N   1      26.667  19.263   3.705  0.00  0.00     0.066 A 
HETATM   29  C   UNK N   1      25.751  20.250   3.991  0.00  0.00     0.074 A 
HETATM   30  C   UNK N   1      24.527  20.555   3.206  0.00  0.00     0.079 C 
HETATM   31  O   UNK N   1      26.148  20.915   5.050  0.00  0.00    -0.242 OA
HETATM   32  N   UNK N   1      27.274  20.450   5.493  0.00  0.00    -0.261 N 
ATOM     33  HN  UNK N   1      27.800  20.796   6.296  1.00  0.00     0.195 HD
ENDBRANCH  25  27
ENDBRANCH   1  24
BRANCH  14  34
HETATM   34  O   UNK N   1      34.534  18.158   7.183  0.00  0.00    -0.394 OA
HETATM   35  H   UNK N   1      34.854  18.686   6.434  0.00  0.00     0.210 HD
ENDBRANCH  14  34
BRANCH   9  36
HETATM   36  O   UNK N   1      31.455  13.583   6.140  0.00  0.00    -0.394 OA
HETATM   37  H   UNK N   1      30.869  13.904   6.843  0.00  0.00     0.210 HD
ENDBRANCH   9  36
TORSDOF 4
ENDMDL
MODEL 2
REMARK VINA RESULT:      -7.7      7.173     11.278
REMARK  4 active torsions:
REMARK  status: ('A' for Active; 'I' for Inactive)
REMARK    1  A    between atoms: C_4  and  C_8 
REMARK    2  A    between atoms: C_11  and  C_9 
REMARK    3  A    between atoms: C_19  and  O_33 
REMARK    4  A    between atoms: C_24  and  O_29 
ROOT
HETATM    1  C   UNK N   1      35.332  12.067  13.128  0.00  0.00     0.164 C 
HETATM    2  C   UNK N   1      34.320  10.921  13.007  0.00  0.00     0.064 C 
HETATM    3  C   UNK N   1      34.788   9.688  13.740  0.00  0.00    -0.021 C 
HETATM    4  C   UNK N   1      35.902   9.012  13.432  0.00  0.00    -0.084 C 
HETATM    5  C   UNK N   1      36.777   9.413  12.280  0.00  0.00     0.060 C 
HETATM    6  C   UNK N   1      36.929   8.260  11.343  0.00  0.00    -0.026 C 
HETATM    7  C   UNK N   1      36.689   8.265  10.023  0.00  0.00    -0.024 C 
HETATM    8  C   UNK N   1      36.252   9.381   9.099  0.00  0.00     0.033 C 
HETATM    9  C   UNK N   1      35.907  10.758   9.701  0.00  0.00     0.136 C 
HETATM   10  C   UNK N   1      35.140  11.678   8.722  0.00  0.00     0.081 C 
HETATM   11  C   UNK N   1      34.549  12.861   9.466  0.00  0.00     0.143 C 
HETATM   12  O   UNK N   1      33.708  12.617  10.317  0.00  0.00    -0.297 OA
HETATM   13  C   UNK N   1      34.925  14.321   9.177  0.00  0.00     0.040 C 
HETATM   14  C   UNK N   1      34.320  15.329  10.191  0.00  0.00     0.142 C 
HETATM   15  C   UNK N   1      34.990  15.489  11.573  0.00  0.00     0.144 C 
HETATM   16  C   UNK N   1      35.601  14.260  12.183  0.00  0.00     0.262 C 
HETATM   17  O   UNK N   1      36.812  14.219  12.341  0.00  0.00    -0.265 OA
HETATM   18  O   UNK N   1      34.821  13.220  12.566  0.00  0.00    -0.311 OA
HETATM   19  C   UNK N   1      36.438  14.509   9.168  0.00  0.00     0.026 C 
HETATM   20  C   UNK N   1      34.410  14.690   7.795  0.00  0.00     0.026 C 
HETATM   21  C   UNK N   1      35.979  12.069   7.508  0.00  0.00     0.020 C 
HETATM   22  C   UNK N   1      37.279   9.474   7.984  0.00  0.00     0.017 C 
HETATM   23  C   UNK N   1      36.302   7.858  14.293  0.00  0.00     0.043 C 
ENDROOT
BRANCH   1  24
HETATM   24  C   UNK N   1      35.745  12.290  14.556  0.00  0.00    -0.052 C 
HETATM   25  C   UNK N   1      34.817  12.600  15.478  0.00  0.00     0.036 C 
HETATM   26  C   UNK N   1      37.188  12.099  14.906  0.00  0.00     0.046 C 
BRANCH  25  27
HETATM   27  C   UNK N   1      35.061  12.667  16.929  0.00  0.00     0.057 A 
HETATM   28  C   UNK N   1      35.230  11.597  17.788  0.00  0.00     0.066 A 
HETATM   29  C   UNK N   1      35.313  12.197  19.024  0.00  0.00     0.074 A 
HETATM   30  C   UNK N   1      35.460  11.495  20.324  0.00  0.00     0.079 C 
HETATM   31  O   UNK N   1      35.196  13.496  18.882  0.00  0.00    -0.242 OA
HETATM   32  N   UNK N   1      35.034  13.813  17.635  0.00  0.00    -0.261 N 
ATOM     33  HN  UNK N   1      34.910  14.753  17.259  1.00  0.00     0.195 HD
ENDBRANCH  25  27
ENDBRANCH   1  24
BRANCH  14  34
HETATM   34  O   UNK N   1      32.932  15.212  10.308  0.00  0.00    -0.394 OA
HETATM   35  H   UNK N   1      31.987  15.383  10.445  0.00  0.00     0.210 HD
ENDBRANCH  14  34
BRANCH   9  36
HETATM   36  O   UNK N   1      37.050  11.401  10.191  0.00  0.00    -0.394 OA
HETATM   37  H   UNK N   1      37.744  11.634  10.827  0.00  0.00     0.210 HD
ENDBRANCH   9  36
TORSDOF 4
ENDMDL
MODEL 3
REMARK VINA RESULT:      -7.6      2.881      4.463
REMARK  4 active torsions:
REMARK  status: ('A' for Active; 'I' for Inactive)
REMARK    1  A    between atoms: C_4  and  C_8 
REMARK    2  A    between atoms: C_11  and  C_9 
REMARK    3  A    between atoms: C_19  and  O_33 
REMARK    4  A    between atoms: C_24  and  O_29 
ROOT
HETATM    1  C   UNK N   1      33.746  15.668   7.791  0.00  0.00     0.164 C 
HETATM    2  C   UNK N   1      34.447  15.689   6.427  0.00  0.00     0.064 C 
HETATM    3  C   UNK N   1      33.453  15.705   5.292  0.00  0.00    -0.021 C 
HETATM    4  C   UNK N   1      32.571  14.724   5.056  0.00  0.00    -0.084 C 
HETATM    5  C   UNK N   1      32.526  13.482   5.898  0.00  0.00     0.060 C 
HETATM    6  C   UNK N   1      32.691  12.282   5.026  0.00  0.00    -0.026 C 
HETATM    7  C   UNK N   1      33.590  11.298   5.182  0.00  0.00    -0.024 C 
HETATM    8  C   UNK N   1      34.638  11.073   6.249  0.00  0.00     0.033 C 
HETATM    9  C   UNK N   1      34.850  12.154   7.329  0.00  0.00     0.136 C 
HETATM   10  C   UNK N   1      36.168  11.977   8.120  0.00  0.00     0.081 C 
HETATM   11  C   UNK N   1      36.474  13.231   8.917  0.00  0.00     0.143 C 
HETATM   12  O   UNK N   1      36.678  14.255   8.285  0.00  0.00    -0.297 OA
HETATM   13  C   UNK N   1      36.574  13.260  10.449  0.00  0.00     0.040 C 
HETATM   14  C   UNK N   1      36.718  14.691  11.033  0.00  0.00     0.142 C 
HETATM   15  C   UNK N   1      35.459  15.578  11.154  0.00  0.00     0.144 C 
HETATM   16  C   UNK N   1      34.411  15.426  10.088  0.00  0.00     0.262 C 
HETATM   17  O   UNK N   1      33.315  14.982  10.397  0.00  0.00    -0.265 OA
HETATM   18  O   UNK N   1      34.672  15.790   8.809  0.00  0.00    -0.311 OA
HETATM   19  C   UNK N   1      35.356  12.606  11.093  0.00  0.00     0.026 C 
HETATM   20  C   UNK N   1      37.797  12.463  10.872  0.00  0.00     0.026 C 
HETATM   21  C   UNK N   1      36.183  10.697   8.952  0.00  0.00     0.020 C 
HETATM   22  C   UNK N   1      34.393   9.697   6.843  0.00  0.00     0.017 C 
HETATM   23  C   UNK N   1      31.580  14.903   3.953  0.00  0.00     0.043 C 
ENDROOT
BRANCH   1  24
HETATM   24  C   UNK N   1      32.687  16.731   7.884  0.00  0.00    -0.052 C 
HETATM   25  C   UNK N   1      31.396  16.377   8.013  0.00  0.00     0.036 C 
HETATM   26  C   UNK N   1      33.128  18.161   7.884  0.00  0.00     0.046 C 
BRANCH  25  27
HETATM   27  C   UNK N   1      30.292  17.310   8.290  0.00  0.00     0.057 A 
HETATM   28  C   UNK N   1      29.438  17.877   7.362  0.00  0.00     0.066 A 
HETATM   29  C   UNK N   1      28.679  18.740   8.120  0.00  0.00     0.074 A 
HETATM   30  C   UNK N   1      27.618  19.645   7.609  0.00  0.00     0.079 C 
HETATM   31  O   UNK N   1      29.069  18.674   9.371  0.00  0.00    -0.242 OA
HETATM   32  N   UNK N   1      30.045  17.830   9.507  0.00  0.00    -0.261 N 
ATOM     33  HN  UNK N   1      30.533  17.601  10.373  1.00  0.00     0.195 HD
ENDBRANCH  25  27
ENDBRANCH   1  24
BRANCH  14  34
HETATM   34  O   UNK N   1      37.787  15.398  10.475  0.00  0.00    -0.394 OA
HETATM   35  H   UNK N   1      38.455  16.068  10.260  0.00  0.00     0.210 HD
ENDBRANCH  14  34
BRANCH   9  36
HETATM   36  O   UNK N   1      33.756  12.225   8.199  0.00  0.00    -0.394 OA
HETATM   37  H   UNK N   1      32.826  12.294   8.466  0.00  0.00     0.210 HD
ENDBRANCH   9  36
TORSDOF 4
ENDMDL
MODEL 4
REMARK VINA RESULT:      -7.6      3.791      8.166
REMARK  4 active torsions:
REMARK  status: ('A' for Active; 'I' for Inactive)
REMARK    1  A    between atoms: C_4  and  C_8 
REMARK    2  A    between atoms: C_11  and  C_9 
REMARK    3  A    between atoms: C_19  and  O_33 
REMARK    4  A    between atoms: C_24  and  O_29 
ROOT
HETATM    1  C   UNK N   1      34.258  14.194   8.641  0.00  0.00     0.164 C 
HETATM    2  C   UNK N   1      33.589  12.816   8.563  0.00  0.00     0.064 C 
HETATM    3  C   UNK N   1      34.594  11.702   8.721  0.00  0.00    -0.021 C 
HETATM    4  C   UNK N   1      35.612  11.485   7.877  0.00  0.00    -0.084 C 
HETATM    5  C   UNK N   1      35.818  12.330   6.653  0.00  0.00     0.060 C 
HETATM    6  C   UNK N   1      35.844  11.458   5.443  0.00  0.00    -0.026 C 
HETATM    7  C   UNK N   1      35.092  11.598   4.340  0.00  0.00    -0.024 C 
HETATM    8  C   UNK N   1      34.065  12.643   3.967  0.00  0.00     0.033 C 
HETATM    9  C   UNK N   1      33.678  13.717   5.005  0.00  0.00     0.136 C 
HETATM   10  C   UNK N   1      32.384  14.482   4.640  0.00  0.00     0.081 C 
HETATM   11  C   UNK N   1      31.885  15.270   5.837  0.00  0.00     0.143 C 
HETATM   12  O   UNK N   1      31.550  14.631   6.822  0.00  0.00    -0.297 OA
HETATM   13  C   UNK N   1      31.751  16.799   5.850  0.00  0.00     0.040 C 
HETATM   14  C   UNK N   1      31.392  17.377   7.246  0.00  0.00     0.142 C 
HETATM   15  C   UNK N   1      32.508  17.522   8.303  0.00  0.00     0.144 C 
HETATM   16  C   UNK N   1      33.588  16.478   8.304  0.00  0.00     0.262 C 
HETATM   17  O   UNK N   1      34.730  16.809   8.021  0.00  0.00    -0.265 OA
HETATM   18  O   UNK N   1      33.304  15.192   8.628  0.00  0.00    -0.311 OA
HETATM   19  C   UNK N   1      33.036  17.469   5.377  0.00  0.00     0.026 C 
HETATM   20  C   UNK N   1      30.646  17.198   4.886  0.00  0.00     0.026 C 
HETATM   21  C   UNK N   1      32.535  15.316   3.371  0.00  0.00     0.020 C 
HETATM   22  C   UNK N   1      34.493  13.246   2.639  0.00  0.00     0.017 C 
HETATM   23  C   UNK N   1      36.589  10.402   8.197  0.00  0.00     0.043 C 
ENDROOT
BRANCH   1  24
HETATM   24  C   UNK N   1      35.153  14.305   9.844  0.00  0.00    -0.052 C 
HETATM   25  C   UNK N   1      34.617  14.271  11.078  0.00  0.00     0.036 C 
HETATM   26  C   UNK N   1      36.628  14.395   9.615  0.00  0.00     0.046 C 
BRANCH  25  27
HETATM   27  C   UNK N   1      35.391  14.192  12.328  0.00  0.00     0.057 A 
HETATM   28  C   UNK N   1      35.358  13.167  13.255  0.00  0.00     0.066 A 
HETATM   29  C   UNK N   1      36.165  13.634  14.268  0.00  0.00     0.074 A 
HETATM   30  C   UNK N   1      36.450  12.934  15.547  0.00  0.00     0.079 C 
HETATM   31  O   UNK N   1      36.616  14.823  13.948  0.00  0.00    -0.242 OA
HETATM   32  N   UNK N   1      36.161  15.194  12.791  0.00  0.00    -0.261 N 
ATOM     33  HN  UNK N   1      36.353  16.078  12.319  1.00  0.00     0.195 HD
ENDBRANCH  25  27
ENDBRANCH   1  24
BRANCH  14  34
HETATM   34  O   UNK N   1      30.244  16.796   7.793  0.00  0.00    -0.394 OA
HETATM   35  H   UNK N   1      29.371  16.393   7.924  0.00  0.00     0.210 HD
ENDBRANCH  14  34
BRANCH   9  36
HETATM   36  O   UNK N   1      34.733  14.608   5.231  0.00  0.00    -0.394 OA
HETATM   37  H   UNK N   1      35.352  15.154   5.742  0.00  0.00     0.210 HD
ENDBRANCH   9  36
TORSDOF 4
ENDMDL
MODEL 5
REMARK VINA RESULT:      -7.4      4.566      9.826
REMARK  4 active torsions:
REMARK  status: ('A' for Active; 'I' for Inactive)
REMARK    1  A    between atoms: C_4  and  C_8 
REMARK    2  A    between atoms: C_11  and  C_9 
REMARK    3  A    between atoms: C_19  and  O_33 
REMARK    4  A    between atoms: C_24  and  O_29 
ROOT
HETATM    1  C   UNK N   1      25.110  16.359   4.696  0.00  0.00     0.164 C 
HETATM    2  C   UNK N   1      25.439  16.689   3.235  0.00  0.00     0.064 C 
HETATM    3  C   UNK N   1      26.342  17.894   3.129  0.00  0.00    -0.021 C 
HETATM    4  C   UNK N   1      26.005  19.121   3.548  0.00  0.00    -0.084 C 
HETATM    5  C   UNK N   1      24.656  19.413   4.136  0.00  0.00     0.060 C 
HETATM    6  C   UNK N   1      23.999  20.507   3.360  0.00  0.00    -0.026 C 
HETATM    7  C   UNK N   1      22.778  20.472   2.806  0.00  0.00    -0.024 C 
HETATM    8  C   UNK N   1      21.714  19.396   2.818  0.00  0.00     0.033 C 
HETATM    9  C   UNK N   1      22.032  18.036   3.473  0.00  0.00     0.136 C 
HETATM   10  C   UNK N   1      21.019  16.927   3.102  0.00  0.00     0.081 C 
HETATM   11  C   UNK N   1      21.563  15.567   3.495  0.00  0.00     0.143 C 
HETATM   12  O   UNK N   1      22.583  15.194   2.937  0.00  0.00    -0.297 OA
HETATM   13  C   UNK N   1      20.882  14.642   4.514  0.00  0.00     0.040 C 
HETATM   14  C   UNK N   1      21.726  13.390   4.876  0.00  0.00     0.142 C 
HETATM   15  C   UNK N   1      22.893  13.541   5.877  0.00  0.00     0.144 C 
HETATM   16  C   UNK N   1      23.652  14.837   5.851  0.00  0.00     0.262 C 
HETATM   17  O   UNK N   1      23.597  15.572   6.826  0.00  0.00    -0.265 OA
HETATM   18  O   UNK N   1      24.397  15.179   4.771  0.00  0.00    -0.311 OA
HETATM   19  C   UNK N   1      20.561  15.386   5.805  0.00  0.00     0.026 C 
HETATM   20  C   UNK N   1      19.566  14.158   3.927  0.00  0.00     0.026 C 
HETATM   21  C   UNK N   1      19.619  17.211   3.639  0.00  0.00     0.020 C 
HETATM   22  C   UNK N   1      20.443  20.022   3.367  0.00  0.00     0.017 C 
HETATM   23  C   UNK N   1      27.025  20.210   3.468  0.00  0.00     0.043 C 
ENDROOT
BRANCH   1  24
HETATM   24  C   UNK N   1      26.352  16.304   5.542  0.00  0.00    -0.052 C 
HETATM   25  C   UNK N   1      26.706  17.373   6.276  0.00  0.00     0.036 C 
HETATM   26  C   UNK N   1      27.122  15.021   5.574  0.00  0.00     0.046 C 
BRANCH  25  27
HETATM   27  C   UNK N   1      27.788  17.387   7.275  0.00  0.00     0.057 A 
HETATM   28  C   UNK N   1      29.138  17.554   7.026  0.00  0.00     0.066 A 
HETATM   29  C   UNK N   1      29.710  17.376   8.266  0.00  0.00     0.074 A 
HETATM   30  C   UNK N   1      31.164  17.410   8.567  0.00  0.00     0.079 C 
HETATM   31  O   UNK N   1      28.768  17.126   9.144  0.00  0.00    -0.242 OA
HETATM   32  N   UNK N   1      27.600  17.115   8.580  0.00  0.00    -0.261 N 
ATOM     33  HN  UNK N   1      26.706  16.936   9.038  1.00  0.00     0.195 HD
ENDBRANCH  25  27
ENDBRANCH   1  24
BRANCH  14  34
HETATM   34  O   UNK N   1      22.112  12.654   3.751  0.00  0.00    -0.394 OA
HETATM   35  H   UNK N   1      22.289  11.946   3.113  0.00  0.00     0.210 HD
ENDBRANCH  14  34
BRANCH   9  36
HETATM   36  O   UNK N   1      22.150  18.155   4.862  0.00  0.00    -0.394 OA
HETATM   37  H   UNK N   1      22.501  17.984   5.750  0.00  0.00     0.210 HD
ENDBRANCH   9  36
TORSDOF 4
ENDMDL
MODEL 6
REMARK VINA RESULT:      -7.4      7.425     10.502
REMARK  4 active torsions:
REMARK  status: ('A' for Active; 'I' for Inactive)
REMARK    1  A    between atoms: C_4  and  C_8 
REMARK    2  A    between atoms: C_11  and  C_9 
REMARK    3  A    between atoms: C_19  and  O_33 
REMARK    4  A    between atoms: C_24  and  O_29 
ROOT
HETATM    1  C   UNK N   1      36.030  12.244  12.138  0.00  0.00     0.164 C 
HETATM    2  C   UNK N   1      37.483  12.692  11.940  0.00  0.00     0.064 C 
HETATM    3  C   UNK N   1      37.911  12.569  10.498  0.00  0.00    -0.021 C 
HETATM    4  C   UNK N   1      37.959  11.411   9.828  0.00  0.00    -0.084 C 
HETATM    5  C   UNK N   1      37.621  10.103  10.483  0.00  0.00     0.060 C 
HETATM    6  C   UNK N   1      38.772   9.163  10.345  0.00  0.00    -0.026 C 
HETATM    7  C   UNK N   1      39.385   8.498  11.336  0.00  0.00    -0.024 C 
HETATM    8  C   UNK N   1      39.102   8.452  12.821  0.00  0.00     0.033 C 
HETATM    9  C   UNK N   1      38.004   9.365  13.403  0.00  0.00     0.136 C 
HETATM   10  C   UNK N   1      38.065   9.490  14.943  0.00  0.00     0.081 C 
HETATM   11  C   UNK N   1      37.193  10.639  15.412  0.00  0.00     0.143 C 
HETATM   12  O   UNK N   1      37.504  11.760  15.041  0.00  0.00    -0.297 OA
HETATM   13  C   UNK N   1      35.984  10.463  16.343  0.00  0.00     0.040 C 
HETATM   14  C   UNK N   1      35.152  11.761  16.530  0.00  0.00     0.142 C 
HETATM   15  C   UNK N   1      34.165  12.179  15.419  0.00  0.00     0.144 C 
HETATM   16  C   UNK N   1      34.559  11.873  14.002  0.00  0.00     0.262 C 
HETATM   17  O   UNK N   1      33.897  11.067  13.366  0.00  0.00    -0.265 OA
HETATM   18  O   UNK N   1      35.623  12.492  13.434  0.00  0.00    -0.311 OA
HETATM   19  C   UNK N   1      35.051   9.371  15.833  0.00  0.00     0.026 C 
HETATM   20  C   UNK N   1      36.485  10.034  17.713  0.00  0.00     0.026 C 
HETATM   21  C   UNK N   1      37.777   8.167  15.650  0.00  0.00     0.020 C 
HETATM   22  C   UNK N   1      38.907   6.993  13.200  0.00  0.00     0.017 C 
HETATM   23  C   UNK N   1      38.313  11.437   8.376  0.00  0.00     0.043 C 
ENDROOT
BRANCH   1  24
HETATM   24  C   UNK N   1      35.112  12.895  11.141  0.00  0.00    -0.052 C 
HETATM   25  C   UNK N   1      34.880  14.218  11.214  0.00  0.00     0.036 C 
HETATM   26  C   UNK N   1      34.530  12.039  10.060  0.00  0.00     0.046 C 
BRANCH  25  27
HETATM   27  C   UNK N   1      34.150  15.001  10.202  0.00  0.00     0.057 A 
HETATM   28  C   UNK N   1      34.703  15.832   9.246  0.00  0.00     0.066 A 
HETATM   29  C   UNK N   1      33.600  16.395   8.644  0.00  0.00     0.074 A 
HETATM   30  C   UNK N   1      33.623  17.408   7.558  0.00  0.00     0.079 C 
HETATM   31  O   UNK N   1      32.513  15.927   9.210  0.00  0.00    -0.242 OA
HETATM   32  N   UNK N   1      32.808  15.093  10.159  0.00  0.00    -0.261 N 
ATOM     33  HN  UNK N   1      32.147  14.599  10.759  1.00  0.00     0.195 HD
ENDBRANCH  25  27
ENDBRANCH   1  24
BRANCH  14  34
HETATM   34  O   UNK N   1      35.927  12.843  16.958  0.00  0.00    -0.394 OA
HETATM   35  H   UNK N   1      36.254  13.643  17.399  0.00  0.00     0.210 HD
ENDBRANCH  14  34
BRANCH   9  36
HETATM   36  O   UNK N   1      36.731   8.957  12.989  0.00  0.00    -0.394 OA
HETATM   37  H   UNK N   1      35.970   8.857  12.396  0.00  0.00     0.210 HD
ENDBRANCH   9  36
TORSDOF 4
ENDMDL
MODEL 7
REMARK VINA RESULT:      -7.3      4.211      8.778
REMARK  4 active torsions:
REMARK  status: ('A' for Active; 'I' for Inactive)
REMARK    1  A    between atoms: C_4  and  C_8 
REMARK    2  A    between atoms: C_11  and  C_9 
REMARK    3  A    between atoms: C_19  and  O_33 
REMARK    4  A    between atoms: C_24  and  O_29 
ROOT
HETATM    1  C   UNK N   1      26.632  15.982   5.264  0.00  0.00     0.164 C 
HETATM    2  C   UNK N   1      26.693  16.325   3.770  0.00  0.00     0.064 C 
HETATM    3  C   UNK N   1      27.287  17.693   3.538  0.00  0.00    -0.021 C 
HETATM    4  C   UNK N   1      26.744  18.831   3.990  0.00  0.00    -0.084 C 
HETATM    5  C   UNK N   1      25.449  18.844   4.748  0.00  0.00     0.060 C 
HETATM    6  C   UNK N   1      24.475  19.740   4.058  0.00  0.00    -0.026 C 
HETATM    7  C   UNK N   1      23.231  19.420   3.670  0.00  0.00    -0.024 C 
HETATM    8  C   UNK N   1      22.441  18.141   3.829  0.00  0.00     0.033 C 
HETATM    9  C   UNK N   1      23.131  16.907   4.445  0.00  0.00     0.136 C 
HETATM   10  C   UNK N   1      22.348  15.592   4.219  0.00  0.00     0.081 C 
HETATM   11  C   UNK N   1      23.224  14.396   4.546  0.00  0.00     0.143 C 
HETATM   12  O   UNK N   1      24.221  14.235   3.861  0.00  0.00    -0.297 OA
HETATM   13  C   UNK N   1      22.898  13.382   5.651  0.00  0.00     0.040 C 
HETATM   14  C   UNK N   1      24.036  12.357   5.907  0.00  0.00     0.142 C 
HETATM   15  C   UNK N   1      25.258  12.794   6.745  0.00  0.00     0.144 C 
HETATM   16  C   UNK N   1      25.704  14.222   6.611  0.00  0.00     0.262 C 
HETATM   17  O   UNK N   1      25.613  14.962   7.580  0.00  0.00    -0.265 OA
HETATM   18  O   UNK N   1      26.212  14.679   5.440  0.00  0.00    -0.311 OA
HETATM   19  C   UNK N   1      22.588  14.084   6.969  0.00  0.00     0.026 C 
HETATM   20  C   UNK N   1      21.657  12.603   5.245  0.00  0.00     0.026 C 
HETATM   21  C   UNK N   1      20.999  15.583   4.933  0.00  0.00     0.020 C 
HETATM   22  C   UNK N   1      21.143  18.494   4.536  0.00  0.00     0.017 C 
HETATM   23  C   UNK N   1      27.481  20.112   3.769  0.00  0.00     0.043 C 
ENDROOT
BRANCH   1  24
HETATM   24  C   UNK N   1      27.953  16.229   5.940  0.00  0.00    -0.052 C 
HETATM   25  C   UNK N   1      29.058  15.607   5.491  0.00  0.00     0.036 C 
HETATM   26  C   UNK N   1      27.991  17.213   7.066  0.00  0.00     0.046 C 
BRANCH  25  27
HETATM   27  C   UNK N   1      30.428  15.895   5.946  0.00  0.00     0.057 A 
HETATM   28  C   UNK N   1      31.230  16.945   5.537  0.00  0.00     0.066 A 
HETATM   29  C   UNK N   1      32.426  16.691   6.169  0.00  0.00     0.074 A 
HETATM   30  C   UNK N   1      33.666  17.499   6.044  0.00  0.00     0.079 C 
HETATM   31  O   UNK N   1      32.317  15.589   6.873  0.00  0.00    -0.242 OA
HETATM   32  N   UNK N   1      31.131  15.079   6.754  0.00  0.00    -0.261 N 
ATOM     33  HN  UNK N   1      30.792  14.222   7.190  1.00  0.00     0.195 HD
ENDBRANCH  25  27
ENDBRANCH   1  24
BRANCH  14  34
HETATM   34  O   UNK N   1      24.428  11.684   4.746  0.00  0.00    -0.394 OA
HETATM   35  H   UNK N   1      24.589  11.421   3.826  0.00  0.00     0.210 HD
ENDBRANCH  14  34
BRANCH   9  36
HETATM   36  O   UNK N   1      23.395  17.097   5.806  0.00  0.00    -0.394 OA
HETATM   37  H   UNK N   1      23.927  17.210   6.609  0.00  0.00     0.210 HD
ENDBRANCH   9  36
TORSDOF 4
ENDMDL
MODEL 8
REMARK VINA RESULT:      -6.9      5.080      9.465
REMARK  4 active torsions:
REMARK  status: ('A' for Active; 'I' for Inactive)
REMARK    1  A    between atoms: C_4  and  C_8 
REMARK    2  A    between atoms: C_11  and  C_9 
REMARK    3  A    between atoms: C_19  and  O_33 
REMARK    4  A    between atoms: C_24  and  O_29 
ROOT
HETATM    1  C   UNK N   1      24.580  15.642   4.948  0.00  0.00     0.164 C 
HETATM    2  C   UNK N   1      24.816  14.149   5.206  0.00  0.00     0.064 C 
HETATM    3  C   UNK N   1      26.040  13.648   4.477  0.00  0.00    -0.021 C 
HETATM    4  C   UNK N   1      26.170  13.651   3.144  0.00  0.00    -0.084 C 
HETATM    5  C   UNK N   1      25.070  14.129   2.242  0.00  0.00     0.060 C 
HETATM    6  C   UNK N   1      24.711  13.049   1.276  0.00  0.00    -0.026 C 
HETATM    7  C   UNK N   1      23.485  12.551   1.053  0.00  0.00    -0.024 C 
HETATM    8  C   UNK N   1      22.142  12.924   1.639  0.00  0.00     0.033 C 
HETATM    9  C   UNK N   1      22.082  13.979   2.762  0.00  0.00     0.136 C 
HETATM   10  C   UNK N   1      20.728  14.000   3.510  0.00  0.00     0.081 C 
HETATM   11  C   UNK N   1      20.848  14.806   4.790  0.00  0.00     0.143 C 
HETATM   12  O   UNK N   1      21.617  14.386   5.640  0.00  0.00    -0.297 OA
HETATM   13  C   UNK N   1      20.035  16.078   5.072  0.00  0.00     0.040 C 
HETATM   14  C   UNK N   1      20.468  16.815   6.368  0.00  0.00     0.142 C 
HETATM   15  C   UNK N   1      21.734  17.699   6.336  0.00  0.00     0.144 C 
HETATM   16  C   UNK N   1      22.861  17.246   5.452  0.00  0.00     0.262 C 
HETATM   17  O   UNK N   1      23.167  17.931   4.487  0.00  0.00    -0.265 OA
HETATM   18  O   UNK N   1      23.539  16.105   5.729  0.00  0.00    -0.311 OA
HETATM   19  C   UNK N   1      20.132  17.062   3.912  0.00  0.00     0.026 C 
HETATM   20  C   UNK N   1      18.572  15.694   5.225  0.00  0.00     0.026 C 
HETATM   21  C   UNK N   1      19.571  14.433   2.614  0.00  0.00     0.020 C 
HETATM   22  C   UNK N   1      21.218  13.255   0.479  0.00  0.00     0.017 C 
HETATM   23  C   UNK N   1      27.469  13.210   2.551  0.00  0.00     0.043 C 
ENDROOT
BRANCH   1  24
HETATM   24  C   UNK N   1      25.831  16.446   5.171  0.00  0.00    -0.052 C 
HETATM   25  C   UNK N   1      26.439  16.414   6.370  0.00  0.00     0.036 C 
HETATM   26  C   UNK N   1      26.386  17.215   4.014  0.00  0.00     0.046 C 
BRANCH  25  27
HETATM   27  C   UNK N   1      27.755  17.007   6.662  0.00  0.00     0.057 A 
HETATM   28  C   UNK N   1      28.990  16.438   6.414  0.00  0.00     0.066 A 
HETATM   29  C   UNK N   1      29.869  17.341   6.968  0.00  0.00     0.074 A 
HETATM   30  C   UNK N   1      31.347  17.200   7.018  0.00  0.00     0.079 C 
HETATM   31  O   UNK N   1      29.193  18.336   7.491  0.00  0.00    -0.242 OA
HETATM   32  N   UNK N   1      27.917  18.162   7.334  0.00  0.00    -0.261 N 
ATOM     33  HN  UNK N   1      27.176  18.785   7.656  1.00  0.00     0.195 HD
ENDBRANCH  25  27
ENDBRANCH   1  24
BRANCH  14  34
HETATM   34  O   UNK N   1      20.455  15.984   7.493  0.00  0.00    -0.394 OA
HETATM   35  H   UNK N   1      20.406  15.224   8.094  0.00  0.00     0.210 HD
ENDBRANCH  14  34
BRANCH   9  36
HETATM   36  O   UNK N   1      22.401  15.254   2.280  0.00  0.00    -0.394 OA
HETATM   37  H   UNK N   1      22.245  16.143   1.925  0.00  0.00     0.210 HD
ENDBRANCH   9  36
TORSDOF 4
ENDMDL
MODEL 9
REMARK VINA RESULT:      -6.8      4.137      5.621
REMARK  4 active torsions:
REMARK  status: ('A' for Active; 'I' for Inactive)
REMARK    1  A    between atoms: C_4  and  C_8 
REMARK    2  A    between atoms: C_11  and  C_9 
REMARK    3  A    between atoms: C_19  and  O_33 
REMARK    4  A    between atoms: C_24  and  O_29 
ROOT
HETATM    1  C   UNK N   1      25.768  15.451   3.773  0.00  0.00     0.164 C 
HETATM    2  C   UNK N   1      25.730  15.558   2.243  0.00  0.00     0.064 C 
HETATM    3  C   UNK N   1      24.836  14.504   1.636  0.00  0.00    -0.021 C 
HETATM    4  C   UNK N   1      25.051  13.187   1.746  0.00  0.00    -0.084 C 
HETATM    5  C   UNK N   1      26.247  12.638   2.467  0.00  0.00     0.060 C 
HETATM    6  C   UNK N   1      27.018  11.747   1.550  0.00  0.00    -0.026 C 
HETATM    7  C   UNK N   1      28.327  11.833   1.264  0.00  0.00    -0.024 C 
HETATM    8  C   UNK N   1      29.393  12.775   1.777  0.00  0.00     0.033 C 
HETATM    9  C   UNK N   1      28.984  13.927   2.718  0.00  0.00     0.136 C 
HETATM   10  C   UNK N   1      30.079  15.009   2.871  0.00  0.00     0.081 C 
HETATM   11  C   UNK N   1      29.502  16.251   3.524  0.00  0.00     0.143 C 
HETATM   12  O   UNK N   1      28.625  16.843   2.915  0.00  0.00    -0.297 OA
HETATM   13  C   UNK N   1      29.989  16.806   4.871  0.00  0.00     0.040 C 
HETATM   14  C   UNK N   1      29.121  17.976   5.408  0.00  0.00     0.142 C 
HETATM   15  C   UNK N   1      27.774  17.653   6.091  0.00  0.00     0.144 C 
HETATM   16  C   UNK N   1      27.003  16.479   5.561  0.00  0.00     0.262 C 
HETATM   17  O   UNK N   1      26.842  15.504   6.280  0.00  0.00    -0.265 OA
HETATM   18  O   UNK N   1      26.481  16.505   4.310  0.00  0.00    -0.311 OA
HETATM   19  C   UNK N   1      30.025  15.716   5.935  0.00  0.00     0.026 C 
HETATM   20  C   UNK N   1      31.408  17.324   4.698  0.00  0.00     0.026 C 
HETATM   21  C   UNK N   1      31.336  14.478   3.555  0.00  0.00     0.020 C 
HETATM   22  C   UNK N   1      30.512  11.924   2.352  0.00  0.00     0.017 C 
HETATM   23  C   UNK N   1      24.041  12.246   1.174  0.00  0.00     0.043 C 
ENDROOT
BRANCH   1  24
HETATM   24  C   UNK N   1      24.383  15.374   4.355  0.00  0.00    -0.052 C 
HETATM   25  C   UNK N   1      24.026  14.303   5.085  0.00  0.00     0.036 C 
HETATM   26  C   UNK N   1      23.467  16.537   4.139  0.00  0.00     0.046 C 
BRANCH  25  27
HETATM   27  C   UNK N   1      22.774  14.187   5.851  0.00  0.00     0.057 A 
HETATM   28  C   UNK N   1      22.566  14.589   7.157  0.00  0.00     0.066 A 
HETATM   29  C   UNK N   1      21.285  14.159   7.418  0.00  0.00     0.074 A 
HETATM   30  C   UNK N   1      20.565  14.300   8.710  0.00  0.00     0.079 C 
HETATM   31  O   UNK N   1      20.805  13.559   6.354  0.00  0.00    -0.242 OA
HETATM   32  N   UNK N   1      21.679  13.550   5.396  0.00  0.00    -0.261 N 
ATOM     33  HN  UNK N   1      21.559  13.138   4.470  1.00  0.00     0.195 HD
ENDBRANCH  25  27
ENDBRANCH   1  24
BRANCH  14  34
HETATM   34  O   UNK N   1      28.988  19.019   4.486  0.00  0.00    -0.394 OA
HETATM   35  H   UNK N   1      28.735  19.836   4.028  0.00  0.00     0.210 HD
ENDBRANCH  14  34
BRANCH   9  36
HETATM   36  O   UNK N   1      28.588  13.445   3.971  0.00  0.00    -0.394 OA
HETATM   37  H   UNK N   1      28.429  12.793   4.671  0.00  0.00     0.210 HD
ENDBRANCH   9  36
TORSDOF 4
ENDMDL
