REMARK  6 active torsions:
REMARK  status: ('A' for Active; 'I' for Inactive)
REMARK    1  A    between atoms: C_3  and  C_7 
REMARK       I    between atoms: C_7  and  N_9 
REMARK    2  A    between atoms: N_9  and  N_10 
REMARK       I    between atoms: N_10  and  C_11 
REMARK    3  A    between atoms: C_13  and  C_11 
REMARK    4  A    between atoms: N_21  and  O_22 
REMARK    5  A    between atoms: O_22  and  S_23 
REMARK    6  A    between atoms: S_23  and  O_26 
ROOT
HETATM    1  C   UNK N   1       0.702  -1.732  -0.448  0.00  0.00     0.161 C 
HETATM    2  C   UNK N   1       0.385  -3.205  -0.905  0.00  0.00     0.032 C 
HETATM    3  C   UNK N   1       1.588  -4.238  -0.700  0.00  0.00     0.031 C 
HETATM    4  C   UNK N   1       2.652  -3.885   0.422  0.00  0.00     0.134 C 
HETATM    5  C   UNK N   1       1.855  -2.937   1.317  0.00  0.00     0.129 C 
HETATM    6  N   UNK N   1       1.827  -1.786   0.437  0.00  0.00    -0.217 NA
HETATM    7  C   UNK N   1       2.993  -1.750  -0.195  0.00  0.00     0.325 C 
HETATM    8  O   UNK N   1       3.336  -0.860  -0.962  0.00  0.00    -0.251 OA
HETATM    9  N   UNK N   1       3.596  -2.928  -0.129  0.00  0.00    -0.187 N 
ENDROOT
BRANCH   1  10
HETATM   10  C   UNK N   1      -0.359  -0.797   0.084  0.00  0.00     0.254 C 
HETATM   11  N   UNK N   1      -1.638  -1.169   0.324  0.00  0.00    -0.266 N 
HETATM   12  H   UNK N   1      -2.262  -0.497   0.683  0.00  0.00     0.190 HD
HETATM   13  O   UNK N   1      -0.040   0.361   0.299  0.00  0.00    -0.270 OA
BRANCH  11  14
HETATM   14  N   UNK N   1      -2.106  -2.437   0.092  0.00  0.00    -0.267 N 
HETATM   15  C   UNK N   1      -3.436  -2.699   0.086  0.00  0.00     0.241 C 
HETATM   16  O   UNK N   1      -3.813  -3.837  -0.146  0.00  0.00    -0.271 OA
HETATM   17  H   UNK N   1      -1.467  -3.168  -0.073  0.00  0.00     0.190 HD
BRANCH  15  18
HETATM   18  C   UNK N   1      -4.448  -1.602   0.359  0.00  0.00     0.097 C 
HETATM   19  C   UNK N   1      -4.249  -0.409  -0.577  0.00  0.00     0.017 C 
HETATM   20  C   UNK N   1      -5.265   0.676  -0.253  0.00  0.00     0.020 C 
HETATM   21  C   UNK N   1      -6.665   0.086  -0.387  0.00  0.00     0.113 C 
HETATM   22  N   UNK N   1      -6.836  -1.024   0.550  0.00  0.00    -0.420 N 
HETATM   23  C   UNK N   1      -5.895  -2.094   0.215  0.00  0.00     0.127 C 
HETATM   24  H   UNK N   1      -7.507  -1.049   1.319  0.00  0.00     0.153 HD
ENDBRANCH  15  18
ENDBRANCH  11  14
ENDBRANCH   1  10
BRANCH   9  25
HETATM   25  O   UNK N   1       4.710  -3.249  -0.804  0.00  0.00    -0.132 OA
BRANCH  25  26
HETATM   26  S   UNK N   1       5.996  -2.535   0.103  0.00  0.00     0.263 S 
HETATM   27  O   UNK N   1       6.506  -1.287  -0.634  0.00  0.00    -0.578 OA
HETATM   28  O   UNK N   1       7.197  -3.490   0.138  0.00  0.00    -0.578 OA
BRANCH  26  29
HETATM   29  O   UNK N   1       5.595  -2.098   1.717  0.00  0.00    -0.272 OA
HETATM   30  H   UNK N   1       5.695  -1.778   2.627  0.00  0.00     0.234 HD
ENDBRANCH  26  29
ENDBRANCH  25  26
ENDBRANCH   9  25
TORSDOF 6
