MODEL 1
REMARK VINA RESULT:      -5.4      0.000      0.000
REMARK  3 active torsions:
REMARK  status: ('A' for Active; 'I' for Inactive)
REMARK    1  A    between atoms: C_11  and  C_9 
REMARK    2  A    between atoms: N_12  and  C_9 
REMARK    3  A    between atoms: C_11  and  C_10 
ROOT
HETATM    1  C   UNK N   1      35.363  10.308  20.827  0.00  0.00     0.048 C 
HETATM    2  C   UNK N   1      35.462  10.294  18.327  0.00  0.00     0.007 A 
HETATM    3  C   UNK N   1      35.230  12.402  19.486  0.00  0.00     0.007 A 
HETATM    4  C   UNK N   1      35.450  10.965  17.098  0.00  0.00     0.016 A 
HETATM    5  C   UNK N   1      35.219  13.069  18.262  0.00  0.00     0.016 A 
HETATM    6  C   UNK N   1      35.351  11.014  19.520  0.00  0.00    -0.062 A 
HETATM    7  C   UNK N   1      35.328  12.366  17.055  0.00  0.00     0.012 A 
ENDROOT
BRANCH   7   8
HETATM    8  C   UNK N   1      35.317  13.076  15.744  0.00  0.00     0.181 C 
HETATM    9  O   UNK N   1      34.268  13.149  15.121  0.00  0.00    -0.290 OA
BRANCH   8  10
HETATM   10  C   UNK N   1      36.558  13.714  15.145  0.00  0.00     0.147 C 
HETATM   11  C   UNK N   1      37.222  14.975  15.707  0.00  0.00     0.040 C 
BRANCH  10  12
HETATM   12  N   UNK N   1      37.125  13.055  13.960  0.00  0.00    -0.415 N 
HETATM   13  C   UNK N   1      36.623  13.631  12.718  0.00  0.00     0.140 C 
HETATM   14  H   UNK N   1      37.792  12.284  14.001  0.00  0.00     0.153 HD
ENDBRANCH  10  12
ENDBRANCH   8  10
ENDBRANCH   7   8
TORSDOF 3
ENDMDL
MODEL 2
REMARK VINA RESULT:      -5.0      8.021     12.089
REMARK  3 active torsions:
REMARK  status: ('A' for Active; 'I' for Inactive)
REMARK    1  A    between atoms: C_11  and  C_9 
REMARK    2  A    between atoms: N_12  and  C_9 
REMARK    3  A    between atoms: C_11  and  C_10 
ROOT
HETATM    1  C   UNK N   1      31.098  16.618   3.249  0.00  0.00     0.048 C 
HETATM    2  C   UNK N   1      31.161  17.135   5.696  0.00  0.00     0.007 A 
HETATM    3  C   UNK N   1      33.237  16.982   4.469  0.00  0.00     0.007 A 
HETATM    4  C   UNK N   1      31.872  17.417   6.869  0.00  0.00     0.016 A 
HETATM    5  C   UNK N   1      33.944  17.263   5.638  0.00  0.00     0.016 A 
HETATM    6  C   UNK N   1      31.846  16.918   4.497  0.00  0.00    -0.062 A 
HETATM    7  C   UNK N   1      33.277  17.484   6.850  0.00  0.00     0.012 A 
ENDROOT
BRANCH   7   8
HETATM    8  C   UNK N   1      34.029  17.784   8.102  0.00  0.00     0.181 C 
HETATM    9  O   UNK N   1      34.485  18.907   8.262  0.00  0.00    -0.290 OA
BRANCH   8  10
HETATM   10  C   UNK N   1      34.253  16.751   9.192  0.00  0.00     0.147 C 
HETATM   11  C   UNK N   1      33.791  15.295   9.093  0.00  0.00     0.040 C 
BRANCH  10  12
HETATM   12  N   UNK N   1      34.958  17.215  10.396  0.00  0.00    -0.415 N 
HETATM   13  C   UNK N   1      35.472  16.107  11.193  0.00  0.00     0.140 C 
HETATM   14  H   UNK N   1      35.074  18.198  10.645  0.00  0.00     0.153 HD
ENDBRANCH  10  12
ENDBRANCH   8  10
ENDBRANCH   7   8
TORSDOF 3
ENDMDL
MODEL 3
REMARK VINA RESULT:      -5.0     15.506     16.373
REMARK  3 active torsions:
REMARK  status: ('A' for Active; 'I' for Inactive)
REMARK    1  A    between atoms: C_11  and  C_9 
REMARK    2  A    between atoms: N_12  and  C_9 
REMARK    3  A    between atoms: C_11  and  C_10 
ROOT
HETATM    1  C   UNK N   1      23.175  11.604  12.547  0.00  0.00     0.048 C 
HETATM    2  C   UNK N   1      21.164  12.449  11.319  0.00  0.00     0.007 A 
HETATM    3  C   UNK N   1      23.358  12.777  10.357  0.00  0.00     0.007 A 
HETATM    4  C   UNK N   1      20.584  13.097  10.221  0.00  0.00     0.016 A 
HETATM    5  C   UNK N   1      22.778  13.421   9.265  0.00  0.00     0.016 A 
HETATM    6  C   UNK N   1      22.552  12.290  11.385  0.00  0.00    -0.062 A 
HETATM    7  C   UNK N   1      21.390  13.591   9.180  0.00  0.00     0.012 A 
ENDROOT
BRANCH   7   8
HETATM    8  C   UNK N   1      20.767  14.279   8.013  0.00  0.00     0.181 C 
HETATM    9  O   UNK N   1      20.241  13.604   7.141  0.00  0.00    -0.290 OA
BRANCH   8  10
HETATM   10  C   UNK N   1      20.755  15.790   7.862  0.00  0.00     0.147 C 
HETATM   11  C   UNK N   1      19.937  16.729   8.754  0.00  0.00     0.040 C 
BRANCH  10  12
HETATM   12  N   UNK N   1      21.591  16.346   6.787  0.00  0.00    -0.415 N 
HETATM   13  C   UNK N   1      21.273  17.741   6.509  0.00  0.00     0.140 C 
HETATM   14  H   UNK N   1      22.310  15.815   6.294  0.00  0.00     0.153 HD
ENDBRANCH  10  12
ENDBRANCH   8  10
ENDBRANCH   7   8
TORSDOF 3
ENDMDL
MODEL 4
REMARK VINA RESULT:      -5.0     22.830     24.406
REMARK  3 active torsions:
REMARK  status: ('A' for Active; 'I' for Inactive)
REMARK    1  A    between atoms: C_11  and  C_9 
REMARK    2  A    between atoms: N_12  and  C_9 
REMARK    3  A    between atoms: C_11  and  C_10 
ROOT
HETATM    1  C   UNK N   1      25.652  24.738  -5.345  0.00  0.00     0.048 C 
HETATM    2  C   UNK N   1      26.960  24.204  -3.280  0.00  0.00     0.007 A 
HETATM    3  C   UNK N   1      27.955  23.797  -5.445  0.00  0.00     0.007 A 
HETATM    4  C   UNK N   1      28.121  23.730  -2.655  0.00  0.00     0.016 A 
HETATM    5  C   UNK N   1      29.110  23.326  -4.822  0.00  0.00     0.016 A 
HETATM    6  C   UNK N   1      26.880  24.236  -4.675  0.00  0.00    -0.062 A 
HETATM    7  C   UNK N   1      29.211  23.285  -3.425  0.00  0.00     0.012 A 
ENDROOT
BRANCH   7   8
HETATM    8  C   UNK N   1      30.444  22.781  -2.754  0.00  0.00     0.181 C 
HETATM    9  O   UNK N   1      30.597  22.997  -1.561  0.00  0.00    -0.290 OA
BRANCH   8  10
HETATM   10  C   UNK N   1      31.523  22.008  -3.493  0.00  0.00     0.147 C 
HETATM   11  C   UNK N   1      32.690  22.670  -4.231  0.00  0.00     0.040 C 
BRANCH  10  12
HETATM   12  N   UNK N   1      31.405  20.543  -3.474  0.00  0.00    -0.415 N 
HETATM   13  C   UNK N   1      31.776  19.946  -4.751  0.00  0.00     0.140 C 
HETATM   14  H   UNK N   1      31.099  20.006  -2.662  0.00  0.00     0.153 HD
ENDBRANCH  10  12
ENDBRANCH   8  10
ENDBRANCH   7   8
TORSDOF 3
ENDMDL
MODEL 5
REMARK VINA RESULT:      -4.9      1.557      2.407
REMARK  3 active torsions:
REMARK  status: ('A' for Active; 'I' for Inactive)
REMARK    1  A    between atoms: C_11  and  C_9 
REMARK    2  A    between atoms: N_12  and  C_9 
REMARK    3  A    between atoms: C_11  and  C_10 
ROOT
HETATM    1  C   UNK N   1      35.468  10.045  18.665  0.00  0.00     0.048 C 
HETATM    2  C   UNK N   1      36.454  10.632  16.441  0.00  0.00     0.007 A 
HETATM    3  C   UNK N   1      35.218  12.312  17.664  0.00  0.00     0.007 A 
HETATM    4  C   UNK N   1      36.687  11.551  15.411  0.00  0.00     0.016 A 
HETATM    5  C   UNK N   1      35.451  13.225  16.637  0.00  0.00     0.016 A 
HETATM    6  C   UNK N   1      35.719  11.015  17.568  0.00  0.00    -0.062 A 
HETATM    7  C   UNK N   1      36.184  12.862  15.500  0.00  0.00     0.012 A 
ENDROOT
BRANCH   7   8
HETATM    8  C   UNK N   1      36.436  13.836  14.399  0.00  0.00     0.181 C 
HETATM    9  O   UNK N   1      36.848  14.952  14.680  0.00  0.00    -0.290 OA
BRANCH   8  10
HETATM   10  C   UNK N   1      36.201  13.500  12.937  0.00  0.00     0.147 C 
HETATM   11  C   UNK N   1      34.854  13.032  12.377  0.00  0.00     0.040 C 
BRANCH  10  12
HETATM   12  N   UNK N   1      37.356  13.645  12.039  0.00  0.00    -0.415 N 
HETATM   13  C   UNK N   1      37.746  12.376  11.437  0.00  0.00     0.140 C 
HETATM   14  H   UNK N   1      37.829  14.531  11.859  0.00  0.00     0.153 HD
ENDBRANCH  10  12
ENDBRANCH   8  10
ENDBRANCH   7   8
TORSDOF 3
ENDMDL
MODEL 6
REMARK VINA RESULT:      -4.8      1.480      2.481
REMARK  3 active torsions:
REMARK  status: ('A' for Active; 'I' for Inactive)
REMARK    1  A    between atoms: C_11  and  C_9 
REMARK    2  A    between atoms: N_12  and  C_9 
REMARK    3  A    between atoms: C_11  and  C_10 
ROOT
HETATM    1  C   UNK N   1      35.335  12.296  19.919  0.00  0.00     0.048 C 
HETATM    2  C   UNK N   1      35.053  13.410  17.695  0.00  0.00     0.007 A 
HETATM    3  C   UNK N   1      35.652  11.069  17.775  0.00  0.00     0.007 A 
HETATM    4  C   UNK N   1      35.066  13.368  16.296  0.00  0.00     0.016 A 
HETATM    5  C   UNK N   1      35.664  11.029  16.381  0.00  0.00     0.016 A 
HETATM    6  C   UNK N   1      35.347  12.259  18.433  0.00  0.00    -0.062 A 
HETATM    7  C   UNK N   1      35.373  12.171  15.623  0.00  0.00     0.012 A 
ENDROOT
BRANCH   7   8
HETATM    8  C   UNK N   1      35.385  12.132  14.133  0.00  0.00     0.181 C 
HETATM    9  O   UNK N   1      34.320  12.137  13.533  0.00  0.00    -0.290 OA
BRANCH   8  10
HETATM   10  C   UNK N   1      36.670  12.088  13.323  0.00  0.00     0.147 C 
HETATM   11  C   UNK N   1      37.422  10.796  12.991  0.00  0.00     0.040 C 
BRANCH  10  12
HETATM   12  N   UNK N   1      37.189  13.380  12.850  0.00  0.00    -0.415 N 
HETATM   13  C   UNK N   1      36.817  13.647  11.466  0.00  0.00     0.140 C 
HETATM   14  H   UNK N   1      37.744  14.015  13.424  0.00  0.00     0.153 HD
ENDBRANCH  10  12
ENDBRANCH   8  10
ENDBRANCH   7   8
TORSDOF 3
ENDMDL
MODEL 7
REMARK VINA RESULT:      -4.7     26.349     28.770
REMARK  3 active torsions:
REMARK  status: ('A' for Active; 'I' for Inactive)
REMARK    1  A    between atoms: C_11  and  C_9 
REMARK    2  A    between atoms: N_12  and  C_9 
REMARK    3  A    between atoms: C_11  and  C_10 
ROOT
HETATM    1  C   UNK N   1      29.098  30.956  -5.958  0.00  0.00     0.048 C 
HETATM    2  C   UNK N   1      27.201  29.813  -4.795  0.00  0.00     0.007 A 
HETATM    3  C   UNK N   1      28.156  28.799  -6.770  0.00  0.00     0.007 A 
HETATM    4  C   UNK N   1      26.293  28.752  -4.687  0.00  0.00     0.016 A 
HETATM    5  C   UNK N   1      27.251  27.744  -6.662  0.00  0.00     0.016 A 
HETATM    6  C   UNK N   1      28.132  29.834  -5.838  0.00  0.00    -0.062 A 
HETATM    7  C   UNK N   1      26.310  27.703  -5.625  0.00  0.00     0.012 A 
ENDROOT
BRANCH   7   8
HETATM    8  C   UNK N   1      25.341  26.577  -5.504  0.00  0.00     0.181 C 
HETATM    9  O   UNK N   1      24.156  26.793  -5.711  0.00  0.00    -0.290 OA
BRANCH   8  10
HETATM   10  C   UNK N   1      25.764  25.165  -5.135  0.00  0.00     0.147 C 
HETATM   11  C   UNK N   1      26.615  24.826  -3.908  0.00  0.00     0.040 C 
BRANCH  10  12
HETATM   12  N   UNK N   1      25.312  24.092  -6.032  0.00  0.00    -0.415 N 
HETATM   13  C   UNK N   1      26.387  23.166  -6.366  0.00  0.00     0.140 C 
HETATM   14  H   UNK N   1      24.356  24.006  -6.379  0.00  0.00     0.153 HD
ENDBRANCH  10  12
ENDBRANCH   8  10
ENDBRANCH   7   8
TORSDOF 3
ENDMDL
MODEL 8
REMARK VINA RESULT:      -4.7      2.578      4.244
REMARK  3 active torsions:
REMARK  status: ('A' for Active; 'I' for Inactive)
REMARK    1  A    between atoms: C_11  and  C_9 
REMARK    2  A    between atoms: N_12  and  C_9 
REMARK    3  A    between atoms: C_11  and  C_10 
ROOT
HETATM    1  C   UNK N   1      35.339  12.848  17.796  0.00  0.00     0.048 C 
HETATM    2  C   UNK N   1      36.343  13.925  15.772  0.00  0.00     0.007 A 
HETATM    3  C   UNK N   1      34.549  12.329  15.492  0.00  0.00     0.007 A 
HETATM    4  C   UNK N   1      36.406  14.100  14.384  0.00  0.00     0.016 A 
HETATM    5  C   UNK N   1      34.614  12.504  14.111  0.00  0.00     0.016 A 
HETATM    6  C   UNK N   1      35.413  13.039  16.324  0.00  0.00    -0.062 A 
HETATM    7  C   UNK N   1      35.538  13.387  13.537  0.00  0.00     0.012 A 
ENDROOT
BRANCH   7   8
HETATM    8  C   UNK N   1      35.611  13.578  12.060  0.00  0.00     0.181 C 
HETATM    9  O   UNK N   1      36.085  12.686  11.372  0.00  0.00    -0.290 OA
BRANCH   8  10
HETATM   10  C   UNK N   1      35.121  14.839  11.370  0.00  0.00     0.147 C 
HETATM   11  C   UNK N   1      36.022  16.032  11.036  0.00  0.00     0.040 C 
BRANCH  10  12
HETATM   12  N   UNK N   1      33.694  14.879  11.019  0.00  0.00    -0.415 N 
HETATM   13  C   UNK N   1      33.470  14.632   9.600  0.00  0.00     0.140 C 
HETATM   14  H   UNK N   1      32.947  15.058  11.692  0.00  0.00     0.153 HD
ENDBRANCH  10  12
ENDBRANCH   8  10
ENDBRANCH   7   8
TORSDOF 3
ENDMDL
MODEL 9
REMARK VINA RESULT:      -4.6     21.342     23.040
REMARK  3 active torsions:
REMARK  status: ('A' for Active; 'I' for Inactive)
REMARK    1  A    between atoms: C_11  and  C_9 
REMARK    2  A    between atoms: N_12  and  C_9 
REMARK    3  A    between atoms: C_11  and  C_10 
ROOT
HETATM    1  C   UNK N   1      18.662  11.235   0.202  0.00  0.00     0.048 C 
HETATM    2  C   UNK N   1      20.295  13.036   0.796  0.00  0.00     0.007 A 
HETATM    3  C   UNK N   1      18.082  13.652   0.043  0.00  0.00     0.007 A 
HETATM    4  C   UNK N   1      20.627  14.389   0.934  0.00  0.00     0.016 A 
HETATM    5  C   UNK N   1      18.415  14.999   0.181  0.00  0.00     0.016 A 
HETATM    6  C   UNK N   1      19.021  12.670   0.350  0.00  0.00    -0.062 A 
HETATM    7  C   UNK N   1      19.685  15.388   0.625  0.00  0.00     0.012 A 
ENDROOT
BRANCH   7   8
HETATM    8  C   UNK N   1      20.045  16.827   0.774  0.00  0.00     0.181 C 
HETATM    9  O   UNK N   1      20.407  17.450  -0.213  0.00  0.00    -0.290 OA
BRANCH   8  10
HETATM   10  C   UNK N   1      19.981  17.556   2.105  0.00  0.00     0.147 C 
HETATM   11  C   UNK N   1      20.473  16.958   3.427  0.00  0.00     0.040 C 
BRANCH  10  12
HETATM   12  N   UNK N   1      19.409  18.910   2.082  0.00  0.00    -0.415 N 
HETATM   13  C   UNK N   1      20.399  19.931   2.401  0.00  0.00     0.140 C 
HETATM   14  H   UNK N   1      18.431  19.111   1.867  0.00  0.00     0.153 HD
ENDBRANCH  10  12
ENDBRANCH   8  10
ENDBRANCH   7   8
TORSDOF 3
ENDMDL
