MODEL 1
REMARK VINA RESULT:      -7.9      0.000      0.000
REMARK  20 active torsions:
REMARK  status: ('A' for Active; 'I' for Inactive)
REMARK    1  A    between atoms: C_11  and  C_97 
REMARK    2  A    between atoms: C_14  and  C_94 
REMARK    3  A    between atoms: C_25  and  C_86 
REMARK    4  A    between atoms: C_41  and  C_60 
REMARK    5  A    between atoms: C_54  and  C_55 
REMARK    6  A    between atoms: C_55  and  C_56 
REMARK       I    between atoms: C_56  and  N_58 
REMARK    7  A    between atoms: C_63  and  N_66 
REMARK       I    between atoms: N_66  and  C_67 
REMARK    8  A    between atoms: N_66  and  C_79 
REMARK    9  A    between atoms: C_67  and  O_69 
REMARK   10  A    between atoms: C_70  and  O_69 
REMARK   11  A    between atoms: C_73  and  C_76 
REMARK   12  A    between atoms: C_76  and  O_78 
REMARK   13  A    between atoms: C_79  and  C_80 
REMARK   14  A    between atoms: C_80  and  C_81 
REMARK   15  A    between atoms: C_81  and  C_82 
REMARK   16  A    between atoms: C_82  and  C_83 
REMARK   17  A    between atoms: C_83  and  O_85 
REMARK   18  A    between atoms: C_86  and  O_87 
REMARK   19  A    between atoms: C_86  and  C_88 
REMARK   20  A    between atoms: C_94  and  O_95 
ROOT
HETATM    1  C   UNK N   1      28.686  13.877   1.174  0.00  0.00     0.059 C 
HETATM    2  C   UNK N   1      29.354  12.834   1.995  0.00  0.00     0.013 A 
HETATM    3  S   UNK N   1      29.099  11.227   1.844  0.00  0.00    -0.077 SA
HETATM    4  C   UNK N   1      30.091  10.721   3.064  0.00  0.00     0.075 A 
HETATM    5  N   UNK N   1      30.679  11.810   3.648  0.00  0.00    -0.347 N 
ATOM      6  HN  UNK N   1      31.336  11.757   4.427  1.00  0.00     0.166 HD
HETATM    7  C   UNK N   1      30.271  13.000   3.049  0.00  0.00     0.114 A 
HETATM    8  C   UNK N   1      30.699  14.339   3.527  0.00  0.00     0.269 C 
HETATM    9  O   UNK N   1      30.121  15.340   3.129  0.00  0.00    -0.266 OA
HETATM   10  N   UNK N   1      31.686  14.448   4.442  0.00  0.00    -0.345 N 
HETATM   11  C   UNK N   1      32.059  15.692   5.096  0.00  0.00     0.145 C 
HETATM   12  C   UNK N   1      32.709  15.311   6.393  0.00  0.00     0.075 A 
HETATM   13  S   UNK N   1      32.959  13.769   6.915  0.00  0.00    -0.074 SA
HETATM   14  C   UNK N   1      33.755  14.125   8.304  0.00  0.00     0.040 A 
HETATM   15  C   UNK N   1      33.847  15.544   8.354  0.00  0.00     0.116 A 
HETATM   16  N   UNK N   1      33.232  16.180   7.294  0.00  0.00    -0.347 N 
ATOM     17  HN  UNK N   1      33.176  17.194   7.198  1.00  0.00     0.166 HD
HETATM   18  C   UNK N   1      34.516  16.375   9.394  0.00  0.00     0.269 C 
HETATM   19  O   UNK N   1      34.103  17.511   9.569  0.00  0.00    -0.266 OA
HETATM   20  N   UNK N   1      35.625  15.988  10.076  0.00  0.00    -0.347 N 
HETATM   21  C   UNK N   1      36.382  14.783   9.835  0.00  0.00     0.225 C 
HETATM   22  C   UNK N   1      36.412  13.943  11.072  0.00  0.00     0.236 C 
HETATM   23  O   UNK N   1      37.283  13.099  11.210  0.00  0.00    -0.272 OA
HETATM   24  N   UNK N   1      35.470  14.144  12.029  0.00  0.00    -0.346 N 
HETATM   25  C   UNK N   1      35.404  13.469  13.309  0.00  0.00     0.175 C 
HETATM   26  C   UNK N   1      35.071  12.026  13.202  0.00  0.00     0.077 A 
HETATM   27  S   UNK N   1      34.694  11.101  14.508  0.00  0.00    -0.084 SA
HETATM   28  C   UNK N   1      34.679   9.657  13.771  0.00  0.00     0.084 A 
HETATM   29  C   UNK N   1      34.983   9.926  12.433  0.00  0.00     0.073 A 
HETATM   30  N   UNK N   1      35.165  11.246  12.099  0.00  0.00    -0.349 N 
ATOM     31  HN  UNK N   1      35.346  11.589  11.155  1.00  0.00     0.166 HD
HETATM   32  C   UNK N   1      34.822   8.862  11.497  0.00  0.00     0.102 A 
HETATM   33  S   UNK N   1      35.406   7.363  11.858  0.00  0.00    -0.080 SA
HETATM   34  C   UNK N   1      34.166   6.478  11.270  0.00  0.00     0.079 A 
HETATM   35  C   UNK N   1      33.226   7.415  10.806  0.00  0.00     0.040 A 
HETATM   36  N   UNK N   1      33.608   8.726  10.921  0.00  0.00    -0.350 N 
ATOM     37  HN  UNK N   1      33.039   9.512  10.606  1.00  0.00     0.166 HD
HETATM   38  C   UNK N   1      31.972   7.022  10.121  0.00  0.00     0.142 C 
HETATM   39  N   UNK N   1      31.735   5.698  10.284  0.00  0.00    -0.380 N 
ATOM     40  HN  UNK N   1      31.117   5.383  11.033  1.00  0.00     0.160 HD
HETATM   41  C   UNK N   1      32.312   4.784   9.457  0.00  0.00     0.038 C 
HETATM   42  C   UNK N   1      33.099   5.255   8.399  0.00  0.00     0.024 C 
HETATM   43  C   UNK N   1      32.928   6.586   8.021  0.00  0.00    -0.015 C 
HETATM   44  C   UNK N   1      32.127   7.451   8.822  0.00  0.00     0.070 C 
HETATM   45  C   UNK N   1      30.966   7.848   8.048  0.00  0.00     0.158 A 
HETATM   46  S   UNK N   1      29.851   6.647   7.746  0.00  0.00    -0.113 SA
HETATM   47  C   UNK N   1      29.961   6.633   6.099  0.00  0.00     0.082 A 
HETATM   48  C   UNK N   1      30.824   7.703   5.797  0.00  0.00     0.103 A 
HETATM   49  N   UNK N   1      31.324   8.368   6.868  0.00  0.00    -0.371 N 
ATOM     50  HN  UNK N   1      31.919   9.191   6.783  1.00  0.00     0.161 HD
HETATM   51  C   UNK N   1      31.647   7.771   4.589  0.00  0.00     0.269 C 
HETATM   52  O   UNK N   1      32.672   7.110   4.547  0.00  0.00    -0.266 OA
HETATM   53  N   UNK N   1      31.416   8.706   3.644  0.00  0.00    -0.345 N 
HETATM   54  C   UNK N   1      30.120   9.305   3.577  0.00  0.00     0.150 C 
HETATM   55  H   UNK N   1      32.184  13.633   4.682  0.00  0.00     0.163 HD
HETATM   56  H   UNK N   1      35.940  16.581  10.796  0.00  0.00     0.163 HD
HETATM   57  H   UNK N   1      34.769  14.808  11.836  0.00  0.00     0.163 HD
HETATM   58  H   UNK N   1      32.126   8.970   3.014  0.00  0.00     0.163 HD
ENDROOT
BRANCH  41  59
HETATM   59  C   UNK N   1      32.680   3.570  10.112  0.00  0.00     0.199 A 
HETATM   60  S   UNK N   1      32.820   2.112   9.341  0.00  0.00    -0.106 SA
HETATM   61  C   UNK N   1      32.091   1.155  10.491  0.00  0.00     0.096 A 
HETATM   62  C   UNK N   1      31.683   2.067  11.484  0.00  0.00     0.115 A 
HETATM   63  N   UNK N   1      31.999   3.363  11.245  0.00  0.00    -0.357 N 
ATOM     64  HN  UNK N   1      31.739   4.119  11.879  1.00  0.00     0.162 HD
BRANCH  62  65
HETATM   65  N   UNK N   1      30.637   1.775  12.382  0.00  0.00    -0.279 N 
HETATM   66  C   UNK N   1      29.405   2.300  12.222  0.00  0.00     0.368 C 
HETATM   67  O   UNK N   1      29.146   2.961  11.226  0.00  0.00    -0.238 OA
BRANCH  66  68
HETATM   68  O   UNK N   1      28.454   2.108  13.166  0.00  0.00    -0.298 OA
BRANCH  68  69
HETATM   69  C   UNK N   1      27.353   1.271  12.973  0.00  0.00     0.133 C 
HETATM   70  C   UNK N   1      26.120   2.105  12.701  0.00  0.00     0.033 C 
HETATM   71  C   UNK N   1      25.885   3.033  13.888  0.00  0.00     0.018 C 
HETATM   72  C   UNK N   1      25.784   2.300  15.243  0.00  0.00     0.084 C 
HETATM   73  C   UNK N   1      26.697   1.075  15.436  0.00  0.00     0.018 C 
HETATM   74  C   UNK N   1      27.024   0.321  14.143  0.00  0.00     0.033 C 
BRANCH  72  75
HETATM   75  C   UNK N   1      24.394   2.031  15.703  0.00  0.00     0.143 C 
HETATM   76  O   UNK N   1      23.918   2.712  16.597  0.00  0.00    -0.650 OA
BRANCH  75  77
HETATM   77  O   UNK N   1      23.646   1.080  15.115  0.00  0.00    -0.776 OA
HETATM   78  H   UNK N   1      23.610   1.022  14.181  0.00  0.00     0.167 HD
ENDBRANCH  75  77
ENDBRANCH  72  75
ENDBRANCH  68  69
ENDBRANCH  66  68
BRANCH  65  79
HETATM   79  C   UNK N   1      30.887   0.791  13.419  0.00  0.00     0.136 C 
BRANCH  79  80
HETATM   80  C   UNK N   1      31.987   1.184  14.397  0.00  0.00     0.021 C 
BRANCH  80  81
HETATM   81  C   UNK N   1      31.420   1.216  15.811  0.00  0.00     0.012 C 
BRANCH  81  82
HETATM   82  C   UNK N   1      30.314   2.250  15.923  0.00  0.00     0.110 C 
BRANCH  82  83
HETATM   83  C   UNK N   1      30.834   3.638  15.734  0.00  0.00     0.139 C 
HETATM   84  O   UNK N   1      30.291   4.396  14.945  0.00  0.00    -0.650 OA
BRANCH  83  85
HETATM   85  O   UNK N   1      31.875   4.070  16.469  0.00  0.00    -0.776 OA
HETATM   86  H   UNK N   1      32.690   3.636  16.627  0.00  0.00     0.167 HD
ENDBRANCH  83  85
ENDBRANCH  82  83
ENDBRANCH  81  82
ENDBRANCH  80  81
ENDBRANCH  79  80
ENDBRANCH  65  79
ENDBRANCH  62  65
ENDBRANCH  41  59
BRANCH  25  87
HETATM   87  C   UNK N   1      36.717  13.607  14.105  0.00  0.00     0.180 C 
BRANCH  87  88
HETATM   88  O   UNK N   1      37.344  12.367  14.258  0.00  0.00    -0.388 OA
HETATM   89  H   UNK N   1      37.714  11.835  13.537  0.00  0.00     0.210 HD
ENDBRANCH  87  88
BRANCH  87  90
HETATM   90  C   UNK N   1      36.594  14.220  15.455  0.00  0.00    -0.027 A 
HETATM   91  C   UNK N   1      35.780  13.670  16.455  0.00  0.00     0.010 A 
HETATM   92  C   UNK N   1      35.715  14.272  17.711  0.00  0.00     0.001 A 
HETATM   93  C   UNK N   1      36.469  15.419  17.974  0.00  0.00     0.000 A 
HETATM   94  C   UNK N   1      37.284  15.966  16.981  0.00  0.00     0.001 A 
HETATM   95  C   UNK N   1      37.344  15.368  15.724  0.00  0.00     0.010 A 
ENDBRANCH  87  90
ENDBRANCH  25  87
BRANCH  54  96
HETATM   96  C   UNK N   1      29.303   8.366   2.697  0.00  0.00     0.134 C 
BRANCH  96  97
HETATM   97  C   UNK N   1      27.894   8.248   3.171  0.00  0.00     0.219 C 
HETATM   98  O   UNK N   1      27.650   8.421   4.353  0.00  0.00    -0.274 OA
HETATM   99  N   UNK N   1      26.881   7.982   2.310  0.00  0.00    -0.365 N 
HETATM  100  C   UNK N   1      27.097   7.773   0.898  0.00  0.00     0.149 C 
HETATM  101  H   UNK N   1      25.962   7.930   2.661  0.00  0.00     0.161 HD
ENDBRANCH  96  97
ENDBRANCH  54  96
BRANCH  11 102
HETATM  102  C   UNK N   1      33.034  16.548   4.254  0.00  0.00     0.007 C 
HETATM  103  C   UNK N   1      32.372  17.852   3.829  0.00  0.00     0.012 C 
HETATM  104  C   UNK N   1      33.499  15.859   2.987  0.00  0.00     0.012 C 
ENDBRANCH  11 102
BRANCH  14 105
HETATM  105  C   UNK N   1      34.180  13.071   9.267  0.00  0.00     0.215 C 
BRANCH 105 106
HETATM  106  O   UNK N   1      34.063  11.804   8.686  0.00  0.00    -0.391 OA
HETATM  107  C   UNK N   1      35.377  11.352   8.543  0.00  0.00     0.201 C 
ENDBRANCH 105 106
ENDBRANCH  14 105
TORSDOF 20
ENDMDL
MODEL 2
REMARK VINA RESULT:      -7.9      1.203      2.302
REMARK  20 active torsions:
REMARK  status: ('A' for Active; 'I' for Inactive)
REMARK    1  A    between atoms: C_11  and  C_97 
REMARK    2  A    between atoms: C_14  and  C_94 
REMARK    3  A    between atoms: C_25  and  C_86 
REMARK    4  A    between atoms: C_41  and  C_60 
REMARK    5  A    between atoms: C_54  and  C_55 
REMARK    6  A    between atoms: C_55  and  C_56 
REMARK       I    between atoms: C_56  and  N_58 
REMARK    7  A    between atoms: C_63  and  N_66 
REMARK       I    between atoms: N_66  and  C_67 
REMARK    8  A    between atoms: N_66  and  C_79 
REMARK    9  A    between atoms: C_67  and  O_69 
REMARK   10  A    between atoms: C_70  and  O_69 
REMARK   11  A    between atoms: C_73  and  C_76 
REMARK   12  A    between atoms: C_76  and  O_78 
REMARK   13  A    between atoms: C_79  and  C_80 
REMARK   14  A    between atoms: C_80  and  C_81 
REMARK   15  A    between atoms: C_81  and  C_82 
REMARK   16  A    between atoms: C_82  and  C_83 
REMARK   17  A    between atoms: C_83  and  O_85 
REMARK   18  A    between atoms: C_86  and  O_87 
REMARK   19  A    between atoms: C_86  and  C_88 
REMARK   20  A    between atoms: C_94  and  O_95 
ROOT
HETATM    1  C   UNK N   1      28.697  13.793   1.228  0.00  0.00     0.059 C 
HETATM    2  C   UNK N   1      29.398  12.752   2.025  0.00  0.00     0.013 A 
HETATM    3  S   UNK N   1      29.185  11.142   1.843  0.00  0.00    -0.077 SA
HETATM    4  C   UNK N   1      30.197  10.639   3.048  0.00  0.00     0.075 A 
HETATM    5  N   UNK N   1      30.758  11.732   3.651  0.00  0.00    -0.347 N 
ATOM      6  HN  UNK N   1      31.419  11.682   4.426  1.00  0.00     0.166 HD
HETATM    7  C   UNK N   1      30.315  12.922   3.079  0.00  0.00     0.114 A 
HETATM    8  C   UNK N   1      30.708  14.262   3.582  0.00  0.00     0.269 C 
HETATM    9  O   UNK N   1      30.101  15.255   3.206  0.00  0.00    -0.266 OA
HETATM   10  N   UNK N   1      31.695  14.380   4.494  0.00  0.00    -0.345 N 
HETATM   11  C   UNK N   1      32.038  15.621   5.171  0.00  0.00     0.145 C 
HETATM   12  C   UNK N   1      32.705  15.232   6.458  0.00  0.00     0.075 A 
HETATM   13  S   UNK N   1      32.999  13.687   6.948  0.00  0.00    -0.074 SA
HETATM   14  C   UNK N   1      33.791  14.037   8.340  0.00  0.00     0.040 A 
HETATM   15  C   UNK N   1      33.845  15.457   8.418  0.00  0.00     0.116 A 
HETATM   16  N   UNK N   1      33.207  16.097   7.373  0.00  0.00    -0.347 N 
ATOM     17  HN  UNK N   1      33.123  17.111   7.298  1.00  0.00     0.166 HD
HETATM   18  C   UNK N   1      34.496  16.285   9.471  0.00  0.00     0.269 C 
HETATM   19  O   UNK N   1      34.053  17.405   9.671  0.00  0.00    -0.266 OA
HETATM   20  N   UNK N   1      35.618  15.915  10.141  0.00  0.00    -0.347 N 
HETATM   21  C   UNK N   1      36.407  14.736   9.873  0.00  0.00     0.225 C 
HETATM   22  C   UNK N   1      36.466  13.873  11.092  0.00  0.00     0.236 C 
HETATM   23  O   UNK N   1      37.360  13.051  11.210  0.00  0.00    -0.272 OA
HETATM   24  N   UNK N   1      35.523  14.029  12.057  0.00  0.00    -0.346 N 
HETATM   25  C   UNK N   1      35.482  13.327  13.323  0.00  0.00     0.175 C 
HETATM   26  C   UNK N   1      35.188  11.877  13.189  0.00  0.00     0.077 A 
HETATM   27  S   UNK N   1      34.843  10.916  14.477  0.00  0.00    -0.084 SA
HETATM   28  C   UNK N   1      34.864   9.488  13.711  0.00  0.00     0.084 A 
HETATM   29  C   UNK N   1      35.154   9.792  12.378  0.00  0.00     0.073 A 
HETATM   30  N   UNK N   1      35.298  11.123  12.070  0.00  0.00    -0.349 N 
ATOM     31  HN  UNK N   1      35.465  11.490  11.133  1.00  0.00     0.166 HD
HETATM   32  C   UNK N   1      35.018   8.742  11.422  0.00  0.00     0.102 A 
HETATM   33  S   UNK N   1      35.644   7.253  11.750  0.00  0.00    -0.080 SA
HETATM   34  C   UNK N   1      34.426   6.346  11.150  0.00  0.00     0.079 A 
HETATM   35  C   UNK N   1      33.459   7.266  10.708  0.00  0.00     0.040 A 
HETATM   36  N   UNK N   1      33.805   8.585  10.848  0.00  0.00    -0.350 N 
ATOM     37  HN  UNK N   1      33.213   9.361  10.552  1.00  0.00     0.166 HD
HETATM   38  C   UNK N   1      32.213   6.853  10.021  0.00  0.00     0.142 C 
HETATM   39  N   UNK N   1      32.012   5.520  10.159  0.00  0.00    -0.380 N 
ATOM     40  HN  UNK N   1      31.407   5.173  10.904  1.00  0.00     0.160 HD
HETATM   41  C   UNK N   1      32.611   4.639   9.311  0.00  0.00     0.038 C 
HETATM   42  C   UNK N   1      33.379   5.152   8.259  0.00  0.00     0.024 C 
HETATM   43  C   UNK N   1      33.170   6.485   7.909  0.00  0.00    -0.015 C 
HETATM   44  C   UNK N   1      32.350   7.312   8.730  0.00  0.00     0.070 C 
HETATM   45  C   UNK N   1      31.175   7.693   7.970  0.00  0.00     0.158 A 
HETATM   46  S   UNK N   1      30.092   6.467   7.648  0.00  0.00    -0.113 SA
HETATM   47  C   UNK N   1      30.194   6.489   6.000  0.00  0.00     0.082 A 
HETATM   48  C   UNK N   1      31.025   7.589   5.717  0.00  0.00     0.103 A 
HETATM   49  N   UNK N   1      31.512   8.245   6.799  0.00  0.00    -0.371 N 
ATOM     50  HN  UNK N   1      32.084   9.087   6.727  1.00  0.00     0.161 HD
HETATM   51  C   UNK N   1      31.840   7.704   4.507  0.00  0.00     0.269 C 
HETATM   52  O   UNK N   1      32.884   7.072   4.447  0.00  0.00    -0.266 OA
HETATM   53  N   UNK N   1      31.580   8.651   3.582  0.00  0.00    -0.345 N 
HETATM   54  C   UNK N   1      30.268   9.215   3.533  0.00  0.00     0.150 C 
HETATM   55  H   UNK N   1      32.217  13.575   4.715  0.00  0.00     0.163 HD
HETATM   56  H   UNK N   1      35.920  16.502  10.872  0.00  0.00     0.163 HD
HETATM   57  H   UNK N   1      34.803  14.677  11.881  0.00  0.00     0.163 HD
HETATM   58  H   UNK N   1      32.279   8.946   2.954  0.00  0.00     0.163 HD
ENDROOT
BRANCH  41  59
HETATM   59  C   UNK N   1      33.015   3.423   9.939  0.00  0.00     0.199 A 
HETATM   60  S   UNK N   1      33.451   2.057   9.111  0.00  0.00    -0.106 SA
HETATM   61  C   UNK N   1      32.671   0.935  10.061  0.00  0.00     0.096 A 
HETATM   62  C   UNK N   1      32.003   1.712  11.027  0.00  0.00     0.115 A 
HETATM   63  N   UNK N   1      32.193   3.050  10.927  0.00  0.00    -0.357 N 
ATOM     64  HN  UNK N   1      31.746   3.718  11.556  1.00  0.00     0.162 HD
BRANCH  62  65
HETATM   65  N   UNK N   1      30.871   1.234  11.718  0.00  0.00    -0.279 N 
HETATM   66  C   UNK N   1      30.795   1.282  13.063  0.00  0.00     0.368 C 
HETATM   67  O   UNK N   1      31.674   1.842  13.706  0.00  0.00    -0.238 OA
BRANCH  66  68
HETATM   68  O   UNK N   1      29.757   0.702  13.709  0.00  0.00    -0.298 OA
BRANCH  68  69
HETATM   69  C   UNK N   1      29.059   1.333  14.742  0.00  0.00     0.133 C 
HETATM   70  C   UNK N   1      28.114   0.348  15.394  0.00  0.00     0.033 C 
HETATM   71  C   UNK N   1      27.147  -0.176  14.337  0.00  0.00     0.018 C 
HETATM   72  C   UNK N   1      26.379   0.934  13.590  0.00  0.00     0.084 C 
HETATM   73  C   UNK N   1      27.151   2.235  13.300  0.00  0.00     0.018 C 
HETATM   74  C   UNK N   1      28.233   2.570  14.331  0.00  0.00     0.033 C 
BRANCH  72  75
HETATM   75  C   UNK N   1      25.013   1.207  14.114  0.00  0.00     0.143 C 
HETATM   76  O   UNK N   1      24.873   1.989  15.040  0.00  0.00    -0.650 OA
BRANCH  75  77
HETATM   77  O   UNK N   1      23.932   0.638  13.549  0.00  0.00    -0.776 OA
HETATM   78  H   UNK N   1      23.759   0.764  12.637  0.00  0.00     0.167 HD
ENDBRANCH  75  77
ENDBRANCH  72  75
ENDBRANCH  68  69
ENDBRANCH  66  68
BRANCH  65  79
HETATM   79  C   UNK N   1      29.730   0.801  10.934  0.00  0.00     0.136 C 
BRANCH  79  80
HETATM   80  C   UNK N   1      29.015   1.930  10.202  0.00  0.00     0.021 C 
BRANCH  80  81
HETATM   81  C   UNK N   1      27.951   1.342   9.282  0.00  0.00     0.012 C 
BRANCH  81  82
HETATM   82  C   UNK N   1      27.077   0.353  10.033  0.00  0.00     0.110 C 
BRANCH  82  83
HETATM   83  C   UNK N   1      25.661   0.821  10.122  0.00  0.00     0.139 C 
HETATM   84  O   UNK N   1      24.765   0.028  10.364  0.00  0.00    -0.650 OA
BRANCH  83  85
HETATM   85  O   UNK N   1      25.378   2.129   9.979  0.00  0.00    -0.776 OA
HETATM   86  H   UNK N   1      25.357   2.633   9.190  0.00  0.00     0.167 HD
ENDBRANCH  83  85
ENDBRANCH  82  83
ENDBRANCH  81  82
ENDBRANCH  80  81
ENDBRANCH  79  80
ENDBRANCH  65  79
ENDBRANCH  62  65
ENDBRANCH  41  59
BRANCH  25  87
HETATM   87  C   UNK N   1      36.795  13.485  14.117  0.00  0.00     0.180 C 
BRANCH  87  88
HETATM   88  O   UNK N   1      37.410  12.246  14.321  0.00  0.00    -0.388 OA
HETATM   89  H   UNK N   1      37.655  11.622  13.621  0.00  0.00     0.210 HD
ENDBRANCH  87  88
BRANCH  87  90
HETATM   90  C   UNK N   1      36.674  14.153  15.441  0.00  0.00    -0.027 A 
HETATM   91  C   UNK N   1      37.375  15.327  15.752  0.00  0.00     0.010 A 
HETATM   92  C   UNK N   1      37.211  15.926  17.001  0.00  0.00     0.001 A 
HETATM   93  C   UNK N   1      36.341  15.359  17.937  0.00  0.00     0.000 A 
HETATM   94  C   UNK N   1      35.640  14.193  17.627  0.00  0.00     0.001 A 
HETATM   95  C   UNK N   1      35.808  13.591  16.381  0.00  0.00     0.010 A 
ENDBRANCH  87  90
ENDBRANCH  25  87
BRANCH  54  96
HETATM   96  C   UNK N   1      29.472   8.272   2.637  0.00  0.00     0.134 C 
BRANCH  96  97
HETATM   97  C   UNK N   1      28.236   7.779   3.309  0.00  0.00     0.219 C 
HETATM   98  O   UNK N   1      27.542   8.569   3.927  0.00  0.00    -0.274 OA
HETATM   99  N   UNK N   1      27.854   6.481   3.221  0.00  0.00    -0.365 N 
HETATM  100  C   UNK N   1      28.624   5.494   2.501  0.00  0.00     0.149 C 
HETATM  101  H   UNK N   1      27.022   6.201   3.665  0.00  0.00     0.161 HD
ENDBRANCH  96  97
ENDBRANCH  54  96
BRANCH  11 102
HETATM  102  C   UNK N   1      32.985  16.521   4.342  0.00  0.00     0.007 C 
HETATM  103  C   UNK N   1      32.276  17.802   3.923  0.00  0.00     0.012 C 
HETATM  104  C   UNK N   1      33.484  15.859   3.073  0.00  0.00     0.012 C 
ENDBRANCH  11 102
BRANCH  14 105
HETATM  105  C   UNK N   1      34.250  12.976   9.280  0.00  0.00     0.215 C 
BRANCH 105 106
HETATM  106  O   UNK N   1      34.202  11.723   8.661  0.00  0.00    -0.391 OA
HETATM  107  C   UNK N   1      35.539  11.372   8.456  0.00  0.00     0.201 C 
ENDBRANCH 105 106
ENDBRANCH  14 105
TORSDOF 20
ENDMDL
MODEL 3
REMARK VINA RESULT:      -7.8      8.176     16.855
REMARK  20 active torsions:
REMARK  status: ('A' for Active; 'I' for Inactive)
REMARK    1  A    between atoms: C_11  and  C_97 
REMARK    2  A    between atoms: C_14  and  C_94 
REMARK    3  A    between atoms: C_25  and  C_86 
REMARK    4  A    between atoms: C_41  and  C_60 
REMARK    5  A    between atoms: C_54  and  C_55 
REMARK    6  A    between atoms: C_55  and  C_56 
REMARK       I    between atoms: C_56  and  N_58 
REMARK    7  A    between atoms: C_63  and  N_66 
REMARK       I    between atoms: N_66  and  C_67 
REMARK    8  A    between atoms: N_66  and  C_79 
REMARK    9  A    between atoms: C_67  and  O_69 
REMARK   10  A    between atoms: C_70  and  O_69 
REMARK   11  A    between atoms: C_73  and  C_76 
REMARK   12  A    between atoms: C_76  and  O_78 
REMARK   13  A    between atoms: C_79  and  C_80 
REMARK   14  A    between atoms: C_80  and  C_81 
REMARK   15  A    between atoms: C_81  and  C_82 
REMARK   16  A    between atoms: C_82  and  C_83 
REMARK   17  A    between atoms: C_83  and  O_85 
REMARK   18  A    between atoms: C_86  and  O_87 
REMARK   19  A    between atoms: C_86  and  C_88 
REMARK   20  A    between atoms: C_94  and  O_95 
ROOT
HETATM    1  C   UNK N   1      42.790   5.460  15.734  0.00  0.00     0.059 C 
HETATM    2  C   UNK N   1      42.675   6.010  14.359  0.00  0.00     0.013 A 
HETATM    3  S   UNK N   1      43.912   6.130  13.298  0.00  0.00    -0.077 SA
HETATM    4  C   UNK N   1      43.087   6.854  12.063  0.00  0.00     0.075 A 
HETATM    5  N   UNK N   1      41.782   7.030  12.436  0.00  0.00    -0.347 N 
ATOM      6  HN  UNK N   1      41.070   7.457  11.843  1.00  0.00     0.166 HD
HETATM    7  C   UNK N   1      41.544   6.555  13.723  0.00  0.00     0.114 A 
HETATM    8  C   UNK N   1      40.232   6.681  14.407  0.00  0.00     0.269 C 
HETATM    9  O   UNK N   1      40.151   6.477  15.609  0.00  0.00    -0.266 OA
HETATM   10  N   UNK N   1      39.143   7.076  13.714  0.00  0.00    -0.345 N 
HETATM   11  C   UNK N   1      37.859   7.392  14.320  0.00  0.00     0.145 C 
HETATM   12  C   UNK N   1      37.159   8.319  13.372  0.00  0.00     0.075 A 
HETATM   13  S   UNK N   1      37.754   8.825  11.922  0.00  0.00    -0.074 SA
HETATM   14  C   UNK N   1      36.458   9.705  11.438  0.00  0.00     0.040 A 
HETATM   15  C   UNK N   1      35.487   9.581  12.471  0.00  0.00     0.116 A 
HETATM   16  N   UNK N   1      35.914   8.829  13.549  0.00  0.00    -0.347 N 
ATOM     17  HN  UNK N   1      35.354   8.673  14.387  1.00  0.00     0.166 HD
HETATM   18  C   UNK N   1      34.114  10.157  12.502  0.00  0.00     0.269 C 
HETATM   19  O   UNK N   1      33.616  10.386  13.594  0.00  0.00    -0.266 OA
HETATM   20  N   UNK N   1      33.342  10.336  11.400  0.00  0.00    -0.347 N 
HETATM   21  C   UNK N   1      33.675   9.907  10.062  0.00  0.00     0.225 C 
HETATM   22  C   UNK N   1      33.705  11.085   9.142  0.00  0.00     0.236 C 
HETATM   23  O   UNK N   1      33.589  10.917   7.938  0.00  0.00    -0.272 OA
HETATM   24  N   UNK N   1      33.852  12.329   9.666  0.00  0.00    -0.346 N 
HETATM   25  C   UNK N   1      33.828  13.571   8.922  0.00  0.00     0.175 C 
HETATM   26  C   UNK N   1      34.998  13.749   8.026  0.00  0.00     0.077 A 
HETATM   27  S   UNK N   1      35.332  15.170   7.269  0.00  0.00    -0.084 SA
HETATM   28  C   UNK N   1      36.528  14.644   6.310  0.00  0.00     0.084 A 
HETATM   29  C   UNK N   1      36.668  13.286   6.609  0.00  0.00     0.073 A 
HETATM   30  N   UNK N   1      35.846  12.787   7.590  0.00  0.00    -0.349 N 
ATOM     31  HN  UNK N   1      35.870  11.829   7.940  1.00  0.00     0.166 HD
HETATM   32  C   UNK N   1      37.802  12.609   6.072  0.00  0.00     0.102 A 
HETATM   33  S   UNK N   1      38.205  12.823   4.488  0.00  0.00    -0.080 SA
HETATM   34  C   UNK N   1      39.827  12.901   4.664  0.00  0.00     0.079 A 
HETATM   35  C   UNK N   1      40.056  12.796   6.047  0.00  0.00     0.040 A 
HETATM   36  N   UNK N   1      38.932  12.618   6.811  0.00  0.00    -0.350 N 
ATOM     37  HN  UNK N   1      38.948  12.504   7.824  1.00  0.00     0.166 HD
HETATM   38  C   UNK N   1      41.416  12.749   6.634  0.00  0.00     0.142 C 
HETATM   39  N   UNK N   1      42.344  13.118   5.718  0.00  0.00    -0.380 N 
ATOM     40  HN  UNK N   1      42.673  14.083   5.691  1.00  0.00     0.160 HD
HETATM   41  C   UNK N   1      42.841  12.211   4.832  0.00  0.00     0.038 C 
HETATM   42  C   UNK N   1      42.419  10.881   4.941  0.00  0.00     0.024 C 
HETATM   43  C   UNK N   1      41.847  10.491   6.152  0.00  0.00    -0.015 C 
HETATM   44  C   UNK N   1      41.541  11.473   7.138  0.00  0.00     0.070 C 
HETATM   45  C   UNK N   1      42.378  11.233   8.299  0.00  0.00     0.158 A 
HETATM   46  S   UNK N   1      44.003  11.544   8.097  0.00  0.00    -0.113 SA
HETATM   47  C   UNK N   1      44.569  10.016   8.357  0.00  0.00     0.082 A 
HETATM   48  C   UNK N   1      43.429   9.280   8.730  0.00  0.00     0.103 A 
HETATM   49  N   UNK N   1      42.263   9.971   8.727  0.00  0.00    -0.371 N 
ATOM     50  HN  UNK N   1      41.376   9.566   9.026  1.00  0.00     0.161 HD
HETATM   51  C   UNK N   1      43.292   7.836   8.537  0.00  0.00     0.269 C 
HETATM   52  O   UNK N   1      43.025   7.423   7.419  0.00  0.00    -0.266 OA
HETATM   53  N   UNK N   1      43.225   6.997   9.591  0.00  0.00    -0.345 N 
HETATM   54  C   UNK N   1      43.756   7.433  10.845  0.00  0.00     0.150 C 
HETATM   55  H   UNK N   1      39.222   7.155  12.736  0.00  0.00     0.163 HD
HETATM   56  H   UNK N   1      32.481  10.796  11.523  0.00  0.00     0.163 HD
HETATM   57  H   UNK N   1      33.986  12.392  10.640  0.00  0.00     0.163 HD
HETATM   58  H   UNK N   1      42.821   6.104   9.499  0.00  0.00     0.163 HD
ENDROOT
BRANCH  41  59
HETATM   59  C   UNK N   1      43.100  12.755   3.538  0.00  0.00     0.199 A 
HETATM   60  S   UNK N   1      44.319  12.237   2.547  0.00  0.00    -0.106 SA
HETATM   61  C   UNK N   1      44.842  13.720   2.002  0.00  0.00     0.096 A 
HETATM   62  C   UNK N   1      44.034  14.641   2.698  0.00  0.00     0.115 A 
HETATM   63  N   UNK N   1      43.116  14.093   3.531  0.00  0.00    -0.357 N 
ATOM     64  HN  UNK N   1      42.487  14.656   4.104  1.00  0.00     0.162 HD
BRANCH  62  65
HETATM   65  N   UNK N   1      44.434  15.976   2.908  0.00  0.00    -0.279 N 
HETATM   66  C   UNK N   1      43.534  16.977   2.989  0.00  0.00     0.368 C 
HETATM   67  O   UNK N   1      42.336  16.724   2.984  0.00  0.00    -0.238 OA
BRANCH  66  68
HETATM   68  O   UNK N   1      43.948  18.262   3.063  0.00  0.00    -0.298 OA
BRANCH  68  69
HETATM   69  C   UNK N   1      43.734  19.189   2.040  0.00  0.00     0.133 C 
HETATM   70  C   UNK N   1      44.856  20.203   2.027  0.00  0.00     0.033 C 
HETATM   71  C   UNK N   1      44.898  20.904   3.381  0.00  0.00     0.018 C 
HETATM   72  C   UNK N   1      43.558  21.549   3.792  0.00  0.00     0.084 C 
HETATM   73  C   UNK N   1      42.276  20.793   3.394  0.00  0.00     0.018 C 
HETATM   74  C   UNK N   1      42.403  19.966   2.111  0.00  0.00     0.033 C 
BRANCH  72  75
HETATM   75  C   UNK N   1      43.453  23.005   3.503  0.00  0.00     0.143 C 
HETATM   76  O   UNK N   1      43.224  23.373   2.362  0.00  0.00    -0.650 OA
BRANCH  75  77
HETATM   77  O   UNK N   1      43.562  23.912   4.490  0.00  0.00    -0.776 OA
HETATM   78  H   UNK N   1      44.096  24.673   4.372  0.00  0.00     0.167 HD
ENDBRANCH  75  77
ENDBRANCH  72  75
ENDBRANCH  68  69
ENDBRANCH  66  68
BRANCH  65  79
HETATM   79  C   UNK N   1      45.840  16.231   3.163  0.00  0.00     0.136 C 
BRANCH  79  80
HETATM   80  C   UNK N   1      46.282  15.912   4.586  0.00  0.00     0.021 C 
BRANCH  80  81
HETATM   81  C   UNK N   1      47.341  16.917   5.024  0.00  0.00     0.012 C 
BRANCH  81  82
HETATM   82  C   UNK N   1      47.262  18.181   4.186  0.00  0.00     0.110 C 
BRANCH  82  83
HETATM   83  C   UNK N   1      48.575  18.508   3.553  0.00  0.00     0.139 C 
HETATM   84  O   UNK N   1      49.618  18.237   4.126  0.00  0.00    -0.650 OA
BRANCH  83  85
HETATM   85  O   UNK N   1      48.608  19.063   2.328  0.00  0.00    -0.776 OA
HETATM   86  H   UNK N   1      48.012  19.684   1.958  0.00  0.00     0.167 HD
ENDBRANCH  83  85
ENDBRANCH  82  83
ENDBRANCH  81  82
ENDBRANCH  80  81
ENDBRANCH  79  80
ENDBRANCH  65  79
ENDBRANCH  62  65
ENDBRANCH  41  59
BRANCH  25  87
HETATM   87  C   UNK N   1      32.544  13.718   8.080  0.00  0.00     0.180 C 
BRANCH  87  88
HETATM   88  O   UNK N   1      32.723  13.195   6.796  0.00  0.00    -0.388 OA
HETATM   89  H   UNK N   1      32.505  12.290   6.526  0.00  0.00     0.210 HD
ENDBRANCH  87  88
BRANCH  87  90
HETATM   90  C   UNK N   1      32.020  15.103   7.935  0.00  0.00    -0.027 A 
HETATM   91  C   UNK N   1      31.503  15.584   6.724  0.00  0.00     0.010 A 
HETATM   92  C   UNK N   1      31.006  16.884   6.645  0.00  0.00     0.001 A 
HETATM   93  C   UNK N   1      31.016  17.704   7.777  0.00  0.00     0.000 A 
HETATM   94  C   UNK N   1      31.526  17.225   8.986  0.00  0.00     0.001 A 
HETATM   95  C   UNK N   1      32.029  15.928   9.062  0.00  0.00     0.010 A 
ENDBRANCH  87  90
ENDBRANCH  25  87
BRANCH  54  96
HETATM   96  C   UNK N   1      45.237   7.073  10.786  0.00  0.00     0.134 C 
BRANCH  96  97
HETATM   97  C   UNK N   1      46.103   8.222  11.178  0.00  0.00     0.219 C 
HETATM   98  O   UNK N   1      45.884   8.797  12.231  0.00  0.00    -0.274 OA
HETATM   99  N   UNK N   1      47.143   8.617  10.404  0.00  0.00    -0.365 N 
HETATM  100  C   UNK N   1      47.462   7.977   9.150  0.00  0.00     0.149 C 
HETATM  101  H   UNK N   1      47.701   9.369  10.708  0.00  0.00     0.161 HD
ENDBRANCH  96  97
ENDBRANCH  54  96
BRANCH  11 102
HETATM  102  C   UNK N   1      36.985   6.141  14.572  0.00  0.00     0.007 C 
HETATM  103  C   UNK N   1      36.944   5.805  16.057  0.00  0.00     0.012 C 
HETATM  104  C   UNK N   1      37.486   4.904  13.855  0.00  0.00     0.012 C 
ENDBRANCH  11 102
BRANCH  14 105
HETATM  105  C   UNK N   1      36.459  10.488  10.170  0.00  0.00     0.215 C 
BRANCH 105 106
HETATM  106  O   UNK N   1      36.681  11.843  10.435  0.00  0.00    -0.391 OA
HETATM  107  C   UNK N   1      38.055  12.023  10.260  0.00  0.00     0.201 C 
ENDBRANCH 105 106
ENDBRANCH  14 105
TORSDOF 20
ENDMDL
MODEL 4
REMARK VINA RESULT:      -7.7      5.594     11.735
REMARK  20 active torsions:
REMARK  status: ('A' for Active; 'I' for Inactive)
REMARK    1  A    between atoms: C_11  and  C_97 
REMARK    2  A    between atoms: C_14  and  C_94 
REMARK    3  A    between atoms: C_25  and  C_86 
REMARK    4  A    between atoms: C_41  and  C_60 
REMARK    5  A    between atoms: C_54  and  C_55 
REMARK    6  A    between atoms: C_55  and  C_56 
REMARK       I    between atoms: C_56  and  N_58 
REMARK    7  A    between atoms: C_63  and  N_66 
REMARK       I    between atoms: N_66  and  C_67 
REMARK    8  A    between atoms: N_66  and  C_79 
REMARK    9  A    between atoms: C_67  and  O_69 
REMARK   10  A    between atoms: C_70  and  O_69 
REMARK   11  A    between atoms: C_73  and  C_76 
REMARK   12  A    between atoms: C_76  and  O_78 
REMARK   13  A    between atoms: C_79  and  C_80 
REMARK   14  A    between atoms: C_80  and  C_81 
REMARK   15  A    between atoms: C_81  and  C_82 
REMARK   16  A    between atoms: C_82  and  C_83 
REMARK   17  A    between atoms: C_83  and  O_85 
REMARK   18  A    between atoms: C_86  and  O_87 
REMARK   19  A    between atoms: C_86  and  C_88 
REMARK   20  A    between atoms: C_94  and  O_95 
ROOT
HETATM    1  C   UNK N   1      33.848   4.696   0.943  0.00  0.00     0.059 C 
HETATM    2  C   UNK N   1      33.233   5.898   1.565  0.00  0.00     0.013 A 
HETATM    3  S   UNK N   1      32.210   6.919   0.801  0.00  0.00    -0.077 SA
HETATM    4  C   UNK N   1      31.997   7.996   2.036  0.00  0.00     0.075 A 
HETATM    5  N   UNK N   1      32.727   7.589   3.120  0.00  0.00    -0.347 N 
ATOM      6  HN  UNK N   1      32.760   8.089   4.009  1.00  0.00     0.166 HD
HETATM    7  C   UNK N   1      33.421   6.409   2.862  0.00  0.00     0.114 A 
HETATM    8  C   UNK N   1      34.347   5.780   3.837  0.00  0.00     0.269 C 
HETATM    9  O   UNK N   1      35.109   4.898   3.470  0.00  0.00    -0.266 OA
HETATM   10  N   UNK N   1      34.387   6.220   5.113  0.00  0.00    -0.345 N 
HETATM   11  C   UNK N   1      35.370   5.790   6.094  0.00  0.00     0.145 C 
HETATM   12  C   UNK N   1      35.460   6.887   7.114  0.00  0.00     0.075 A 
HETATM   13  S   UNK N   1      34.572   8.274   7.100  0.00  0.00    -0.074 SA
HETATM   14  C   UNK N   1      35.127   8.914   8.503  0.00  0.00     0.040 A 
HETATM   15  C   UNK N   1      36.056   7.972   9.028  0.00  0.00     0.116 A 
HETATM   16  N   UNK N   1      36.244   6.867   8.220  0.00  0.00    -0.347 N 
ATOM     17  HN  UNK N   1      36.902   6.116   8.433  1.00  0.00     0.166 HD
HETATM   18  C   UNK N   1      36.812   8.057  10.308  0.00  0.00     0.269 C 
HETATM   19  O   UNK N   1      37.881   7.471  10.380  0.00  0.00    -0.266 OA
HETATM   20  N   UNK N   1      36.333   8.649  11.433  0.00  0.00    -0.347 N 
HETATM   21  C   UNK N   1      35.003   9.184  11.600  0.00  0.00     0.225 C 
HETATM   22  C   UNK N   1      35.078  10.639  11.934  0.00  0.00     0.236 C 
HETATM   23  O   UNK N   1      34.130  11.186  12.477  0.00  0.00    -0.272 OA
HETATM   24  N   UNK N   1      36.209  11.329  11.636  0.00  0.00    -0.346 N 
HETATM   25  C   UNK N   1      36.467  12.717  11.959  0.00  0.00     0.175 C 
HETATM   26  C   UNK N   1      35.618  13.670  11.200  0.00  0.00     0.077 A 
HETATM   27  S   UNK N   1      35.884  15.292  11.198  0.00  0.00    -0.084 SA
HETATM   28  C   UNK N   1      34.536  15.746  10.421  0.00  0.00     0.084 A 
HETATM   29  C   UNK N   1      33.851  14.557  10.150  0.00  0.00     0.073 A 
HETATM   30  N   UNK N   1      34.464  13.393  10.547  0.00  0.00    -0.349 N 
ATOM     31  HN  UNK N   1      34.102  12.455  10.374  1.00  0.00     0.166 HD
HETATM   32  C   UNK N   1      32.729  14.632   9.274  0.00  0.00     0.102 A 
HETATM   33  S   UNK N   1      31.610  15.824   9.480  0.00  0.00    -0.080 SA
HETATM   34  C   UNK N   1      31.354  16.184   7.908  0.00  0.00     0.079 A 
HETATM   35  C   UNK N   1      32.228  15.351   7.188  0.00  0.00     0.040 A 
HETATM   36  N   UNK N   1      32.968  14.486   7.953  0.00  0.00    -0.350 N 
ATOM     37  HN  UNK N   1      33.625  13.809   7.566  1.00  0.00     0.166 HD
HETATM   38  C   UNK N   1      32.259  15.308   5.708  0.00  0.00     0.142 C 
HETATM   39  N   UNK N   1      31.582  16.360   5.186  0.00  0.00    -0.380 N 
ATOM     40  HN  UNK N   1      32.089  17.202   4.913  1.00  0.00     0.160 HD
HETATM   41  C   UNK N   1      30.232  16.303   5.024  0.00  0.00     0.038 C 
HETATM   42  C   UNK N   1      29.578  15.108   5.347  0.00  0.00     0.024 C 
HETATM   43  C   UNK N   1      30.360  13.956   5.429  0.00  0.00    -0.015 C 
HETATM   44  C   UNK N   1      31.780  14.060   5.378  0.00  0.00     0.070 C 
HETATM   45  C   UNK N   1      32.245  13.403   4.171  0.00  0.00     0.158 A 
HETATM   46  S   UNK N   1      31.862  14.165   2.738  0.00  0.00    -0.113 SA
HETATM   47  C   UNK N   1      30.927  12.974   2.080  0.00  0.00     0.082 A 
HETATM   48  C   UNK N   1      31.034  11.905   2.988  0.00  0.00     0.103 A 
HETATM   49  N   UNK N   1      31.783  12.150   4.092  0.00  0.00    -0.371 N 
ATOM     50  HN  UNK N   1      31.979  11.442   4.799  1.00  0.00     0.161 HD
HETATM   51  C   UNK N   1      30.012  10.870   3.153  0.00  0.00     0.269 C 
HETATM   52  O   UNK N   1      29.011  11.139   3.798  0.00  0.00    -0.266 OA
HETATM   53  N   UNK N   1      30.261   9.589   2.811  0.00  0.00    -0.345 N 
HETATM   54  C   UNK N   1      31.304   9.322   1.871  0.00  0.00     0.150 C 
HETATM   55  H   UNK N   1      33.708   6.873   5.397  0.00  0.00     0.163 HD
HETATM   56  H   UNK N   1      36.946   8.717  12.201  0.00  0.00     0.163 HD
HETATM   57  H   UNK N   1      36.918  10.840  11.159  0.00  0.00     0.163 HD
HETATM   58  H   UNK N   1      29.734   8.853   3.200  0.00  0.00     0.163 HD
ENDROOT
BRANCH  41  59
HETATM   59  C   UNK N   1      29.572  17.545   5.267  0.00  0.00     0.199 A 
HETATM   60  S   UNK N   1      29.424  18.234   6.764  0.00  0.00    -0.106 SA
HETATM   61  C   UNK N   1      27.844  18.743   6.647  0.00  0.00     0.096 A 
HETATM   62  C   UNK N   1      27.432  18.282   5.381  0.00  0.00     0.115 A 
HETATM   63  N   UNK N   1      28.378  17.625   4.667  0.00  0.00    -0.357 N 
ATOM     64  HN  UNK N   1      28.194  17.226   3.746  1.00  0.00     0.162 HD
BRANCH  62  65
HETATM   65  N   UNK N   1      26.074  18.070   5.070  0.00  0.00    -0.279 N 
HETATM   66  C   UNK N   1      25.522  16.841   5.127  0.00  0.00     0.368 C 
HETATM   67  O   UNK N   1      26.173  15.897   5.556  0.00  0.00    -0.238 OA
BRANCH  66  68
HETATM   68  O   UNK N   1      24.253  16.642   4.702  0.00  0.00    -0.298 OA
BRANCH  68  69
HETATM   69  C   UNK N   1      23.553  15.455   4.932  0.00  0.00     0.133 C 
HETATM   70  C   UNK N   1      22.524  15.251   3.842  0.00  0.00     0.033 C 
HETATM   71  C   UNK N   1      21.571  16.441   3.837  0.00  0.00     0.018 C 
HETATM   72  C   UNK N   1      20.902  16.710   5.202  0.00  0.00     0.084 C 
HETATM   73  C   UNK N   1      21.762  16.460   6.455  0.00  0.00     0.018 C 
HETATM   74  C   UNK N   1      22.820  15.365   6.287  0.00  0.00     0.033 C 
BRANCH  72  75
HETATM   75  C   UNK N   1      19.535  16.140   5.348  0.00  0.00     0.143 C 
HETATM   76  O   UNK N   1      19.297  15.387   6.278  0.00  0.00    -0.650 OA
BRANCH  75  77
HETATM   77  O   UNK N   1      18.552  16.481   4.495  0.00  0.00    -0.776 OA
HETATM   78  H   UNK N   1      18.747  16.637   3.592  0.00  0.00     0.167 HD
ENDBRANCH  75  77
ENDBRANCH  72  75
ENDBRANCH  68  69
ENDBRANCH  66  68
BRANCH  65  79
HETATM   79  C   UNK N   1      25.248  19.233   4.805  0.00  0.00     0.136 C 
BRANCH  79  80
HETATM   80  C   UNK N   1      25.358  19.763   3.381  0.00  0.00     0.021 C 
BRANCH  80  81
HETATM   81  C   UNK N   1      24.153  20.644   3.074  0.00  0.00     0.012 C 
BRANCH  81  82
HETATM   82  C   UNK N   1      22.873  19.829   3.091  0.00  0.00     0.110 C 
BRANCH  82  83
HETATM   83  C   UNK N   1      21.717  20.602   2.546  0.00  0.00     0.139 C 
HETATM   84  O   UNK N   1      21.591  20.754   1.341  0.00  0.00    -0.650 OA
BRANCH  83  85
HETATM   85  O   UNK N   1      20.785  21.093   3.384  0.00  0.00    -0.776 OA
HETATM   86  H   UNK N   1      20.065  21.658   3.181  0.00  0.00     0.167 HD
ENDBRANCH  83  85
ENDBRANCH  82  83
ENDBRANCH  81  82
ENDBRANCH  80  81
ENDBRANCH  79  80
ENDBRANCH  65  79
ENDBRANCH  62  65
ENDBRANCH  41  59
BRANCH  25  87
HETATM   87  C   UNK N   1      36.293  13.004  13.464  0.00  0.00     0.180 C 
BRANCH  87  88
HETATM   88  O   UNK N   1      37.050  14.114  13.854  0.00  0.00    -0.388 OA
HETATM   89  H   UNK N   1      36.690  14.925  14.244  0.00  0.00     0.210 HD
ENDBRANCH  87  88
BRANCH  87  90
HETATM   90  C   UNK N   1      36.632  11.882  14.381  0.00  0.00    -0.027 A 
HETATM   91  C   UNK N   1      37.766  11.079  14.192  0.00  0.00     0.010 A 
HETATM   92  C   UNK N   1      38.051  10.053  15.092  0.00  0.00     0.001 A 
HETATM   93  C   UNK N   1      37.209   9.831  16.186  0.00  0.00     0.000 A 
HETATM   94  C   UNK N   1      36.082  10.632  16.377  0.00  0.00     0.001 A 
HETATM   95  C   UNK N   1      35.794  11.654  15.475  0.00  0.00     0.010 A 
ENDBRANCH  87  90
ENDBRANCH  25  87
BRANCH  54  96
HETATM   96  C   UNK N   1      30.637   9.447   0.505  0.00  0.00     0.134 C 
BRANCH  96  97
HETATM   97  C   UNK N   1      31.475  10.225  -0.452  0.00  0.00     0.219 C 
HETATM   98  O   UNK N   1      32.493  10.760  -0.049  0.00  0.00    -0.274 OA
HETATM   99  N   UNK N   1      31.143  10.320  -1.763  0.00  0.00    -0.365 N 
HETATM  100  C   UNK N   1      29.957   9.706  -2.310  0.00  0.00     0.149 C 
HETATM  101  H   UNK N   1      31.734  10.828  -2.366  0.00  0.00     0.161 HD
ENDBRANCH  96  97
ENDBRANCH  54  96
BRANCH  11 102
HETATM  102  C   UNK N   1      34.991   4.460   6.788  0.00  0.00     0.007 C 
HETATM  103  C   UNK N   1      35.862   3.321   6.276  0.00  0.00     0.012 C 
HETATM  104  C   UNK N   1      33.550   4.051   6.554  0.00  0.00     0.012 C 
ENDBRANCH  11 102
BRANCH  14 105
HETATM  105  C   UNK N   1      34.707  10.261   8.982  0.00  0.00     0.215 C 
BRANCH 105 106
HETATM  106  O   UNK N   1      35.696  11.209   8.700  0.00  0.00    -0.391 OA
HETATM  107  C   UNK N   1      35.290  11.805   7.504  0.00  0.00     0.201 C 
ENDBRANCH 105 106
ENDBRANCH  14 105
TORSDOF 20
ENDMDL
MODEL 5
REMARK VINA RESULT:      -7.7      6.594     11.289
REMARK  20 active torsions:
REMARK  status: ('A' for Active; 'I' for Inactive)
REMARK    1  A    between atoms: C_11  and  C_97 
REMARK    2  A    between atoms: C_14  and  C_94 
REMARK    3  A    between atoms: C_25  and  C_86 
REMARK    4  A    between atoms: C_41  and  C_60 
REMARK    5  A    between atoms: C_54  and  C_55 
REMARK    6  A    between atoms: C_55  and  C_56 
REMARK       I    between atoms: C_56  and  N_58 
REMARK    7  A    between atoms: C_63  and  N_66 
REMARK       I    between atoms: N_66  and  C_67 
REMARK    8  A    between atoms: N_66  and  C_79 
REMARK    9  A    between atoms: C_67  and  O_69 
REMARK   10  A    between atoms: C_70  and  O_69 
REMARK   11  A    between atoms: C_73  and  C_76 
REMARK   12  A    between atoms: C_76  and  O_78 
REMARK   13  A    between atoms: C_79  and  C_80 
REMARK   14  A    between atoms: C_80  and  C_81 
REMARK   15  A    between atoms: C_81  and  C_82 
REMARK   16  A    between atoms: C_82  and  C_83 
REMARK   17  A    between atoms: C_83  and  O_85 
REMARK   18  A    between atoms: C_86  and  O_87 
REMARK   19  A    between atoms: C_86  and  C_88 
REMARK   20  A    between atoms: C_94  and  O_95 
ROOT
HETATM    1  C   UNK N   1      42.846   4.915   3.667  0.00  0.00     0.059 C 
HETATM    2  C   UNK N   1      41.666   5.816   3.745  0.00  0.00     0.013 A 
HETATM    3  S   UNK N   1      40.956   6.531   2.460  0.00  0.00    -0.077 SA
HETATM    4  C   UNK N   1      39.805   7.388   3.280  0.00  0.00     0.075 A 
HETATM    5  N   UNK N   1      39.930   7.140   4.620  0.00  0.00    -0.347 N 
ATOM      6  HN  UNK N   1      39.332   7.553   5.337  1.00  0.00     0.166 HD
HETATM    7  C   UNK N   1      40.971   6.255   4.887  0.00  0.00     0.114 A 
HETATM    8  C   UNK N   1      41.375   5.864   6.262  0.00  0.00     0.269 C 
HETATM    9  O   UNK N   1      42.439   5.291   6.444  0.00  0.00    -0.266 OA
HETATM   10  N   UNK N   1      40.596   6.191   7.314  0.00  0.00    -0.345 N 
HETATM   11  C   UNK N   1      40.981   6.007   8.704  0.00  0.00     0.145 C 
HETATM   12  C   UNK N   1      40.180   6.993   9.502  0.00  0.00     0.075 A 
HETATM   13  S   UNK N   1      39.067   8.037   8.882  0.00  0.00    -0.074 SA
HETATM   14  C   UNK N   1      38.567   8.702  10.295  0.00  0.00     0.040 A 
HETATM   15  C   UNK N   1      39.307   8.052  11.322  0.00  0.00     0.116 A 
HETATM   16  N   UNK N   1      40.218   7.126  10.851  0.00  0.00    -0.347 N 
ATOM     17  HN  UNK N   1      40.852   6.600  11.453  1.00  0.00     0.166 HD
HETATM   18  C   UNK N   1      39.198   8.262  12.792  0.00  0.00     0.269 C 
HETATM   19  O   UNK N   1      40.183   8.029  13.476  0.00  0.00    -0.266 OA
HETATM   20  N   UNK N   1      38.043   8.586  13.429  0.00  0.00    -0.347 N 
HETATM   21  C   UNK N   1      36.740   8.673  12.813  0.00  0.00     0.225 C 
HETATM   22  C   UNK N   1      36.183  10.049  12.989  0.00  0.00     0.236 C 
HETATM   23  O   UNK N   1      34.980  10.233  12.891  0.00  0.00    -0.272 OA
HETATM   24  N   UNK N   1      37.030  11.074  13.266  0.00  0.00    -0.346 N 
HETATM   25  C   UNK N   1      36.644  12.443  13.536  0.00  0.00     0.175 C 
HETATM   26  C   UNK N   1      36.089  13.147  12.352  0.00  0.00     0.077 A 
HETATM   27  S   UNK N   1      35.812  14.768  12.329  0.00  0.00    -0.084 SA
HETATM   28  C   UNK N   1      35.022  14.846  10.916  0.00  0.00     0.084 A 
HETATM   29  C   UNK N   1      34.982  13.530  10.445  0.00  0.00     0.073 A 
HETATM   30  N   UNK N   1      35.607  12.583  11.219  0.00  0.00    -0.349 N 
ATOM     31  HN  UNK N   1      35.694  11.596  10.976  1.00  0.00     0.166 HD
HETATM   32  C   UNK N   1      34.537  13.327   9.105  0.00  0.00     0.102 A 
HETATM   33  S   UNK N   1      33.183  14.098   8.569  0.00  0.00    -0.080 SA
HETATM   34  C   UNK N   1      33.708  14.487   7.073  0.00  0.00     0.079 A 
HETATM   35  C   UNK N   1      35.034  14.021   7.011  0.00  0.00     0.040 A 
HETATM   36  N   UNK N   1      35.473  13.368   8.132  0.00  0.00    -0.350 N 
ATOM     37  HN  UNK N   1      36.403  12.958   8.222  1.00  0.00     0.166 HD
HETATM   38  C   UNK N   1      35.859  14.109   5.783  0.00  0.00     0.142 C 
HETATM   39  N   UNK N   1      35.284  14.941   4.881  0.00  0.00    -0.380 N 
ATOM     40  HN  UNK N   1      35.577  15.917   4.834  1.00  0.00     0.160 HD
HETATM   41  C   UNK N   1      34.318  14.485   4.036  0.00  0.00     0.038 C 
HETATM   42  C   UNK N   1      33.989  13.125   4.082  0.00  0.00     0.024 C 
HETATM   43  C   UNK N   1      34.911  12.266   4.680  0.00  0.00    -0.015 C 
HETATM   44  C   UNK N   1      36.031  12.805   5.376  0.00  0.00     0.070 C 
HETATM   45  C   UNK N   1      37.238  12.421   4.670  0.00  0.00     0.158 A 
HETATM   46  S   UNK N   1      37.468  13.141   3.184  0.00  0.00    -0.113 SA
HETATM   47  C   UNK N   1      37.436  11.777   2.254  0.00  0.00     0.082 A 
HETATM   48  C   UNK N   1      37.360  10.723   3.183  0.00  0.00     0.103 A 
HETATM   49  N   UNK N   1      37.293  11.097   4.485  0.00  0.00    -0.371 N 
ATOM     50  HN  UNK N   1      37.285  10.429   5.255  1.00  0.00     0.161 HD
HETATM   51  C   UNK N   1      36.776   9.415   2.886  0.00  0.00     0.269 C 
HETATM   52  O   UNK N   1      35.559   9.312   2.874  0.00  0.00    -0.266 OA
HETATM   53  N   UNK N   1      37.540   8.303   2.857  0.00  0.00    -0.345 N 
HETATM   54  C   UNK N   1      38.945   8.446   2.641  0.00  0.00     0.150 C 
HETATM   55  H   UNK N   1      39.710   6.580   7.129  0.00  0.00     0.163 HD
HETATM   56  H   UNK N   1      38.099   8.778  14.392  0.00  0.00     0.163 HD
HETATM   57  H   UNK N   1      37.992  10.867  13.287  0.00  0.00     0.163 HD
HETATM   58  H   UNK N   1      37.137   7.413   2.980  0.00  0.00     0.163 HD
ENDROOT
BRANCH  41  59
HETATM   59  C   UNK N   1      33.293  15.441   3.768  0.00  0.00     0.199 A 
HETATM   60  S   UNK N   1      33.371  17.029   4.223  0.00  0.00    -0.106 SA
HETATM   61  C   UNK N   1      31.801  17.214   4.743  0.00  0.00     0.096 A 
HETATM   62  C   UNK N   1      31.239  15.932   4.589  0.00  0.00     0.115 A 
HETATM   63  N   UNK N   1      32.070  14.992   4.077  0.00  0.00    -0.357 N 
ATOM     64  HN  UNK N   1      31.786  14.022   3.938  1.00  0.00     0.162 HD
BRANCH  62  65
HETATM   65  N   UNK N   1      30.113  15.515   5.329  0.00  0.00    -0.279 N 
HETATM   66  C   UNK N   1      29.080  14.880   4.740  0.00  0.00     0.368 C 
HETATM   67  O   UNK N   1      29.150  14.560   3.561  0.00  0.00    -0.238 OA
BRANCH  66  68
HETATM   68  O   UNK N   1      27.958  14.605   5.444  0.00  0.00    -0.298 OA
BRANCH  68  69
HETATM   69  C   UNK N   1      26.673  14.839   4.947  0.00  0.00     0.133 C 
HETATM   70  C   UNK N   1      25.948  15.814   5.847  0.00  0.00     0.033 C 
HETATM   71  C   UNK N   1      25.878  15.226   7.252  0.00  0.00     0.018 C 
HETATM   72  C   UNK N   1      25.239  13.822   7.309  0.00  0.00     0.084 C 
HETATM   73  C   UNK N   1      25.538  12.878   6.130  0.00  0.00     0.018 C 
HETATM   74  C   UNK N   1      25.779  13.590   4.795  0.00  0.00     0.033 C 
BRANCH  72  75
HETATM   75  C   UNK N   1      23.797  13.809   7.675  0.00  0.00     0.143 C 
HETATM   76  O   UNK N   1      22.967  14.168   6.855  0.00  0.00    -0.650 OA
BRANCH  75  77
HETATM   77  O   UNK N   1      23.396  13.365   8.881  0.00  0.00    -0.776 OA
HETATM   78  H   UNK N   1      22.651  13.748   9.298  0.00  0.00     0.167 HD
ENDBRANCH  75  77
ENDBRANCH  72  75
ENDBRANCH  68  69
ENDBRANCH  66  68
BRANCH  65  79
HETATM   79  C   UNK N   1      30.151  15.677   6.770  0.00  0.00     0.136 C 
BRANCH  79  80
HETATM   80  C   UNK N   1      30.162  17.128   7.233  0.00  0.00     0.021 C 
BRANCH  80  81
HETATM   81  C   UNK N   1      28.778  17.734   7.031  0.00  0.00     0.012 C 
BRANCH  81  82
HETATM   82  C   UNK N   1      28.464  18.734   8.130  0.00  0.00     0.110 C 
BRANCH  82  83
HETATM   83  C   UNK N   1      28.611  18.128   9.488  0.00  0.00     0.139 C 
HETATM   84  O   UNK N   1      27.874  17.221   9.840  0.00  0.00    -0.650 OA
BRANCH  83  85
HETATM   85  O   UNK N   1      29.590  18.552  10.307  0.00  0.00    -0.776 OA
HETATM   86  H   UNK N   1      30.455  18.829  10.080  0.00  0.00     0.167 HD
ENDBRANCH  83  85
ENDBRANCH  82  83
ENDBRANCH  81  82
ENDBRANCH  80  81
ENDBRANCH  79  80
ENDBRANCH  65  79
ENDBRANCH  62  65
ENDBRANCH  41  59
BRANCH  25  87
HETATM   87  C   UNK N   1      35.620  12.542  14.684  0.00  0.00     0.180 C 
BRANCH  87  88
HETATM   88  O   UNK N   1      34.342  12.828  14.194  0.00  0.00    -0.388 OA
HETATM   89  H   UNK N   1      34.145  13.451  13.477  0.00  0.00     0.210 HD
ENDBRANCH  87  88
BRANCH  87  90
HETATM   90  C   UNK N   1      35.930  13.539  15.744  0.00  0.00    -0.027 A 
HETATM   91  C   UNK N   1      35.231  13.582  16.958  0.00  0.00     0.010 A 
HETATM   92  C   UNK N   1      35.575  14.523  17.928  0.00  0.00     0.001 A 
HETATM   93  C   UNK N   1      36.623  15.417  17.691  0.00  0.00     0.000 A 
HETATM   94  C   UNK N   1      37.324  15.373  16.484  0.00  0.00     0.001 A 
HETATM   95  C   UNK N   1      36.976  14.436  15.513  0.00  0.00     0.010 A 
ENDBRANCH  87  90
ENDBRANCH  25  87
BRANCH  54  96
HETATM   96  C   UNK N   1      39.107   8.469   1.125  0.00  0.00     0.134 C 
BRANCH  96  97
HETATM   97  C   UNK N   1      39.931   9.627   0.673  0.00  0.00     0.219 C 
HETATM   98  O   UNK N   1      40.540  10.281   1.502  0.00  0.00    -0.274 OA
HETATM   99  N   UNK N   1      40.039   9.944  -0.641  0.00  0.00    -0.365 N 
HETATM  100  C   UNK N   1      39.351   9.209  -1.675  0.00  0.00     0.149 C 
HETATM  101  H   UNK N   1      40.607  10.705  -0.899  0.00  0.00     0.161 HD
ENDBRANCH  96  97
ENDBRANCH  54  96
BRANCH  11 102
HETATM  102  C   UNK N   1      40.712   4.574   9.221  0.00  0.00     0.007 C 
HETATM  103  C   UNK N   1      39.227   4.369   9.486  0.00  0.00     0.012 C 
HETATM  104  C   UNK N   1      41.436   4.256  10.514  0.00  0.00     0.012 C 
ENDBRANCH  11 102
BRANCH  14 105
HETATM  105  C   UNK N   1      37.574   9.812  10.342  0.00  0.00     0.215 C 
BRANCH 105 106
HETATM  106  O   UNK N   1      38.220  11.035  10.550  0.00  0.00    -0.391 OA
HETATM  107  C   UNK N   1      38.384  11.577   9.273  0.00  0.00     0.201 C 
ENDBRANCH 105 106
ENDBRANCH  14 105
TORSDOF 20
ENDMDL
MODEL 6
REMARK VINA RESULT:      -7.7      6.461     10.476
REMARK  20 active torsions:
REMARK  status: ('A' for Active; 'I' for Inactive)
REMARK    1  A    between atoms: C_11  and  C_97 
REMARK    2  A    between atoms: C_14  and  C_94 
REMARK    3  A    between atoms: C_25  and  C_86 
REMARK    4  A    between atoms: C_41  and  C_60 
REMARK    5  A    between atoms: C_54  and  C_55 
REMARK    6  A    between atoms: C_55  and  C_56 
REMARK       I    between atoms: C_56  and  N_58 
REMARK    7  A    between atoms: C_63  and  N_66 
REMARK       I    between atoms: N_66  and  C_67 
REMARK    8  A    between atoms: N_66  and  C_79 
REMARK    9  A    between atoms: C_67  and  O_69 
REMARK   10  A    between atoms: C_70  and  O_69 
REMARK   11  A    between atoms: C_73  and  C_76 
REMARK   12  A    between atoms: C_76  and  O_78 
REMARK   13  A    between atoms: C_79  and  C_80 
REMARK   14  A    between atoms: C_80  and  C_81 
REMARK   15  A    between atoms: C_81  and  C_82 
REMARK   16  A    between atoms: C_82  and  C_83 
REMARK   17  A    between atoms: C_83  and  O_85 
REMARK   18  A    between atoms: C_86  and  O_87 
REMARK   19  A    between atoms: C_86  and  C_88 
REMARK   20  A    between atoms: C_94  and  O_95 
ROOT
HETATM    1  C   UNK N   1      30.643  11.183  -3.207  0.00  0.00     0.059 C 
HETATM    2  C   UNK N   1      31.019  11.350  -1.779  0.00  0.00     0.013 A 
HETATM    3  S   UNK N   1      30.029  11.939  -0.620  0.00  0.00    -0.077 SA
HETATM    4  C   UNK N   1      31.097  11.891   0.640  0.00  0.00     0.075 A 
HETATM    5  N   UNK N   1      32.294  11.397   0.198  0.00  0.00    -0.347 N 
ATOM      6  HN  UNK N   1      33.115  11.270   0.790  1.00  0.00     0.166 HD
HETATM    7  C   UNK N   1      32.255  11.088  -1.160  0.00  0.00     0.114 A 
HETATM    8  C   UNK N   1      33.435  10.600  -1.917  0.00  0.00     0.269 C 
HETATM    9  O   UNK N   1      33.410  10.585  -3.139  0.00  0.00    -0.266 OA
HETATM   10  N   UNK N   1      34.554  10.227  -1.260  0.00  0.00    -0.345 N 
HETATM   11  C   UNK N   1      35.812   9.899  -1.911  0.00  0.00     0.145 C 
HETATM   12  C   UNK N   1      36.890  10.133  -0.894  0.00  0.00     0.075 A 
HETATM   13  S   UNK N   1      36.643  10.632   0.656  0.00  0.00    -0.074 SA
HETATM   14  C   UNK N   1      38.202  10.584   1.162  0.00  0.00     0.040 A 
HETATM   15  C   UNK N   1      38.965  10.130   0.050  0.00  0.00     0.116 A 
HETATM   16  N   UNK N   1      38.214   9.914  -1.090  0.00  0.00    -0.347 N 
ATOM     17  HN  UNK N   1      38.612   9.623  -1.983  1.00  0.00     0.166 HD
HETATM   18  C   UNK N   1      40.431   9.873  -0.003  0.00  0.00     0.269 C 
HETATM   19  O   UNK N   1      40.990   9.975  -1.084  0.00  0.00    -0.266 OA
HETATM   20  N   UNK N   1      41.161   9.425   1.051  0.00  0.00    -0.347 N 
HETATM   21  C   UNK N   1      40.629   9.029   2.334  0.00  0.00     0.225 C 
HETATM   22  C   UNK N   1      41.229   9.868   3.416  0.00  0.00     0.236 C 
HETATM   23  O   UNK N   1      41.218   9.468   4.569  0.00  0.00    -0.272 OA
HETATM   24  N   UNK N   1      41.789  11.062   3.092  0.00  0.00    -0.346 N 
HETATM   25  C   UNK N   1      42.472  11.954   4.005  0.00  0.00     0.175 C 
HETATM   26  C   UNK N   1      41.572  12.583   5.005  0.00  0.00     0.077 A 
HETATM   27  S   UNK N   1      42.052  13.812   5.986  0.00  0.00    -0.084 SA
HETATM   28  C   UNK N   1      40.748  13.863   6.947  0.00  0.00     0.084 A 
HETATM   29  C   UNK N   1      39.898  12.863   6.464  0.00  0.00     0.073 A 
HETATM   30  N   UNK N   1      40.332  12.170   5.360  0.00  0.00    -0.349 N 
ATOM     31  HN  UNK N   1      39.797  11.448   4.877  1.00  0.00     0.166 HD
HETATM   32  C   UNK N   1      38.570  12.825   6.983  0.00  0.00     0.102 A 
HETATM   33  S   UNK N   1      38.325  12.957   8.607  0.00  0.00    -0.080 SA
HETATM   34  C   UNK N   1      37.008  13.922   8.570  0.00  0.00     0.079 A 
HETATM   35  C   UNK N   1      36.779  14.187   7.208  0.00  0.00     0.040 A 
HETATM   36  N   UNK N   1      37.637  13.561   6.342  0.00  0.00    -0.350 N 
ATOM     37  HN  UNK N   1      37.577  13.642   5.327  1.00  0.00     0.166 HD
HETATM   38  C   UNK N   1      35.619  14.975   6.728  0.00  0.00     0.142 C 
HETATM   39  N   UNK N   1      35.027  15.627   7.757  0.00  0.00    -0.380 N 
ATOM     40  HN  UNK N   1      35.275  16.598   7.950  1.00  0.00     0.160 HD
HETATM   41  C   UNK N   1      34.104  14.999   8.536  0.00  0.00     0.038 C 
HETATM   42  C   UNK N   1      33.739  13.690   8.201  0.00  0.00     0.024 C 
HETATM   43  C   UNK N   1      34.026  13.260   6.906  0.00  0.00    -0.015 C 
HETATM   44  C   UNK N   1      34.829  14.070   6.054  0.00  0.00     0.070 C 
HETATM   45  C   UNK N   1      34.014  14.512   4.939  0.00  0.00     0.158 A 
HETATM   46  S   UNK N   1      32.815  15.610   5.308  0.00  0.00    -0.113 SA
HETATM   47  C   UNK N   1      31.514  14.692   4.872  0.00  0.00     0.082 A 
HETATM   48  C   UNK N   1      32.077  13.533   4.309  0.00  0.00     0.103 A 
HETATM   49  N   UNK N   1      33.432  13.477   4.322  0.00  0.00    -0.371 N 
ATOM     50  HN  UNK N   1      33.961  12.715   3.900  1.00  0.00     0.161 HD
HETATM   51  C   UNK N   1      31.406  12.232   4.278  0.00  0.00     0.269 C 
HETATM   52  O   UNK N   1      31.389  11.563   5.299  0.00  0.00    -0.266 OA
HETATM   53  N   UNK N   1      31.022  11.677   3.110  0.00  0.00    -0.345 N 
HETATM   54  C   UNK N   1      30.831  12.529   1.978  0.00  0.00     0.150 C 
HETATM   55  H   UNK N   1      34.516  10.174  -0.278  0.00  0.00     0.163 HD
HETATM   56  H   UNK N   1      42.136   9.363   0.930  0.00  0.00     0.163 HD
HETATM   57  H   UNK N   1      41.725  11.347   2.151  0.00  0.00     0.163 HD
HETATM   58  H   UNK N   1      30.876  10.706   3.039  0.00  0.00     0.163 HD
ENDROOT
BRANCH  41  59
HETATM   59  C   UNK N   1      34.163  15.375   9.912  0.00  0.00     0.199 A 
HETATM   60  S   UNK N   1      35.270  16.438  10.531  0.00  0.00    -0.106 SA
HETATM   61  C   UNK N   1      35.635  15.623  11.935  0.00  0.00     0.096 A 
HETATM   62  C   UNK N   1      34.875  14.441  11.849  0.00  0.00     0.115 A 
HETATM   63  N   UNK N   1      34.105  14.326  10.741  0.00  0.00    -0.357 N 
ATOM     64  HN  UNK N   1      33.526  13.507  10.554  1.00  0.00     0.162 HD
BRANCH  62  65
HETATM   65  N   UNK N   1      35.227  13.274  12.559  0.00  0.00    -0.279 N 
HETATM   66  C   UNK N   1      35.102  12.050  12.007  0.00  0.00     0.368 C 
HETATM   67  O   UNK N   1      34.777  11.939  10.832  0.00  0.00    -0.238 OA
BRANCH  66  68
HETATM   68  O   UNK N   1      35.323  10.941  12.749  0.00  0.00    -0.298 OA
BRANCH  68  69
HETATM   69  C   UNK N   1      36.256   9.964  12.394  0.00  0.00     0.133 C 
HETATM   70  C   UNK N   1      35.905   8.656  13.068  0.00  0.00     0.033 C 
HETATM   71  C   UNK N   1      35.903   8.868  14.578  0.00  0.00     0.018 C 
HETATM   72  C   UNK N   1      37.222   9.452  15.128  0.00  0.00     0.084 C 
HETATM   73  C   UNK N   1      37.945  10.482  14.241  0.00  0.00     0.018 C 
HETATM   74  C   UNK N   1      37.725  10.287  12.737  0.00  0.00     0.033 C 
BRANCH  72  75
HETATM   75  C   UNK N   1      38.165   8.444  15.684  0.00  0.00     0.143 C 
HETATM   76  O   UNK N   1      39.355   8.532  15.427  0.00  0.00    -0.650 OA
BRANCH  75  77
HETATM   77  O   UNK N   1      37.727   7.468  16.500  0.00  0.00    -0.776 OA
HETATM   78  H   UNK N   1      37.639   6.592  16.179  0.00  0.00     0.167 HD
ENDBRANCH  75  77
ENDBRANCH  72  75
ENDBRANCH  68  69
ENDBRANCH  66  68
BRANCH  65  79
HETATM   79  C   UNK N   1      35.847  13.433  13.861  0.00  0.00     0.136 C 
BRANCH  79  80
HETATM   80  C   UNK N   1      34.940  13.071  15.030  0.00  0.00     0.021 C 
BRANCH  80  81
HETATM   81  C   UNK N   1      35.793  12.711  16.240  0.00  0.00     0.012 C 
BRANCH  81  82
HETATM   82  C   UNK N   1      34.938  12.610  17.490  0.00  0.00     0.110 C 
BRANCH  82  83
HETATM   83  C   UNK N   1      35.312  13.643  18.502  0.00  0.00     0.139 C 
HETATM   84  O   UNK N   1      35.271  13.380  19.694  0.00  0.00    -0.650 OA
BRANCH  83  85
HETATM   85  O   UNK N   1      35.741  14.852  18.098  0.00  0.00    -0.776 OA
HETATM   86  H   UNK N   1      36.361  15.416  18.517  0.00  0.00     0.167 HD
ENDBRANCH  83  85
ENDBRANCH  82  83
ENDBRANCH  81  82
ENDBRANCH  80  81
ENDBRANCH  79  80
ENDBRANCH  65  79
ENDBRANCH  62  65
ENDBRANCH  41  59
BRANCH  25  87
HETATM   87  C   UNK N   1      43.618  11.247   4.758  0.00  0.00     0.180 C 
BRANCH  87  88
HETATM   88  O   UNK N   1      43.192  10.798   6.012  0.00  0.00    -0.388 OA
HETATM   89  H   UNK N   1      42.267  10.694   6.284  0.00  0.00     0.210 HD
ENDBRANCH  87  88
BRANCH  87  90
HETATM   90  C   UNK N   1      44.852  12.052   4.961  0.00  0.00    -0.027 A 
HETATM   91  C   UNK N   1      45.342  12.930   3.984  0.00  0.00     0.010 A 
HETATM   92  C   UNK N   1      46.492  13.677   4.232  0.00  0.00     0.001 A 
HETATM   93  C   UNK N   1      47.151  13.556   5.459  0.00  0.00     0.000 A 
HETATM   94  C   UNK N   1      46.663  12.686   6.435  0.00  0.00     0.001 A 
HETATM   95  C   UNK N   1      45.516  11.934   6.185  0.00  0.00     0.010 A 
ENDBRANCH  87  90
ENDBRANCH  25  87
BRANCH  54  96
HETATM   96  C   UNK N   1      29.391  13.017   2.098  0.00  0.00     0.134 C 
BRANCH  96  97
HETATM   97  C   UNK N   1      28.528  12.030   2.808  0.00  0.00     0.219 C 
HETATM   98  O   UNK N   1      28.434  10.898   2.365  0.00  0.00    -0.274 OA
HETATM   99  N   UNK N   1      27.874  12.358   3.949  0.00  0.00    -0.365 N 
HETATM  100  C   UNK N   1      27.946  13.677   4.532  0.00  0.00     0.149 C 
HETATM  101  H   UNK N   1      27.329  11.672   4.397  0.00  0.00     0.161 HD
ENDBRANCH  96  97
ENDBRANCH  54  96
BRANCH  11 102
HETATM  102  C   UNK N   1      35.872   8.436  -2.409  0.00  0.00     0.007 C 
HETATM  103  C   UNK N   1      35.748   8.380  -3.926  0.00  0.00     0.012 C 
HETATM  104  C   UNK N   1      34.767   7.564  -1.846  0.00  0.00     0.012 C 
ENDBRANCH  11 102
BRANCH  14 105
HETATM  105  C   UNK N   1      38.607  11.023   2.527  0.00  0.00     0.215 C 
BRANCH 105 106
HETATM  106  O   UNK N   1      39.134  12.319   2.485  0.00  0.00    -0.391 OA
HETATM  107  C   UNK N   1      38.061  13.152   2.809  0.00  0.00     0.201 C 
ENDBRANCH 105 106
ENDBRANCH  14 105
TORSDOF 20
ENDMDL
MODEL 7
REMARK VINA RESULT:      -7.6      1.280      2.251
REMARK  20 active torsions:
REMARK  status: ('A' for Active; 'I' for Inactive)
REMARK    1  A    between atoms: C_11  and  C_97 
REMARK    2  A    between atoms: C_14  and  C_94 
REMARK    3  A    between atoms: C_25  and  C_86 
REMARK    4  A    between atoms: C_41  and  C_60 
REMARK    5  A    between atoms: C_54  and  C_55 
REMARK    6  A    between atoms: C_55  and  C_56 
REMARK       I    between atoms: C_56  and  N_58 
REMARK    7  A    between atoms: C_63  and  N_66 
REMARK       I    between atoms: N_66  and  C_67 
REMARK    8  A    between atoms: N_66  and  C_79 
REMARK    9  A    between atoms: C_67  and  O_69 
REMARK   10  A    between atoms: C_70  and  O_69 
REMARK   11  A    between atoms: C_73  and  C_76 
REMARK   12  A    between atoms: C_76  and  O_78 
REMARK   13  A    between atoms: C_79  and  C_80 
REMARK   14  A    between atoms: C_80  and  C_81 
REMARK   15  A    between atoms: C_81  and  C_82 
REMARK   16  A    between atoms: C_82  and  C_83 
REMARK   17  A    between atoms: C_83  and  O_85 
REMARK   18  A    between atoms: C_86  and  O_87 
REMARK   19  A    between atoms: C_86  and  C_88 
REMARK   20  A    between atoms: C_94  and  O_95 
ROOT
HETATM    1  C   UNK N   1      28.654  13.894   1.160  0.00  0.00     0.059 C 
HETATM    2  C   UNK N   1      29.317  12.849   1.984  0.00  0.00     0.013 A 
HETATM    3  S   UNK N   1      29.050  11.244   1.839  0.00  0.00    -0.077 SA
HETATM    4  C   UNK N   1      30.041  10.735   3.060  0.00  0.00     0.075 A 
HETATM    5  N   UNK N   1      30.637  11.823   3.639  0.00  0.00    -0.347 N 
ATOM      6  HN  UNK N   1      31.295  11.769   4.417  1.00  0.00     0.166 HD
HETATM    7  C   UNK N   1      30.237  13.013   3.036  0.00  0.00     0.114 A 
HETATM    8  C   UNK N   1      30.674  14.351   3.508  0.00  0.00     0.269 C 
HETATM    9  O   UNK N   1      30.103  15.354   3.107  0.00  0.00    -0.266 OA
HETATM   10  N   UNK N   1      31.663  14.457   4.420  0.00  0.00    -0.345 N 
HETATM   11  C   UNK N   1      32.047  15.701   5.068  0.00  0.00     0.145 C 
HETATM   12  C   UNK N   1      32.696  15.321   6.366  0.00  0.00     0.075 A 
HETATM   13  S   UNK N   1      32.936  13.779   6.894  0.00  0.00    -0.074 SA
HETATM   14  C   UNK N   1      33.736  14.135   8.280  0.00  0.00     0.040 A 
HETATM   15  C   UNK N   1      33.839  15.554   8.325  0.00  0.00     0.116 A 
HETATM   16  N   UNK N   1      33.226  16.190   7.263  0.00  0.00    -0.347 N 
ATOM     17  HN  UNK N   1      33.177  17.204   7.162  1.00  0.00     0.166 HD
HETATM   18  C   UNK N   1      34.515  16.384   9.360  0.00  0.00     0.269 C 
HETATM   19  O   UNK N   1      34.110  17.524   9.531  0.00  0.00    -0.266 OA
HETATM   20  N   UNK N   1      35.622  15.993  10.042  0.00  0.00    -0.347 N 
HETATM   21  C   UNK N   1      36.371  14.781   9.805  0.00  0.00     0.225 C 
HETATM   22  C   UNK N   1      36.397  13.947  11.044  0.00  0.00     0.236 C 
HETATM   23  O   UNK N   1      37.262  13.097  11.185  0.00  0.00    -0.272 OA
HETATM   24  N   UNK N   1      35.458  14.157  12.002  0.00  0.00    -0.346 N 
HETATM   25  C   UNK N   1      35.390  13.488  13.285  0.00  0.00     0.175 C 
HETATM   26  C   UNK N   1      35.046  12.047  13.185  0.00  0.00     0.077 A 
HETATM   27  S   UNK N   1      34.665  11.130  14.495  0.00  0.00    -0.084 SA
HETATM   28  C   UNK N   1      34.639   9.683  13.763  0.00  0.00     0.084 A 
HETATM   29  C   UNK N   1      34.942   9.944  12.424  0.00  0.00     0.073 A 
HETATM   30  N   UNK N   1      35.133  11.262  12.084  0.00  0.00    -0.349 N 
ATOM     31  HN  UNK N   1      35.315  11.600  11.139  1.00  0.00     0.166 HD
HETATM   32  C   UNK N   1      34.773   8.878  11.493  0.00  0.00     0.102 A 
HETATM   33  S   UNK N   1      35.347   7.376  11.859  0.00  0.00    -0.080 SA
HETATM   34  C   UNK N   1      34.100   6.497  11.276  0.00  0.00     0.079 A 
HETATM   35  C   UNK N   1      33.166   7.439  10.810  0.00  0.00     0.040 A 
HETATM   36  N   UNK N   1      33.557   8.748  10.919  0.00  0.00    -0.350 N 
ATOM     37  HN  UNK N   1      32.993   9.536  10.602  1.00  0.00     0.166 HD
HETATM   38  C   UNK N   1      31.909   7.052  10.129  0.00  0.00     0.142 C 
HETATM   39  N   UNK N   1      31.662   5.731  10.298  0.00  0.00    -0.380 N 
ATOM     40  HN  UNK N   1      31.043   5.423  11.049  1.00  0.00     0.160 HD
HETATM   41  C   UNK N   1      32.232   4.809   9.473  0.00  0.00     0.038 C 
HETATM   42  C   UNK N   1      33.020   5.270   8.412  0.00  0.00     0.024 C 
HETATM   43  C   UNK N   1      32.857   6.601   8.029  0.00  0.00    -0.015 C 
HETATM   44  C   UNK N   1      32.064   7.475   8.827  0.00  0.00     0.070 C 
HETATM   45  C   UNK N   1      30.905   7.877   8.054  0.00  0.00     0.158 A 
HETATM   46  S   UNK N   1      29.781   6.682   7.758  0.00  0.00    -0.113 SA
HETATM   47  C   UNK N   1      29.888   6.661   6.111  0.00  0.00     0.082 A 
HETATM   48  C   UNK N   1      30.758   7.724   5.804  0.00  0.00     0.103 A 
HETATM   49  N   UNK N   1      31.264   8.389   6.872  0.00  0.00    -0.371 N 
ATOM     50  HN  UNK N   1      31.864   9.209   6.782  1.00  0.00     0.161 HD
HETATM   51  C   UNK N   1      31.579   7.782   4.594  0.00  0.00     0.269 C 
HETATM   52  O   UNK N   1      32.600   7.113   4.553  0.00  0.00    -0.266 OA
HETATM   53  N   UNK N   1      31.353   8.714   3.646  0.00  0.00    -0.345 N 
HETATM   54  C   UNK N   1      30.061   9.322   3.579  0.00  0.00     0.150 C 
HETATM   55  H   UNK N   1      32.156  13.640   4.663  0.00  0.00     0.163 HD
HETATM   56  H   UNK N   1      35.942  16.586  10.759  0.00  0.00     0.163 HD
HETATM   57  H   UNK N   1      34.761  14.826  11.808  0.00  0.00     0.163 HD
HETATM   58  H   UNK N   1      32.063   8.970   3.014  0.00  0.00     0.163 HD
ENDROOT
BRANCH  41  59
HETATM   59  C   UNK N   1      32.593   3.595  10.132  0.00  0.00     0.199 A 
HETATM   60  S   UNK N   1      32.155   2.091   9.598  0.00  0.00    -0.106 SA
HETATM   61  C   UNK N   1      31.761   1.414  11.066  0.00  0.00     0.096 A 
HETATM   62  C   UNK N   1      31.940   2.467  11.985  0.00  0.00     0.115 A 
HETATM   63  N   UNK N   1      32.372   3.634  11.451  0.00  0.00    -0.357 N 
ATOM     64  HN  UNK N   1      32.519   4.475  12.011  1.00  0.00     0.162 HD
BRANCH  62  65
HETATM   65  N   UNK N   1      31.284   2.489  13.232  0.00  0.00    -0.279 N 
HETATM   66  C   UNK N   1      31.761   1.804  14.291  0.00  0.00     0.368 C 
HETATM   67  O   UNK N   1      32.839   1.230  14.213  0.00  0.00    -0.238 OA
BRANCH  66  68
HETATM   68  O   UNK N   1      31.047   1.738  15.439  0.00  0.00    -0.298 OA
BRANCH  68  69
HETATM   69  C   UNK N   1      30.448   0.560  15.892  0.00  0.00     0.133 C 
HETATM   70  C   UNK N   1      28.946   0.663  15.747  0.00  0.00     0.033 C 
HETATM   71  C   UNK N   1      28.456   1.858  16.559  0.00  0.00     0.018 C 
HETATM   72  C   UNK N   1      28.879   1.820  18.043  0.00  0.00     0.084 C 
HETATM   73  C   UNK N   1      30.275   1.244  18.349  0.00  0.00     0.018 C 
HETATM   74  C   UNK N   1      30.750   0.179  17.356  0.00  0.00     0.033 C 
BRANCH  72  75
HETATM   75  C   UNK N   1      27.846   1.288  18.971  0.00  0.00     0.143 C 
HETATM   76  O   UNK N   1      27.262   2.055  19.719  0.00  0.00    -0.650 OA
BRANCH  75  77
HETATM   77  O   UNK N   1      27.519  -0.017  18.963  0.00  0.00    -0.776 OA
HETATM   78  H   UNK N   1      26.834  -0.333  19.517  0.00  0.00     0.167 HD
ENDBRANCH  75  77
ENDBRANCH  72  75
ENDBRANCH  68  69
ENDBRANCH  66  68
BRANCH  65  79
HETATM   79  C   UNK N   1      30.143   3.373  13.383  0.00  0.00     0.136 C 
BRANCH  79  80
HETATM   80  C   UNK N   1      28.861   2.849  12.750  0.00  0.00     0.021 C 
BRANCH  80  81
HETATM   81  C   UNK N   1      27.701   3.765  13.121  0.00  0.00     0.012 C 
BRANCH  81  82
HETATM   82  C   UNK N   1      26.509   2.956  13.600  0.00  0.00     0.110 C 
BRANCH  82  83
HETATM   83  C   UNK N   1      25.504   2.755  12.514  0.00  0.00     0.139 C 
HETATM   84  O   UNK N   1      24.854   1.723  12.459  0.00  0.00    -0.650 OA
BRANCH  83  85
HETATM   85  O   UNK N   1      25.280   3.735  11.619  0.00  0.00    -0.776 OA
HETATM   86  H   UNK N   1      24.916   3.661  10.759  0.00  0.00     0.167 HD
ENDBRANCH  83  85
ENDBRANCH  82  83
ENDBRANCH  81  82
ENDBRANCH  80  81
ENDBRANCH  79  80
ENDBRANCH  65  79
ENDBRANCH  62  65
ENDBRANCH  41  59
BRANCH  25  87
HETATM   87  C   UNK N   1      36.705  13.620  14.079  0.00  0.00     0.180 C 
BRANCH  87  88
HETATM   88  O   UNK N   1      37.336  12.380  14.215  0.00  0.00    -0.388 OA
HETATM   89  H   UNK N   1      38.265  12.250  14.458  0.00  0.00     0.210 HD
ENDBRANCH  87  88
BRANCH  87  90
HETATM   90  C   UNK N   1      36.584  14.217  15.436  0.00  0.00    -0.027 A 
HETATM   91  C   UNK N   1      35.788  13.644  16.437  0.00  0.00     0.010 A 
HETATM   92  C   UNK N   1      35.725  14.231  17.700  0.00  0.00     0.001 A 
HETATM   93  C   UNK N   1      36.464  15.387  17.969  0.00  0.00     0.000 A 
HETATM   94  C   UNK N   1      37.261  15.957  16.974  0.00  0.00     0.001 A 
HETATM   95  C   UNK N   1      37.319  15.373  15.711  0.00  0.00     0.010 A 
ENDBRANCH  87  90
ENDBRANCH  25  87
BRANCH  54  96
HETATM   96  C   UNK N   1      29.236   8.385   2.703  0.00  0.00     0.134 C 
BRANCH  96  97
HETATM   97  C   UNK N   1      27.918   8.064   3.323  0.00  0.00     0.219 C 
HETATM   98  O   UNK N   1      27.597   8.627   4.356  0.00  0.00    -0.274 OA
HETATM   99  N   UNK N   1      27.063   7.185   2.746  0.00  0.00    -0.365 N 
HETATM  100  C   UNK N   1      27.377   6.488   1.521  0.00  0.00     0.149 C 
HETATM  101  H   UNK N   1      26.195   7.014   3.178  0.00  0.00     0.161 HD
ENDBRANCH  96  97
ENDBRANCH  54  96
BRANCH  11 102
HETATM  102  C   UNK N   1      33.026  16.548   4.222  0.00  0.00     0.007 C 
HETATM  103  C   UNK N   1      32.377  17.861   3.806  0.00  0.00     0.012 C 
HETATM  104  C   UNK N   1      33.472  15.856   2.949  0.00  0.00     0.012 C 
ENDBRANCH  11 102
BRANCH  14 105
HETATM  105  C   UNK N   1      34.156  13.082   9.247  0.00  0.00     0.215 C 
BRANCH 105 106
HETATM  106  O   UNK N   1      33.908  11.810   8.720  0.00  0.00    -0.391 OA
HETATM  107  C   UNK N   1      35.172  11.243   8.543  0.00  0.00     0.201 C 
ENDBRANCH 105 106
ENDBRANCH  14 105
TORSDOF 20
ENDMDL
MODEL 8
REMARK VINA RESULT:      -7.6      8.026     14.476
REMARK  20 active torsions:
REMARK  status: ('A' for Active; 'I' for Inactive)
REMARK    1  A    between atoms: C_11  and  C_97 
REMARK    2  A    between atoms: C_14  and  C_94 
REMARK    3  A    between atoms: C_25  and  C_86 
REMARK    4  A    between atoms: C_41  and  C_60 
REMARK    5  A    between atoms: C_54  and  C_55 
REMARK    6  A    between atoms: C_55  and  C_56 
REMARK       I    between atoms: C_56  and  N_58 
REMARK    7  A    between atoms: C_63  and  N_66 
REMARK       I    between atoms: N_66  and  C_67 
REMARK    8  A    between atoms: N_66  and  C_79 
REMARK    9  A    between atoms: C_67  and  O_69 
REMARK   10  A    between atoms: C_70  and  O_69 
REMARK   11  A    between atoms: C_73  and  C_76 
REMARK   12  A    between atoms: C_76  and  O_78 
REMARK   13  A    between atoms: C_79  and  C_80 
REMARK   14  A    between atoms: C_80  and  C_81 
REMARK   15  A    between atoms: C_81  and  C_82 
REMARK   16  A    between atoms: C_82  and  C_83 
REMARK   17  A    between atoms: C_83  and  O_85 
REMARK   18  A    between atoms: C_86  and  O_87 
REMARK   19  A    between atoms: C_86  and  C_88 
REMARK   20  A    between atoms: C_94  and  O_95 
ROOT
HETATM    1  C   UNK N   1      17.618  11.580   2.435  0.00  0.00     0.059 C 
HETATM    2  C   UNK N   1      18.985  11.975   2.866  0.00  0.00     0.013 A 
HETATM    3  S   UNK N   1      19.327  13.270   3.802  0.00  0.00    -0.077 SA
HETATM    4  C   UNK N   1      20.972  13.117   3.814  0.00  0.00     0.075 A 
HETATM    5  N   UNK N   1      21.328  12.020   3.076  0.00  0.00    -0.347 N 
ATOM      6  HN  UNK N   1      22.290  11.714   2.933  1.00  0.00     0.166 HD
HETATM    7  C   UNK N   1      20.215  11.373   2.544  0.00  0.00     0.114 A 
HETATM    8  C   UNK N   1      20.312  10.195   1.645  0.00  0.00     0.269 C 
HETATM    9  O   UNK N   1      19.331   9.828   1.016  0.00  0.00    -0.266 OA
HETATM   10  N   UNK N   1      21.495   9.566   1.480  0.00  0.00    -0.345 N 
HETATM   11  C   UNK N   1      21.732   8.518   0.500  0.00  0.00     0.145 C 
HETATM   12  C   UNK N   1      23.206   8.522   0.221  0.00  0.00     0.075 A 
HETATM   13  S   UNK N   1      24.306   9.518   0.937  0.00  0.00    -0.074 SA
HETATM   14  C   UNK N   1      25.656   8.912   0.229  0.00  0.00     0.040 A 
HETATM   15  C   UNK N   1      25.219   7.848  -0.610  0.00  0.00     0.116 A 
HETATM   16  N   UNK N   1      23.849   7.672  -0.618  0.00  0.00    -0.347 N 
ATOM     17  HN  UNK N   1      23.371   6.978  -1.193  1.00  0.00     0.166 HD
HETATM   18  C   UNK N   1      26.059   6.944  -1.442  0.00  0.00     0.269 C 
HETATM   19  O   UNK N   1      25.552   6.448  -2.436  0.00  0.00    -0.266 OA
HETATM   20  N   UNK N   1      27.314   6.549  -1.104  0.00  0.00    -0.347 N 
HETATM   21  C   UNK N   1      27.982   6.847   0.142  0.00  0.00     0.225 C 
HETATM   22  C   UNK N   1      29.247   7.597  -0.125  0.00  0.00     0.236 C 
HETATM   23  O   UNK N   1      30.130   7.614   0.718  0.00  0.00    -0.272 OA
HETATM   24  N   UNK N   1      29.396   8.240  -1.312  0.00  0.00    -0.346 N 
HETATM   25  C   UNK N   1      30.583   8.945  -1.751  0.00  0.00     0.175 C 
HETATM   26  C   UNK N   1      30.856  10.184  -0.979  0.00  0.00     0.077 A 
HETATM   27  S   UNK N   1      31.989  11.285  -1.436  0.00  0.00    -0.084 SA
HETATM   28  C   UNK N   1      31.954  12.215  -0.109  0.00  0.00     0.084 A 
HETATM   29  C   UNK N   1      31.001  11.626   0.726  0.00  0.00     0.073 A 
HETATM   30  N   UNK N   1      30.357  10.516   0.235  0.00  0.00    -0.349 N 
ATOM     31  HN  UNK N   1      29.610  10.014   0.716  1.00  0.00     0.166 HD
HETATM   32  C   UNK N   1      30.597  12.360   1.880  0.00  0.00     0.102 A 
HETATM   33  S   UNK N   1      31.738  13.071   2.835  0.00  0.00    -0.080 SA
HETATM   34  C   UNK N   1      30.955  14.472   3.136  0.00  0.00     0.079 A 
HETATM   35  C   UNK N   1      29.753  14.390   2.411  0.00  0.00     0.040 A 
HETATM   36  N   UNK N   1      29.560  13.213   1.737  0.00  0.00    -0.350 N 
ATOM     37  HN  UNK N   1      28.726  13.004   1.188  1.00  0.00     0.166 HD
HETATM   38  C   UNK N   1      28.707  15.438   2.471  0.00  0.00     0.142 C 
HETATM   39  N   UNK N   1      29.193  16.565   3.046  0.00  0.00    -0.380 N 
ATOM     40  HN  UNK N   1      29.548  17.320   2.459  1.00  0.00     0.160 HD
HETATM   41  C   UNK N   1      29.211  16.697   4.401  0.00  0.00     0.038 C 
HETATM   42  C   UNK N   1      28.654  15.671   5.173  0.00  0.00     0.024 C 
HETATM   43  C   UNK N   1      27.784  14.791   4.531  0.00  0.00    -0.015 C 
HETATM   44  C   UNK N   1      27.644  14.843   3.114  0.00  0.00     0.070 C 
HETATM   45  C   UNK N   1      26.288  15.254   2.801  0.00  0.00     0.158 A 
HETATM   46  S   UNK N   1      25.906  16.833   3.171  0.00  0.00    -0.113 SA
HETATM   47  C   UNK N   1      24.718  16.535   4.278  0.00  0.00     0.082 A 
HETATM   48  C   UNK N   1      24.556  15.137   4.247  0.00  0.00     0.103 A 
HETATM   49  N   UNK N   1      25.391  14.472   3.412  0.00  0.00    -0.371 N 
ATOM     50  HN  UNK N   1      25.340  13.464   3.262  1.00  0.00     0.161 HD
HETATM   51  C   UNK N   1      24.053  14.350   5.374  0.00  0.00     0.269 C 
HETATM   52  O   UNK N   1      24.814  14.105   6.297  0.00  0.00    -0.266 OA
HETATM   53  N   UNK N   1      22.866  13.712   5.300  0.00  0.00    -0.345 N 
HETATM   54  C   UNK N   1      21.901  14.173   4.353  0.00  0.00     0.150 C 
HETATM   55  H   UNK N   1      22.245   9.834   2.058  0.00  0.00     0.163 HD
HETATM   56  H   UNK N   1      27.810   6.013  -1.763  0.00  0.00     0.163 HD
HETATM   57  H   UNK N   1      28.629   8.226  -1.929  0.00  0.00     0.163 HD
HETATM   58  H   UNK N   1      22.670  12.947   5.887  0.00  0.00     0.163 HD
ENDROOT
BRANCH  41  59
HETATM   59  C   UNK N   1      30.354  17.397   4.893  0.00  0.00     0.199 A 
HETATM   60  S   UNK N   1      31.740  17.629   4.020  0.00  0.00    -0.106 SA
HETATM   61  C   UNK N   1      32.845  17.329   5.228  0.00  0.00     0.096 A 
HETATM   62  C   UNK N   1      32.050  16.979   6.337  0.00  0.00     0.115 A 
HETATM   63  N   UNK N   1      30.712  17.008   6.123  0.00  0.00    -0.357 N 
ATOM     64  HN  UNK N   1      30.033  16.755   6.842  1.00  0.00     0.162 HD
BRANCH  62  65
HETATM   65  N   UNK N   1      32.552  16.205   7.403  0.00  0.00    -0.279 N 
HETATM   66  C   UNK N   1      33.362  16.739   8.339  0.00  0.00     0.368 C 
HETATM   67  O   UNK N   1      33.592  17.941   8.336  0.00  0.00    -0.238 OA
BRANCH  66  68
HETATM   68  O   UNK N   1      33.934  15.949   9.277  0.00  0.00    -0.298 OA
BRANCH  68  69
HETATM   69  C   UNK N   1      35.315  15.888   9.478  0.00  0.00     0.133 C 
HETATM   70  C   UNK N   1      35.789  14.459   9.326  0.00  0.00     0.033 C 
HETATM   71  C   UNK N   1      35.061  13.590  10.347  0.00  0.00     0.018 C 
HETATM   72  C   UNK N   1      35.208  14.082  11.802  0.00  0.00     0.084 C 
HETATM   73  C   UNK N   1      35.232  15.607  12.018  0.00  0.00     0.018 C 
HETATM   74  C   UNK N   1      35.814  16.402  10.844  0.00  0.00     0.033 C 
BRANCH  72  75
HETATM   75  C   UNK N   1      36.270  13.397  12.587  0.00  0.00     0.143 C 
HETATM   76  O   UNK N   1      36.551  12.237  12.330  0.00  0.00    -0.650 OA
BRANCH  75  77
HETATM   77  O   UNK N   1      36.952  14.054  13.543  0.00  0.00    -0.776 OA
HETATM   78  H   UNK N   1      37.034  13.684  14.399  0.00  0.00     0.167 HD
ENDBRANCH  75  77
ENDBRANCH  72  75
ENDBRANCH  68  69
ENDBRANCH  66  68
BRANCH  65  79
HETATM   79  C   UNK N   1      32.073  14.842   7.537  0.00  0.00     0.136 C 
BRANCH  79  80
HETATM   80  C   UNK N   1      32.527  13.911   6.420  0.00  0.00     0.021 C 
BRANCH  80  81
HETATM   81  C   UNK N   1      33.771  13.153   6.867  0.00  0.00     0.012 C 
BRANCH  81  82
HETATM   82  C   UNK N   1      34.775  13.051   5.733  0.00  0.00     0.110 C 
BRANCH  82  83
HETATM   83  C   UNK N   1      35.077  14.389   5.140  0.00  0.00     0.139 C 
HETATM   84  O   UNK N   1      34.751  14.641   3.991  0.00  0.00    -0.650 OA
BRANCH  83  85
HETATM   85  O   UNK N   1      35.669  15.336   5.890  0.00  0.00    -0.776 OA
HETATM   86  H   UNK N   1      35.274  16.078   6.303  0.00  0.00     0.167 HD
ENDBRANCH  83  85
ENDBRANCH  82  83
ENDBRANCH  81  82
ENDBRANCH  80  81
ENDBRANCH  79  80
ENDBRANCH  65  79
ENDBRANCH  62  65
ENDBRANCH  41  59
BRANCH  25  87
HETATM   87  C   UNK N   1      31.839   8.053  -1.700  0.00  0.00     0.180 C 
BRANCH  87  88
HETATM   88  O   UNK N   1      32.621   8.350  -0.579  0.00  0.00    -0.388 OA
HETATM   89  H   UNK N   1      33.581   8.485  -0.588  0.00  0.00     0.210 HD
ENDBRANCH  87  88
BRANCH  87  90
HETATM   90  C   UNK N   1      32.723   8.111  -2.895  0.00  0.00    -0.027 A 
HETATM   91  C   UNK N   1      32.247   8.483  -4.160  0.00  0.00     0.010 A 
HETATM   92  C   UNK N   1      33.121   8.541  -5.245  0.00  0.00     0.001 A 
HETATM   93  C   UNK N   1      34.474   8.238  -5.067  0.00  0.00     0.000 A 
HETATM   94  C   UNK N   1      34.951   7.872  -3.807  0.00  0.00     0.001 A 
HETATM   95  C   UNK N   1      34.076   7.808  -2.725  0.00  0.00     0.010 A 
ENDBRANCH  87  90
ENDBRANCH  25  87
BRANCH  54  96
HETATM   96  C   UNK N   1      21.141  15.279   5.077  0.00  0.00     0.134 C 
BRANCH  96  97
HETATM   97  C   UNK N   1      21.128  16.548   4.294  0.00  0.00     0.219 C 
HETATM   98  O   UNK N   1      20.943  16.499   3.089  0.00  0.00    -0.274 OA
HETATM   99  N   UNK N   1      21.286  17.751   4.898  0.00  0.00    -0.365 N 
HETATM  100  C   UNK N   1      21.502  17.883   6.319  0.00  0.00     0.149 C 
HETATM  101  H   UNK N   1      21.253  18.566   4.346  0.00  0.00     0.161 HD
ENDBRANCH  96  97
ENDBRANCH  54  96
BRANCH  11 102
HETATM  102  C   UNK N   1      21.297   7.118   0.994  0.00  0.00     0.007 C 
HETATM  103  C   UNK N   1      20.005   6.687   0.315  0.00  0.00     0.012 C 
HETATM  104  C   UNK N   1      21.048   7.059   2.488  0.00  0.00     0.012 C 
ENDBRANCH  11 102
BRANCH  14 105
HETATM  105  C   UNK N   1      27.005   9.502   0.458  0.00  0.00     0.215 C 
BRANCH 105 106
HETATM  106  O   UNK N   1      26.966  10.409   1.522  0.00  0.00    -0.391 OA
HETATM  107  C   UNK N   1      27.715   9.806   2.534  0.00  0.00     0.201 C 
ENDBRANCH 105 106
ENDBRANCH  14 105
TORSDOF 20
ENDMDL
MODEL 9
REMARK VINA RESULT:      -7.6      7.798     14.353
REMARK  20 active torsions:
REMARK  status: ('A' for Active; 'I' for Inactive)
REMARK    1  A    between atoms: C_11  and  C_97 
REMARK    2  A    between atoms: C_14  and  C_94 
REMARK    3  A    between atoms: C_25  and  C_86 
REMARK    4  A    between atoms: C_41  and  C_60 
REMARK    5  A    between atoms: C_54  and  C_55 
REMARK    6  A    between atoms: C_55  and  C_56 
REMARK       I    between atoms: C_56  and  N_58 
REMARK    7  A    between atoms: C_63  and  N_66 
REMARK       I    between atoms: N_66  and  C_67 
REMARK    8  A    between atoms: N_66  and  C_79 
REMARK    9  A    between atoms: C_67  and  O_69 
REMARK   10  A    between atoms: C_70  and  O_69 
REMARK   11  A    between atoms: C_73  and  C_76 
REMARK   12  A    between atoms: C_76  and  O_78 
REMARK   13  A    between atoms: C_79  and  C_80 
REMARK   14  A    between atoms: C_80  and  C_81 
REMARK   15  A    between atoms: C_81  and  C_82 
REMARK   16  A    between atoms: C_82  and  C_83 
REMARK   17  A    between atoms: C_83  and  O_85 
REMARK   18  A    between atoms: C_86  and  O_87 
REMARK   19  A    between atoms: C_86  and  C_88 
REMARK   20  A    between atoms: C_94  and  O_95 
ROOT
HETATM    1  C   UNK N   1      34.585  17.676   8.280  0.00  0.00     0.059 C 
HETATM    2  C   UNK N   1      33.969  16.427   7.760  0.00  0.00     0.013 A 
HETATM    3  S   UNK N   1      34.793  15.060   7.410  0.00  0.00    -0.077 SA
HETATM    4  C   UNK N   1      33.522  14.162   6.854  0.00  0.00     0.075 A 
HETATM    5  N   UNK N   1      32.377  14.909   6.926  0.00  0.00    -0.347 N 
ATOM      6  HN  UNK N   1      31.457  14.575   6.640  1.00  0.00     0.166 HD
HETATM    7  C   UNK N   1      32.622  16.181   7.438  0.00  0.00     0.114 A 
HETATM    8  C   UNK N   1      31.572  17.224   7.561  0.00  0.00     0.269 C 
HETATM    9  O   UNK N   1      31.890  18.384   7.777  0.00  0.00    -0.266 OA
HETATM   10  N   UNK N   1      30.274  16.902   7.378  0.00  0.00    -0.345 N 
HETATM   11  C   UNK N   1      29.194  17.873   7.309  0.00  0.00     0.145 C 
HETATM   12  C   UNK N   1      28.088  17.224   6.530  0.00  0.00     0.075 A 
HETATM   13  S   UNK N   1      28.125  15.694   5.921  0.00  0.00    -0.074 SA
HETATM   14  C   UNK N   1      26.608  15.659   5.300  0.00  0.00     0.040 A 
HETATM   15  C   UNK N   1      26.027  16.923   5.605  0.00  0.00     0.116 A 
HETATM   16  N   UNK N   1      26.882  17.784   6.264  0.00  0.00    -0.347 N 
ATOM     17  HN  UNK N   1      26.634  18.740   6.522  1.00  0.00     0.166 HD
HETATM   18  C   UNK N   1      24.645  17.385   5.298  0.00  0.00     0.269 C 
HETATM   19  O   UNK N   1      24.461  18.585   5.166  0.00  0.00    -0.266 OA
HETATM   20  N   UNK N   1      23.560  16.568   5.267  0.00  0.00    -0.347 N 
HETATM   21  C   UNK N   1      23.552  15.169   5.625  0.00  0.00     0.225 C 
HETATM   22  C   UNK N   1      23.096  14.348   4.462  0.00  0.00     0.236 C 
HETATM   23  O   UNK N   1      22.660  13.223   4.649  0.00  0.00    -0.272 OA
HETATM   24  N   UNK N   1      23.166  14.876   3.213  0.00  0.00    -0.346 N 
HETATM   25  C   UNK N   1      22.699  14.242   1.997  0.00  0.00     0.175 C 
HETATM   26  C   UNK N   1      23.499  13.054   1.602  0.00  0.00     0.077 A 
HETATM   27  S   UNK N   1      23.332  12.314   0.144  0.00  0.00    -0.084 SA
HETATM   28  C   UNK N   1      24.263  11.020   0.435  0.00  0.00     0.084 A 
HETATM   29  C   UNK N   1      24.726  11.188   1.743  0.00  0.00     0.073 A 
HETATM   30  N   UNK N   1      24.337  12.337   2.388  0.00  0.00    -0.349 N 
ATOM     31  HN  UNK N   1      24.636  12.610   3.325  1.00  0.00     0.166 HD
HETATM   32  C   UNK N   1      25.752  10.306   2.194  0.00  0.00     0.102 A 
HETATM   33  S   UNK N   1      25.621   8.688   1.908  0.00  0.00    -0.080 SA
HETATM   34  C   UNK N   1      27.180   8.388   1.526  0.00  0.00     0.079 A 
HETATM   35  C   UNK N   1      27.825   9.636   1.586  0.00  0.00     0.040 A 
HETATM   36  N   UNK N   1      27.030  10.683   1.973  0.00  0.00    -0.350 N 
ATOM     37  HN  UNK N   1      27.366  11.640   2.082  1.00  0.00     0.166 HD
HETATM   38  C   UNK N   1      29.283   9.796   1.377  0.00  0.00     0.142 C 
HETATM   39  N   UNK N   1      29.815   8.672   0.840  0.00  0.00    -0.380 N 
ATOM     40  HN  UNK N   1      29.942   8.604  -0.170  1.00  0.00     0.160 HD
HETATM   41  C   UNK N   1      30.181   7.630   1.637  0.00  0.00     0.038 C 
HETATM   42  C   UNK N   1      30.056   7.783   3.023  0.00  0.00     0.024 C 
HETATM   43  C   UNK N   1      29.949   9.084   3.513  0.00  0.00    -0.015 C 
HETATM   44  C   UNK N   1      29.780  10.169   2.607  0.00  0.00     0.070 C 
HETATM   45  C   UNK N   1      30.952  11.020   2.685  0.00  0.00     0.158 A 
HETATM   46  S   UNK N   1      32.360  10.371   2.074  0.00  0.00    -0.113 SA
HETATM   47  C   UNK N   1      33.243  10.368   3.469  0.00  0.00     0.082 A 
HETATM   48  C   UNK N   1      32.417  11.016   4.406  0.00  0.00     0.103 A 
HETATM   49  N   UNK N   1      31.198  11.393   3.946  0.00  0.00    -0.371 N 
ATOM     50  HN  UNK N   1      30.528  11.914   4.511  1.00  0.00     0.161 HD
HETATM   51  C   UNK N   1      32.490  10.790   5.850  0.00  0.00     0.269 C 
HETATM   52  O   UNK N   1      31.982   9.778   6.306  0.00  0.00    -0.266 OA
HETATM   53  N   UNK N   1      32.891  11.770   6.686  0.00  0.00    -0.345 N 
HETATM   54  C   UNK N   1      33.684  12.836   6.159  0.00  0.00     0.150 C 
HETATM   55  H   UNK N   1      30.044  15.949   7.285  0.00  0.00     0.163 HD
HETATM   56  H   UNK N   1      22.707  16.963   4.977  0.00  0.00     0.163 HD
HETATM   57  H   UNK N   1      23.570  15.769   3.126  0.00  0.00     0.163 HD
HETATM   58  H   UNK N   1      32.645  11.749   7.639  0.00  0.00     0.163 HD
ENDROOT
BRANCH  41  59
HETATM   59  C   UNK N   1      29.942   6.350   1.054  0.00  0.00     0.199 A 
HETATM   60  S   UNK N   1      31.126   5.230   0.768  0.00  0.00    -0.106 SA
HETATM   61  C   UNK N   1      30.628   4.723  -0.737  0.00  0.00     0.096 A 
HETATM   62  C   UNK N   1      29.511   5.533  -1.016  0.00  0.00     0.115 A 
HETATM   63  N   UNK N   1      29.175   6.412  -0.041  0.00  0.00    -0.357 N 
ATOM     64  HN  UNK N   1      28.398   7.067  -0.134  1.00  0.00     0.162 HD
BRANCH  62  65
HETATM   65  N   UNK N   1      29.078   5.780  -2.335  0.00  0.00    -0.279 N 
HETATM   66  C   UNK N   1      27.768   5.845  -2.645  0.00  0.00     0.368 C 
HETATM   67  O   UNK N   1      26.926   5.794  -1.757  0.00  0.00    -0.238 OA
BRANCH  66  68
HETATM   68  O   UNK N   1      27.376   5.955  -3.935  0.00  0.00    -0.298 OA
BRANCH  68  69
HETATM   69  C   UNK N   1      26.040   6.106  -4.312  0.00  0.00     0.133 C 
HETATM   70  C   UNK N   1      25.837   5.546  -5.703  0.00  0.00     0.033 C 
HETATM   71  C   UNK N   1      26.752   6.290  -6.669  0.00  0.00     0.018 C 
HETATM   72  C   UNK N   1      26.570   7.823  -6.645  0.00  0.00     0.084 C 
HETATM   73  C   UNK N   1      26.269   8.462  -5.277  0.00  0.00     0.018 C 
HETATM   74  C   UNK N   1      25.505   7.553  -4.309  0.00  0.00     0.033 C 
BRANCH  72  75
HETATM   75  C   UNK N   1      25.686   8.362  -7.713  0.00  0.00     0.143 C 
HETATM   76  O   UNK N   1      24.496   8.513  -7.485  0.00  0.00    -0.650 OA
BRANCH  75  77
HETATM   77  O   UNK N   1      26.190   8.726  -8.906  0.00  0.00    -0.776 OA
HETATM   78  H   UNK N   1      25.934   8.269  -9.683  0.00  0.00     0.167 HD
ENDBRANCH  75  77
ENDBRANCH  72  75
ENDBRANCH  68  69
ENDBRANCH  66  68
BRANCH  65  79
HETATM   79  C   UNK N   1      30.085   6.087  -3.333  0.00  0.00     0.136 C 
BRANCH  79  80
HETATM   80  C   UNK N   1      30.839   7.386  -3.077  0.00  0.00     0.021 C 
BRANCH  80  81
HETATM   81  C   UNK N   1      30.231   8.500  -3.919  0.00  0.00     0.012 C 
BRANCH  81  82
HETATM   82  C   UNK N   1      31.290   9.510  -4.321  0.00  0.00     0.110 C 
BRANCH  82  83
HETATM   83  C   UNK N   1      30.964  10.881  -3.827  0.00  0.00     0.139 C 
HETATM   84  O   UNK N   1      31.858  11.675  -3.578  0.00  0.00    -0.650 OA
BRANCH  83  85
HETATM   85  O   UNK N   1      29.679  11.259  -3.699  0.00  0.00    -0.776 OA
HETATM   86  H   UNK N   1      28.940  10.972  -4.197  0.00  0.00     0.167 HD
ENDBRANCH  83  85
ENDBRANCH  82  83
ENDBRANCH  81  82
ENDBRANCH  80  81
ENDBRANCH  79  80
ENDBRANCH  65  79
ENDBRANCH  62  65
ENDBRANCH  41  59
BRANCH  25  87
HETATM   87  C   UNK N   1      21.219  13.821   2.094  0.00  0.00     0.180 C 
BRANCH  87  88
HETATM   88  O   UNK N   1      21.070  12.452   1.854  0.00  0.00    -0.388 OA
HETATM   89  H   UNK N   1      20.319  11.912   2.145  0.00  0.00     0.210 HD
ENDBRANCH  87  88
BRANCH  87  90
HETATM   90  C   UNK N   1      20.280  14.543   1.193  0.00  0.00    -0.027 A 
HETATM   91  C   UNK N   1      19.152  13.923   0.637  0.00  0.00     0.010 A 
HETATM   92  C   UNK N   1      18.293  14.650  -0.186  0.00  0.00     0.001 A 
HETATM   93  C   UNK N   1      18.552  15.998  -0.447  0.00  0.00     0.000 A 
HETATM   94  C   UNK N   1      19.672  16.618   0.110  0.00  0.00     0.001 A 
HETATM   95  C   UNK N   1      20.535  15.890   0.927  0.00  0.00     0.010 A 
ENDBRANCH  87  90
ENDBRANCH  25  87
BRANCH  54  96
HETATM   96  C   UNK N   1      35.120  12.328   6.234  0.00  0.00     0.134 C 
BRANCH  96  97
HETATM   97  C   UNK N   1      35.931  12.785   5.069  0.00  0.00     0.219 C 
HETATM   98  O   UNK N   1      35.379  12.962   3.996  0.00  0.00    -0.274 OA
HETATM   99  N   UNK N   1      37.258  13.035   5.189  0.00  0.00    -0.365 N 
HETATM  100  C   UNK N   1      37.972  12.852   6.430  0.00  0.00     0.149 C 
HETATM  101  H   UNK N   1      37.753  13.352   4.400  0.00  0.00     0.161 HD
ENDBRANCH  96  97
ENDBRANCH  54  96
BRANCH  11 102
HETATM  102  C   UNK N   1      28.673  18.298   8.702  0.00  0.00     0.007 C 
HETATM  103  C   UNK N   1      29.752  19.046   9.473  0.00  0.00     0.012 C 
HETATM  104  C   UNK N   1      28.246  17.129   9.566  0.00  0.00     0.012 C 
ENDBRANCH  11 102
BRANCH  14 105
HETATM  105  C   UNK N   1      26.091  14.493   4.531  0.00  0.00     0.215 C 
BRANCH 105 106
HETATM  106  O   UNK N   1      26.938  14.205   3.455  0.00  0.00    -0.391 OA
HETATM  107  C   UNK N   1      26.608  15.146   2.477  0.00  0.00     0.201 C 
ENDBRANCH 105 106
ENDBRANCH  14 105
TORSDOF 20
ENDMDL
