MODEL 1
REMARK VINA RESULT:      -5.6      0.000      0.000
REMARK  4 active torsions:
REMARK  status: ('A' for Active; 'I' for Inactive)
REMARK    1  A    between atoms: C_2  and  C_3 
REMARK    2  A    between atoms: C_2  and  N_10 
REMARK    3  A    between atoms: C_15  and  C_16 
REMARK    4  A    between atoms: C_16  and  O_18 
ROOT
HETATM    1  N   UNK N   1      35.835  11.866  12.691  0.00  0.00    -0.328 N 
HETATM    2  C   UNK N   1      36.622  10.902  12.166  0.00  0.00     0.184 A 
HETATM    3  N   UNK N   1      37.657  11.422  11.476  0.00  0.00    -0.360 N 
ATOM      4  HN  UNK N   1      38.389  10.905  10.988  1.00  0.00     0.166 HD
HETATM    5  C   UNK N   1      37.530  12.757  11.561  0.00  0.00     0.125 A 
HETATM    6  C   UNK N   1      36.409  13.035  12.314  0.00  0.00     0.127 A 
ENDROOT
BRANCH   1   7
HETATM    7  C   UNK N   1      34.598  11.672  13.491  0.00  0.00     0.120 C 
HETATM    8  C   UNK N   1      33.885  10.409  13.020  0.00  0.00     0.038 C 
BRANCH   7   9
HETATM    9  C   UNK N   1      34.754  11.563  15.011  0.00  0.00    -0.035 A 
HETATM   10  C   UNK N   1      34.701  10.289  15.606  0.00  0.00     0.010 A 
HETATM   11  C   UNK N   1      34.909  10.131  16.981  0.00  0.00     0.019 A 
HETATM   12  C   UNK N   1      35.168  11.246  17.782  0.00  0.00     0.006 A 
HETATM   13  C   UNK N   1      35.205  12.517  17.211  0.00  0.00     0.019 A 
HETATM   14  I   UNK N   1      35.527  11.015  19.843  0.00  0.00    -0.045 I 
HETATM   15  C   UNK N   1      35.002  12.672  15.839  0.00  0.00     0.010 A 
ENDBRANCH   7   9
ENDBRANCH   1   7
BRANCH   6  16
HETATM   16  C   UNK N   1      35.957  14.417  12.615  0.00  0.00     0.311 C 
HETATM   17  O   UNK N   1      36.389  14.978  13.614  0.00  0.00    -0.258 OA
BRANCH  16  18
HETATM   18  O   UNK N   1      35.079  15.055  11.804  0.00  0.00    -0.321 OA
HETATM   19  C   UNK N   1      35.410  16.208  11.129  0.00  0.00     0.213 C 
ENDBRANCH  16  18
ENDBRANCH   6  16
TORSDOF 4
ENDMDL
MODEL 2
REMARK VINA RESULT:      -5.6      7.556      9.886
REMARK  4 active torsions:
REMARK  status: ('A' for Active; 'I' for Inactive)
REMARK    1  A    between atoms: C_2  and  C_3 
REMARK    2  A    between atoms: C_2  and  N_10 
REMARK    3  A    between atoms: C_15  and  C_16 
REMARK    4  A    between atoms: C_16  and  O_18 
ROOT
HETATM    1  N   UNK N   1      34.841  15.829   7.552  0.00  0.00    -0.328 N 
HETATM    2  C   UNK N   1      35.160  14.705   8.230  0.00  0.00     0.184 A 
HETATM    3  N   UNK N   1      35.220  14.922   9.560  0.00  0.00    -0.360 N 
ATOM      4  HN  UNK N   1      35.440  14.237  10.283  1.00  0.00     0.166 HD
HETATM    5  C   UNK N   1      34.932  16.223   9.739  0.00  0.00     0.125 A 
HETATM    6  C   UNK N   1      34.693  16.784   8.503  0.00  0.00     0.127 A 
ENDROOT
BRANCH   1   7
HETATM    7  C   UNK N   1      34.705  15.975   6.080  0.00  0.00     0.120 C 
HETATM    8  C   UNK N   1      35.261  14.731   5.395  0.00  0.00     0.038 C 
BRANCH   7   9
HETATM    9  C   UNK N   1      33.297  16.206   5.524  0.00  0.00    -0.035 A 
HETATM   10  C   UNK N   1      32.288  15.275   5.831  0.00  0.00     0.010 A 
HETATM   11  C   UNK N   1      30.970  15.480   5.406  0.00  0.00     0.019 A 
HETATM   12  C   UNK N   1      30.643  16.617   4.662  0.00  0.00     0.006 A 
HETATM   13  C   UNK N   1      31.635  17.539   4.334  0.00  0.00     0.019 A 
HETATM   14  I   UNK N   1      28.657  16.957   4.057  0.00  0.00    -0.045 I 
HETATM   15  C   UNK N   1      32.948  17.335   4.762  0.00  0.00     0.010 A 
ENDBRANCH   7   9
ENDBRANCH   1   7
BRANCH   6  16
HETATM   16  C   UNK N   1      34.344  18.215   8.316  0.00  0.00     0.311 C 
HETATM   17  O   UNK N   1      35.223  19.059   8.422  0.00  0.00    -0.258 OA
BRANCH  16  18
HETATM   18  O   UNK N   1      33.073  18.591   8.034  0.00  0.00    -0.321 OA
HETATM   19  C   UNK N   1      31.982  17.875   8.474  0.00  0.00     0.213 C 
ENDBRANCH  16  18
ENDBRANCH   6  16
TORSDOF 4
ENDMDL
MODEL 3
REMARK VINA RESULT:      -5.3     15.040     16.295
REMARK  4 active torsions:
REMARK  status: ('A' for Active; 'I' for Inactive)
REMARK    1  A    between atoms: C_2  and  C_3 
REMARK    2  A    between atoms: C_2  and  N_10 
REMARK    3  A    between atoms: C_15  and  C_16 
REMARK    4  A    between atoms: C_16  and  O_18 
ROOT
HETATM    1  N   UNK N   1      25.426  18.651   4.356  0.00  0.00    -0.328 N 
HETATM    2  C   UNK N   1      26.451  18.555   5.231  0.00  0.00     0.184 A 
HETATM    3  N   UNK N   1      27.181  19.688   5.273  0.00  0.00    -0.360 N 
ATOM      4  HN  UNK N   1      28.003  19.866   5.851  1.00  0.00     0.166 HD
HETATM    5  C   UNK N   1      26.607  20.535   4.401  0.00  0.00     0.125 A 
HETATM    6  C   UNK N   1      25.521  19.900   3.837  0.00  0.00     0.127 A 
ENDROOT
BRANCH   1   7
HETATM    7  C   UNK N   1      24.429  17.599   4.030  0.00  0.00     0.120 C 
HETATM    8  C   UNK N   1      25.155  16.340   3.570  0.00  0.00     0.038 C 
BRANCH   7   9
HETATM    9  C   UNK N   1      23.459  17.182   5.140  0.00  0.00    -0.035 A 
HETATM   10  C   UNK N   1      22.408  18.054   5.482  0.00  0.00     0.010 A 
HETATM   11  C   UNK N   1      21.456  17.687   6.439  0.00  0.00     0.019 A 
HETATM   12  C   UNK N   1      21.543  16.445   7.073  0.00  0.00     0.006 A 
HETATM   13  C   UNK N   1      22.589  15.578   6.760  0.00  0.00     0.019 A 
HETATM   14  I   UNK N   1      20.090  15.864   8.481  0.00  0.00    -0.045 I 
HETATM   15  C   UNK N   1      23.535  15.944   5.802  0.00  0.00     0.010 A 
ENDBRANCH   7   9
ENDBRANCH   1   7
BRANCH   6  16
HETATM   16  C   UNK N   1      24.646  20.539   2.822  0.00  0.00     0.311 C 
HETATM   17  O   UNK N   1      25.048  20.639   1.670  0.00  0.00    -0.258 OA
BRANCH  16  18
HETATM   18  O   UNK N   1      23.420  21.009   3.156  0.00  0.00    -0.321 OA
HETATM   19  C   UNK N   1      22.262  20.433   2.686  0.00  0.00     0.213 C 
ENDBRANCH  16  18
ENDBRANCH   6  16
TORSDOF 4
ENDMDL
MODEL 4
REMARK VINA RESULT:      -5.3      4.485      6.549
REMARK  4 active torsions:
REMARK  status: ('A' for Active; 'I' for Inactive)
REMARK    1  A    between atoms: C_2  and  C_3 
REMARK    2  A    between atoms: C_2  and  N_10 
REMARK    3  A    between atoms: C_15  and  C_16 
REMARK    4  A    between atoms: C_16  and  O_18 
ROOT
HETATM    1  N   UNK N   1      33.534  16.168   9.273  0.00  0.00    -0.328 N 
HETATM    2  C   UNK N   1      32.324  15.714   9.667  0.00  0.00     0.184 A 
HETATM    3  N   UNK N   1      31.321  16.442   9.138  0.00  0.00    -0.360 N 
ATOM      4  HN  UNK N   1      30.320  16.301   9.282  1.00  0.00     0.166 HD
HETATM    5  C   UNK N   1      31.903  17.389   8.382  0.00  0.00     0.125 A 
HETATM    6  C   UNK N   1      33.269  17.219   8.460  0.00  0.00     0.127 A 
ENDROOT
BRANCH   1   7
HETATM    7  C   UNK N   1      34.862  15.630   9.670  0.00  0.00     0.120 C 
HETATM    8  C   UNK N   1      35.505  16.570  10.683  0.00  0.00     0.038 C 
BRANCH   7   9
HETATM    9  C   UNK N   1      34.899  14.222  10.271  0.00  0.00    -0.035 A 
HETATM   10  C   UNK N   1      35.026  14.086  11.666  0.00  0.00     0.010 A 
HETATM   11  C   UNK N   1      34.994  12.823  12.269  0.00  0.00     0.019 A 
HETATM   12  C   UNK N   1      34.839  11.677  11.485  0.00  0.00     0.006 A 
HETATM   13  C   UNK N   1      34.729  11.794  10.100  0.00  0.00     0.019 A 
HETATM   14  I   UNK N   1      34.742   9.778  12.385  0.00  0.00    -0.045 I 
HETATM   15  C   UNK N   1      34.758  13.054   9.501  0.00  0.00     0.010 A 
ENDBRANCH   7   9
ENDBRANCH   1   7
BRANCH   6  16
HETATM   16  C   UNK N   1      34.236  18.093   7.748  0.00  0.00     0.311 C 
HETATM   17  O   UNK N   1      34.746  19.028   8.350  0.00  0.00    -0.258 OA
BRANCH  16  18
HETATM   18  O   UNK N   1      34.553  17.868   6.450  0.00  0.00    -0.321 OA
HETATM   19  C   UNK N   1      33.777  17.078   5.632  0.00  0.00     0.213 C 
ENDBRANCH  16  18
ENDBRANCH   6  16
TORSDOF 4
ENDMDL
MODEL 5
REMARK VINA RESULT:      -5.2      6.396      9.334
REMARK  4 active torsions:
REMARK  status: ('A' for Active; 'I' for Inactive)
REMARK    1  A    between atoms: C_2  and  C_3 
REMARK    2  A    between atoms: C_2  and  N_10 
REMARK    3  A    between atoms: C_15  and  C_16 
REMARK    4  A    between atoms: C_16  and  O_18 
ROOT
HETATM    1  N   UNK N   1      34.610  15.812   8.154  0.00  0.00    -0.328 N 
HETATM    2  C   UNK N   1      35.198  15.134   7.144  0.00  0.00     0.184 A 
HETATM    3  N   UNK N   1      36.140  14.281   7.595  0.00  0.00    -0.360 N 
ATOM      4  HN  UNK N   1      36.722  13.660   7.034  1.00  0.00     0.166 HD
HETATM    5  C   UNK N   1      36.156  14.416   8.932  0.00  0.00     0.125 A 
HETATM    6  C   UNK N   1      35.210  15.356   9.281  0.00  0.00     0.127 A 
ENDROOT
BRANCH   1   7
HETATM    7  C   UNK N   1      33.549  16.845   8.037  0.00  0.00     0.120 C 
HETATM    8  C   UNK N   1      34.194  18.220   7.905  0.00  0.00     0.038 C 
BRANCH   7   9
HETATM    9  C   UNK N   1      32.551  16.701   6.883  0.00  0.00    -0.035 A 
HETATM   10  C   UNK N   1      31.421  15.884   7.066  0.00  0.00     0.010 A 
HETATM   11  C   UNK N   1      30.445  15.777   6.068  0.00  0.00     0.019 A 
HETATM   12  C   UNK N   1      30.589  16.481   4.870  0.00  0.00     0.006 A 
HETATM   13  C   UNK N   1      31.713  17.280   4.666  0.00  0.00     0.019 A 
HETATM   14  I   UNK N   1      29.106  16.362   3.382  0.00  0.00    -0.045 I 
HETATM   15  C   UNK N   1      32.682  17.389   5.664  0.00  0.00     0.010 A 
ENDBRANCH   7   9
ENDBRANCH   1   7
BRANCH   6  16
HETATM   16  C   UNK N   1      34.950  15.762  10.685  0.00  0.00     0.311 C 
HETATM   17  O   UNK N   1      35.245  16.896  11.039  0.00  0.00    -0.258 OA
BRANCH  16  18
HETATM   18  O   UNK N   1      34.398  14.897  11.570  0.00  0.00    -0.321 OA
HETATM   19  C   UNK N   1      35.163  14.085  12.376  0.00  0.00     0.213 C 
ENDBRANCH  16  18
ENDBRANCH   6  16
TORSDOF 4
ENDMDL
MODEL 6
REMARK VINA RESULT:      -5.2     16.019     18.094
REMARK  4 active torsions:
REMARK  status: ('A' for Active; 'I' for Inactive)
REMARK    1  A    between atoms: C_2  and  C_3 
REMARK    2  A    between atoms: C_2  and  N_10 
REMARK    3  A    between atoms: C_15  and  C_16 
REMARK    4  A    between atoms: C_16  and  O_18 
ROOT
HETATM    1  N   UNK N   1      21.017  17.868   4.051  0.00  0.00    -0.328 N 
HETATM    2  C   UNK N   1      20.494  16.656   3.764  0.00  0.00     0.184 A 
HETATM    3  N   UNK N   1      19.664  16.708   2.703  0.00  0.00    -0.360 N 
ATOM      4  HN  UNK N   1      19.147  15.931   2.291  1.00  0.00     0.166 HD
HETATM    5  C   UNK N   1      19.655  17.990   2.298  0.00  0.00     0.125 A 
HETATM    6  C   UNK N   1      20.492  18.707   3.125  0.00  0.00     0.127 A 
ENDROOT
BRANCH   1   7
HETATM    7  C   UNK N   1      21.951  18.197   5.159  0.00  0.00     0.120 C 
HETATM    8  C   UNK N   1      21.583  17.377   6.391  0.00  0.00     0.038 C 
BRANCH   7   9
HETATM    9  C   UNK N   1      23.447  17.984   4.904  0.00  0.00    -0.035 A 
HETATM   10  C   UNK N   1      24.039  16.781   5.329  0.00  0.00     0.010 A 
HETATM   11  C   UNK N   1      25.385  16.510   5.056  0.00  0.00     0.019 A 
HETATM   12  C   UNK N   1      26.159  17.441   4.360  0.00  0.00     0.006 A 
HETATM   13  C   UNK N   1      25.592  18.646   3.948  0.00  0.00     0.019 A 
HETATM   14  I   UNK N   1      28.171  17.024   3.904  0.00  0.00    -0.045 I 
HETATM   15  C   UNK N   1      24.248  18.912   4.217  0.00  0.00     0.010 A 
ENDBRANCH   7   9
ENDBRANCH   1   7
BRANCH   6  16
HETATM   16  C   UNK N   1      20.727  20.165   2.973  0.00  0.00     0.311 C 
HETATM   17  O   UNK N   1      20.253  20.932   3.801  0.00  0.00    -0.258 OA
BRANCH  16  18
HETATM   18  O   UNK N   1      21.452  20.650   1.936  0.00  0.00    -0.321 OA
HETATM   19  C   UNK N   1      20.886  20.927   0.713  0.00  0.00     0.213 C 
ENDBRANCH  16  18
ENDBRANCH   6  16
TORSDOF 4
ENDMDL
MODEL 7
REMARK VINA RESULT:      -5.1      5.723      8.035
REMARK  4 active torsions:
REMARK  status: ('A' for Active; 'I' for Inactive)
REMARK    1  A    between atoms: C_2  and  C_3 
REMARK    2  A    between atoms: C_2  and  N_10 
REMARK    3  A    between atoms: C_15  and  C_16 
REMARK    4  A    between atoms: C_16  and  O_18 
ROOT
HETATM    1  N   UNK N   1      32.182  17.075   8.008  0.00  0.00    -0.328 N 
HETATM    2  C   UNK N   1      31.394  17.938   8.685  0.00  0.00     0.184 A 
HETATM    3  N   UNK N   1      30.100  17.821   8.326  0.00  0.00    -0.360 N 
ATOM      4  HN  UNK N   1      29.312  18.358   8.690  1.00  0.00     0.166 HD
HETATM    5  C   UNK N   1      30.057  16.855   7.392  0.00  0.00     0.125 A 
HETATM    6  C   UNK N   1      31.340  16.389   7.197  0.00  0.00     0.127 A 
ENDROOT
BRANCH   1   7
HETATM    7  C   UNK N   1      33.657  16.933   8.125  0.00  0.00     0.120 C 
HETATM    8  C   UNK N   1      34.305  18.310   8.045  0.00  0.00     0.038 C 
BRANCH   7   9
HETATM    9  C   UNK N   1      34.200  16.249   9.383  0.00  0.00    -0.035 A 
HETATM   10  C   UNK N   1      33.746  14.954   9.696  0.00  0.00     0.010 A 
HETATM   11  C   UNK N   1      34.265  14.260  10.795  0.00  0.00     0.019 A 
HETATM   12  C   UNK N   1      35.242  14.852  11.600  0.00  0.00     0.006 A 
HETATM   13  C   UNK N   1      35.688  16.141  11.314  0.00  0.00     0.019 A 
HETATM   14  I   UNK N   1      36.062  13.800  13.228  0.00  0.00    -0.045 I 
HETATM   15  C   UNK N   1      35.172  16.830  10.215  0.00  0.00     0.010 A 
ENDBRANCH   7   9
ENDBRANCH   1   7
BRANCH   6  16
HETATM   16  C   UNK N   1      31.672  15.313   6.230  0.00  0.00     0.311 C 
HETATM   17  O   UNK N   1      31.698  14.153   6.619  0.00  0.00    -0.258 OA
BRANCH  16  18
HETATM   18  O   UNK N   1      31.948  15.601   4.935  0.00  0.00    -0.321 OA
HETATM   19  C   UNK N   1      33.036  16.361   4.569  0.00  0.00     0.213 C 
ENDBRANCH  16  18
ENDBRANCH   6  16
TORSDOF 4
ENDMDL
MODEL 8
REMARK VINA RESULT:      -5.1      1.834      2.364
REMARK  4 active torsions:
REMARK  status: ('A' for Active; 'I' for Inactive)
REMARK    1  A    between atoms: C_2  and  C_3 
REMARK    2  A    between atoms: C_2  and  N_10 
REMARK    3  A    between atoms: C_15  and  C_16 
REMARK    4  A    between atoms: C_16  and  O_18 
ROOT
HETATM    1  N   UNK N   1      36.524  13.369  11.220  0.00  0.00    -0.328 N 
HETATM    2  C   UNK N   1      37.699  12.709  11.315  0.00  0.00     0.184 A 
HETATM    3  N   UNK N   1      38.681  13.336  10.638  0.00  0.00    -0.360 N 
ATOM      4  HN  UNK N   1      39.654  13.040  10.555  1.00  0.00     0.166 HD
HETATM    5  C   UNK N   1      38.120  14.430  10.093  0.00  0.00     0.125 A 
HETATM    6  C   UNK N   1      36.790  14.456  10.454  0.00  0.00     0.127 A 
ENDROOT
BRANCH   1   7
HETATM    7  C   UNK N   1      35.224  12.967  11.817  0.00  0.00     0.120 C 
HETATM    8  C   UNK N   1      34.634  11.813  11.014  0.00  0.00     0.038 C 
BRANCH   7   9
HETATM    9  C   UNK N   1      35.227  12.540  13.288  0.00  0.00    -0.035 A 
HETATM   10  C   UNK N   1      34.547  11.363  13.651  0.00  0.00     0.010 A 
HETATM   11  C   UNK N   1      34.582  10.894  14.969  0.00  0.00     0.019 A 
HETATM   12  C   UNK N   1      35.292  11.598  15.945  0.00  0.00     0.006 A 
HETATM   13  C   UNK N   1      35.955  12.776  15.605  0.00  0.00     0.019 A 
HETATM   14  I   UNK N   1      35.387  10.877  17.920  0.00  0.00    -0.045 I 
HETATM   15  C   UNK N   1      35.923  13.240  14.289  0.00  0.00     0.010 A 
ENDBRANCH   7   9
ENDBRANCH   1   7
BRANCH   6  16
HETATM   16  C   UNK N   1      35.855  15.527  10.029  0.00  0.00     0.311 C 
HETATM   17  O   UNK N   1      35.982  16.648  10.503  0.00  0.00    -0.258 OA
BRANCH  16  18
HETATM   18  O   UNK N   1      34.872  15.278   9.130  0.00  0.00    -0.321 OA
HETATM   19  C   UNK N   1      33.539  15.317   9.473  0.00  0.00     0.213 C 
ENDBRANCH  16  18
ENDBRANCH   6  16
TORSDOF 4
ENDMDL
MODEL 9
REMARK VINA RESULT:      -5.1     22.995     24.948
REMARK  4 active torsions:
REMARK  status: ('A' for Active; 'I' for Inactive)
REMARK    1  A    between atoms: C_2  and  C_3 
REMARK    2  A    between atoms: C_2  and  N_10 
REMARK    3  A    between atoms: C_15  and  C_16 
REMARK    4  A    between atoms: C_16  and  O_18 
ROOT
HETATM    1  N   UNK N   1      27.755  23.635  -5.130  0.00  0.00    -0.328 N 
HETATM    2  C   UNK N   1      29.044  23.242  -5.232  0.00  0.00     0.184 A 
HETATM    3  N   UNK N   1      29.288  22.631  -6.409  0.00  0.00    -0.360 N 
ATOM      4  HN  UNK N   1      30.179  22.245  -6.725  1.00  0.00     0.166 HD
HETATM    5  C   UNK N   1      28.124  22.634  -7.080  0.00  0.00     0.125 A 
HETATM    6  C   UNK N   1      27.177  23.257  -6.296  0.00  0.00     0.127 A 
ENDROOT
BRANCH   1   7
HETATM    7  C   UNK N   1      27.120  24.319  -3.973  0.00  0.00     0.120 C 
HETATM    8  C   UNK N   1      27.817  23.891  -2.688  0.00  0.00     0.038 C 
BRANCH   7   9
HETATM    9  C   UNK N   1      27.096  25.851  -3.988  0.00  0.00    -0.035 A 
HETATM   10  C   UNK N   1      25.857  26.508  -3.882  0.00  0.00     0.010 A 
HETATM   11  C   UNK N   1      25.790  27.905  -3.819  0.00  0.00     0.019 A 
HETATM   12  C   UNK N   1      26.962  28.664  -3.867  0.00  0.00     0.006 A 
HETATM   13  C   UNK N   1      28.196  28.029  -3.990  0.00  0.00     0.019 A 
HETATM   14  I   UNK N   1      26.876  30.762  -3.727  0.00  0.00    -0.045 I 
HETATM   15  C   UNK N   1      28.261  26.636  -4.048  0.00  0.00     0.010 A 
ENDBRANCH   7   9
ENDBRANCH   1   7
BRANCH   6  16
HETATM   16  C   UNK N   1      25.766  23.441  -6.721  0.00  0.00     0.311 C 
HETATM   17  O   UNK N   1      25.419  24.524  -7.172  0.00  0.00    -0.258 OA
BRANCH  16  18
HETATM   18  O   UNK N   1      24.869  22.431  -6.613  0.00  0.00    -0.321 OA
HETATM   19  C   UNK N   1      24.828  21.388  -7.510  0.00  0.00     0.213 C 
ENDBRANCH  16  18
ENDBRANCH   6  16
TORSDOF 4
ENDMDL
