REMARK  1 active torsions:
REMARK  status: ('A' for Active; 'I' for Inactive)
REMARK    1  A    between atoms: O_15  and  C_12 
ROOT
HETATM    1  C   UNK N   1       6.411   1.834   0.047  0.00  0.00     0.052 C 
HETATM    2  C   UNK N   1       3.840   3.223   0.177  0.00  0.00     0.052 C 
HETATM    3  C   UNK N   1       4.022  -2.575  -0.081  0.00  0.00     0.052 C 
HETATM    4  C   UNK N   1      -0.536   1.102   1.215  0.00  0.00     0.046 C 
HETATM    5  C   UNK N   1      -0.471   1.890  -1.112  0.00  0.00     0.046 C 
HETATM    6  C   UNK N   1       1.440  -1.164   0.108  0.00  0.00     0.045 C 
HETATM    7  C   UNK N   1       0.364  -0.368  -0.613  0.00  0.00     0.042 C 
HETATM    8  C   UNK N   1       5.130   1.060   0.045  0.00  0.00    -0.020 A 
HETATM    9  C   UNK N   1       3.894   1.729   0.109  0.00  0.00    -0.019 A 
HETATM   10  C   UNK N   1       3.971  -1.080  -0.018  0.00  0.00    -0.019 A 
HETATM   11  C   UNK N   1       2.736  -0.410   0.055  0.00  0.00    -0.015 A 
HETATM   12  C   UNK N   1       5.166  -0.342  -0.024  0.00  0.00     0.078 A 
HETATM   13  C   UNK N   1       2.699   0.995   0.106  0.00  0.00     0.083 A 
HETATM   14  C   UNK N   1       0.264   1.068  -0.074  0.00  0.00     0.061 C 
HETATM   15  O   UNK N   1       1.507   1.649   0.151  0.00  0.00    -0.340 OA
ENDROOT
BRANCH  12  16
HETATM   16  O   UNK N   1       6.351  -0.981  -0.091  0.00  0.00    -0.360 OA
HETATM   17  H   UNK N   1       6.378  -1.916  -0.138  0.00  0.00     0.217 HD
ENDBRANCH  12  16
TORSDOF 1
