MODEL 1
REMARK VINA RESULT:      -7.5      0.000      0.000
REMARK  6 active torsions:
REMARK  status: ('A' for Active; 'I' for Inactive)
REMARK    1  A    between atoms: C_3  and  O_23 
REMARK    2  A    between atoms: C_10  and  O_22 
REMARK    3  A    between atoms: C_11  and  O_12 
REMARK    4  A    between atoms: O_12  and  C_13 
REMARK    5  A    between atoms: C_13  and  C_15 
REMARK    6  A    between atoms: C_18  and  N_21 
ROOT
HETATM    1  C   UNK N   1      29.667  17.270   8.713  0.00  0.00     0.054 C 
HETATM    2  C   UNK N   1      29.150  17.856   7.438  0.00  0.00     0.009 A 
HETATM    3  C   UNK N   1      28.133  18.820   7.488  0.00  0.00     0.085 A 
HETATM    4  C   UNK N   1      27.634  19.374   6.304  0.00  0.00     0.011 A 
HETATM    5  C   UNK N   1      26.611  20.332   6.342  0.00  0.00     0.015 A 
HETATM    6  C   UNK N   1      26.109  20.877   5.158  0.00  0.00     0.001 A 
HETATM    7  C   UNK N   1      26.626  20.470   3.926  0.00  0.00     0.001 A 
HETATM    8  C   UNK N   1      27.644  19.516   3.877  0.00  0.00     0.015 A 
HETATM    9  C   UNK N   1      28.156  18.960   5.058  0.00  0.00     0.013 A 
HETATM   10  C   UNK N   1      29.169  17.990   5.002  0.00  0.00     0.111 A 
HETATM   11  C   UNK N   1      29.685  17.428   6.204  0.00  0.00     0.122 A 
ENDROOT
BRANCH  11  12
HETATM   12  O   UNK N   1      30.650  16.462   6.255  0.00  0.00    -0.271 OA
BRANCH  12  13
HETATM   13  C   UNK N   1      31.992  16.472   6.014  0.00  0.00     0.298 C 
HETATM   14  O   UNK N   1      32.441  16.406   4.882  0.00  0.00    -0.259 OA
BRANCH  13  15
HETATM   15  C   UNK N   1      32.911  16.661   7.150  0.00  0.00     0.040 A 
HETATM   16  C   UNK N   1      33.653  17.845   7.278  0.00  0.00     0.020 A 
HETATM   17  C   UNK N   1      34.488  18.033   8.384  0.00  0.00     0.030 A 
HETATM   18  C   UNK N   1      34.578  17.045   9.368  0.00  0.00     0.025 A 
HETATM   19  C   UNK N   1      33.851  15.859   9.238  0.00  0.00     0.030 A 
HETATM   20  C   UNK N   1      33.022  15.667   8.130  0.00  0.00     0.020 A 
BRANCH  18  21
HETATM   21  N   UNK N   1      35.393  17.248  10.499  0.00  0.00    -0.399 N 
HETATM   22  H   UNK N   1      36.099  17.933  10.489  0.00  0.00     0.156 HD
HETATM   23  H   UNK N   1      35.254  16.699  11.305  0.00  0.00     0.156 HD
ENDBRANCH  18  21
ENDBRANCH  13  15
ENDBRANCH  12  13
ENDBRANCH  11  12
BRANCH  10  24
HETATM   24  O   UNK N   1      29.609  17.595   3.796  0.00  0.00    -0.357 OA
HETATM   25  H   UNK N   1      30.167  18.152   3.290  0.00  0.00     0.217 HD
ENDBRANCH  10  24
BRANCH   3  26
HETATM   26  O   UNK N   1      27.632  19.207   8.678  0.00  0.00    -0.359 OA
HETATM   27  H   UNK N   1      27.565  20.119   8.886  0.00  0.00     0.217 HD
ENDBRANCH   3  26
TORSDOF 6
ENDMDL
MODEL 2
REMARK VINA RESULT:      -7.2      9.098     12.092
REMARK  6 active torsions:
REMARK  status: ('A' for Active; 'I' for Inactive)
REMARK    1  A    between atoms: C_3  and  O_23 
REMARK    2  A    between atoms: C_10  and  O_22 
REMARK    3  A    between atoms: C_11  and  O_12 
REMARK    4  A    between atoms: O_12  and  C_13 
REMARK    5  A    between atoms: C_13  and  C_15 
REMARK    6  A    between atoms: C_18  and  N_21 
ROOT
HETATM    1  C   UNK N   1      22.650  14.859   6.284  0.00  0.00     0.054 C 
HETATM    2  C   UNK N   1      22.360  14.249   7.618  0.00  0.00     0.009 A 
HETATM    3  C   UNK N   1      23.395  13.622   8.327  0.00  0.00     0.085 A 
HETATM    4  C   UNK N   1      23.140  13.042   9.574  0.00  0.00     0.011 A 
HETATM    5  C   UNK N   1      24.165  12.405  10.286  0.00  0.00     0.015 A 
HETATM    6  C   UNK N   1      23.905  11.819  11.527  0.00  0.00     0.001 A 
HETATM    7  C   UNK N   1      22.618  11.865  12.066  0.00  0.00     0.001 A 
HETATM    8  C   UNK N   1      21.589  12.495  11.364  0.00  0.00     0.015 A 
HETATM    9  C   UNK N   1      21.836  13.087  10.117  0.00  0.00     0.013 A 
HETATM   10  C   UNK N   1      20.794  13.706   9.408  0.00  0.00     0.111 A 
HETATM   11  C   UNK N   1      21.051  14.304   8.142  0.00  0.00     0.122 A 
ENDROOT
BRANCH  11  12
HETATM   12  O   UNK N   1      20.102  14.908   7.366  0.00  0.00    -0.271 OA
BRANCH  12  13
HETATM   13  C   UNK N   1      19.786  16.212   7.123  0.00  0.00     0.298 C 
HETATM   14  O   UNK N   1      19.854  16.690   6.004  0.00  0.00    -0.259 OA
BRANCH  13  15
HETATM   15  C   UNK N   1      19.260  17.027   8.232  0.00  0.00     0.040 A 
HETATM   16  C   UNK N   1      19.992  18.116   8.727  0.00  0.00     0.020 A 
HETATM   17  C   UNK N   1      19.463  18.910   9.750  0.00  0.00     0.030 A 
HETATM   18  C   UNK N   1      18.200  18.624  10.274  0.00  0.00     0.025 A 
HETATM   19  C   UNK N   1      17.473  17.532   9.794  0.00  0.00     0.030 A 
HETATM   20  C   UNK N   1      18.003  16.734   8.777  0.00  0.00     0.020 A 
BRANCH  18  21
HETATM   21  N   UNK N   1      17.653  19.443  11.281  0.00  0.00    -0.399 N 
HETATM   22  H   UNK N   1      17.644  19.146  12.218  0.00  0.00     0.156 HD
HETATM   23  H   UNK N   1      17.275  20.322  11.043  0.00  0.00     0.156 HD
ENDBRANCH  18  21
ENDBRANCH  13  15
ENDBRANCH  12  13
ENDBRANCH  11  12
BRANCH  10  24
HETATM   24  O   UNK N   1      19.562  13.691   9.943  0.00  0.00    -0.357 OA
HETATM   25  H   UNK N   1      18.822  13.954   9.432  0.00  0.00     0.217 HD
ENDBRANCH  10  24
BRANCH   3  26
HETATM   26  O   UNK N   1      24.636  13.575   7.801  0.00  0.00    -0.359 OA
HETATM   27  H   UNK N   1      24.955  14.289   7.284  0.00  0.00     0.217 HD
ENDBRANCH   3  26
TORSDOF 6
ENDMDL
MODEL 3
REMARK VINA RESULT:      -6.8      4.016      8.433
REMARK  6 active torsions:
REMARK  status: ('A' for Active; 'I' for Inactive)
REMARK    1  A    between atoms: C_3  and  O_23 
REMARK    2  A    between atoms: C_10  and  O_22 
REMARK    3  A    between atoms: C_11  and  O_12 
REMARK    4  A    between atoms: O_12  and  C_13 
REMARK    5  A    between atoms: C_13  and  C_15 
REMARK    6  A    between atoms: C_18  and  N_21 
ROOT
HETATM    1  C   UNK N   1      33.763  13.917   7.573  0.00  0.00     0.054 C 
HETATM    2  C   UNK N   1      34.379  14.298   8.882  0.00  0.00     0.009 A 
HETATM    3  C   UNK N   1      34.375  13.376   9.938  0.00  0.00     0.085 A 
HETATM    4  C   UNK N   1      34.942  13.719  11.170  0.00  0.00     0.011 A 
HETATM    5  C   UNK N   1      34.935  12.807  12.236  0.00  0.00     0.015 A 
HETATM    6  C   UNK N   1      35.494  13.156  13.467  0.00  0.00     0.001 A 
HETATM    7  C   UNK N   1      36.065  14.419  13.644  0.00  0.00     0.001 A 
HETATM    8  C   UNK N   1      36.075  15.334  12.591  0.00  0.00     0.015 A 
HETATM    9  C   UNK N   1      35.516  14.997  11.349  0.00  0.00     0.013 A 
HETATM   10  C   UNK N   1      35.516  15.927  10.297  0.00  0.00     0.111 A 
HETATM   11  C   UNK N   1      34.947  15.580   9.040  0.00  0.00     0.122 A 
ENDROOT
BRANCH  11  12
HETATM   12  O   UNK N   1      34.875  16.421   7.965  0.00  0.00    -0.271 OA
BRANCH  12  13
HETATM   13  C   UNK N   1      34.137  17.537   7.701  0.00  0.00     0.298 C 
HETATM   14  O   UNK N   1      34.406  18.616   8.200  0.00  0.00    -0.259 OA
BRANCH  13  15
HETATM   15  C   UNK N   1      33.048  17.444   6.713  0.00  0.00     0.040 A 
HETATM   16  C   UNK N   1      31.724  17.239   7.128  0.00  0.00     0.020 A 
HETATM   17  C   UNK N   1      30.692  17.197   6.185  0.00  0.00     0.030 A 
HETATM   18  C   UNK N   1      30.979  17.366   4.828  0.00  0.00     0.025 A 
HETATM   19  C   UNK N   1      32.297  17.556   4.409  0.00  0.00     0.030 A 
HETATM   20  C   UNK N   1      33.330  17.592   5.349  0.00  0.00     0.020 A 
BRANCH  18  21
HETATM   21  N   UNK N   1      29.936  17.357   3.881  0.00  0.00    -0.399 N 
HETATM   22  H   UNK N   1      29.190  17.995   3.952  0.00  0.00     0.156 HD
HETATM   23  H   UNK N   1      29.953  16.705   3.143  0.00  0.00     0.156 HD
ENDBRANCH  18  21
ENDBRANCH  13  15
ENDBRANCH  12  13
ENDBRANCH  11  12
BRANCH  10  24
HETATM   24  O   UNK N   1      36.036  17.146  10.523  0.00  0.00    -0.357 OA
HETATM   25  H   UNK N   1      36.801  17.426  10.060  0.00  0.00     0.217 HD
ENDBRANCH  10  24
BRANCH   3  26
HETATM   26  O   UNK N   1      33.819  12.160   9.766  0.00  0.00    -0.359 OA
HETATM   27  H   UNK N   1      32.917  12.020   9.981  0.00  0.00     0.217 HD
ENDBRANCH   3  26
TORSDOF 6
ENDMDL
MODEL 4
REMARK VINA RESULT:      -6.8      8.681      9.724
REMARK  6 active torsions:
REMARK  status: ('A' for Active; 'I' for Inactive)
REMARK    1  A    between atoms: C_3  and  O_23 
REMARK    2  A    between atoms: C_10  and  O_22 
REMARK    3  A    between atoms: C_11  and  O_12 
REMARK    4  A    between atoms: O_12  and  C_13 
REMARK    5  A    between atoms: C_13  and  C_15 
REMARK    6  A    between atoms: C_18  and  N_21 
ROOT
HETATM    1  C   UNK N   1      20.731  16.172   8.667  0.00  0.00     0.054 C 
HETATM    2  C   UNK N   1      20.687  16.203   7.172  0.00  0.00     0.009 A 
HETATM    3  C   UNK N   1      20.882  17.420   6.503  0.00  0.00     0.085 A 
HETATM    4  C   UNK N   1      20.839  17.466   5.106  0.00  0.00     0.011 A 
HETATM    5  C   UNK N   1      21.024  18.679   4.428  0.00  0.00     0.015 A 
HETATM    6  C   UNK N   1      20.971  18.724   3.033  0.00  0.00     0.001 A 
HETATM    7  C   UNK N   1      20.734  17.557   2.304  0.00  0.00     0.001 A 
HETATM    8  C   UNK N   1      20.547  16.344   2.969  0.00  0.00     0.015 A 
HETATM    9  C   UNK N   1      20.596  16.285   4.370  0.00  0.00     0.013 A 
HETATM   10  C   UNK N   1      20.393  15.065   5.034  0.00  0.00     0.111 A 
HETATM   11  C   UNK N   1      20.443  15.012   6.456  0.00  0.00     0.122 A 
ENDROOT
BRANCH  11  12
HETATM   12  O   UNK N   1      20.234  13.881   7.194  0.00  0.00    -0.271 OA
BRANCH  12  13
HETATM   13  C   UNK N   1      20.922  12.712   7.326  0.00  0.00     0.298 C 
HETATM   14  O   UNK N   1      20.690  11.748   6.617  0.00  0.00    -0.259 OA
BRANCH  13  15
HETATM   15  C   UNK N   1      22.037  12.655   8.288  0.00  0.00     0.040 A 
HETATM   16  C   UNK N   1      23.367  12.677   7.841  0.00  0.00     0.020 A 
HETATM   17  C   UNK N   1      24.417  12.668   8.765  0.00  0.00     0.030 A 
HETATM   18  C   UNK N   1      24.143  12.645  10.134  0.00  0.00     0.025 A 
HETATM   19  C   UNK N   1      22.821  12.610  10.584  0.00  0.00     0.030 A 
HETATM   20  C   UNK N   1      21.771  12.612   9.662  0.00  0.00     0.020 A 
BRANCH  18  21
HETATM   21  N   UNK N   1      25.200  12.669  11.065  0.00  0.00    -0.399 N 
HETATM   22  H   UNK N   1      25.939  12.024  11.000  0.00  0.00     0.156 HD
HETATM   23  H   UNK N   1      25.198  13.339  11.788  0.00  0.00     0.156 HD
ENDBRANCH  18  21
ENDBRANCH  13  15
ENDBRANCH  12  13
ENDBRANCH  11  12
BRANCH  10  24
HETATM   24  O   UNK N   1      20.125  13.974   4.297  0.00  0.00    -0.357 OA
HETATM   25  H   UNK N   1      20.643  13.200   4.394  0.00  0.00     0.217 HD
ENDBRANCH  10  24
BRANCH   3  26
HETATM   26  O   UNK N   1      21.106  18.546   7.210  0.00  0.00    -0.359 OA
HETATM   27  H   UNK N   1      21.983  18.838   7.365  0.00  0.00     0.217 HD
ENDBRANCH   3  26
TORSDOF 6
ENDMDL
MODEL 5
REMARK VINA RESULT:      -6.7      8.542     11.533
REMARK  6 active torsions:
REMARK  status: ('A' for Active; 'I' for Inactive)
REMARK    1  A    between atoms: C_3  and  O_23 
REMARK    2  A    between atoms: C_10  and  O_22 
REMARK    3  A    between atoms: C_11  and  O_12 
REMARK    4  A    between atoms: O_12  and  C_13 
REMARK    5  A    between atoms: C_13  and  C_15 
REMARK    6  A    between atoms: C_18  and  N_21 
ROOT
HETATM    1  C   UNK N   1      23.212  14.466   6.128  0.00  0.00     0.054 C 
HETATM    2  C   UNK N   1      22.844  13.955   7.484  0.00  0.00     0.009 A 
HETATM    3  C   UNK N   1      23.843  13.427   8.314  0.00  0.00     0.085 A 
HETATM    4  C   UNK N   1      23.513  12.939   9.584  0.00  0.00     0.011 A 
HETATM    5  C   UNK N   1      24.503  12.401  10.419  0.00  0.00     0.015 A 
HETATM    6  C   UNK N   1      24.170  11.907  11.682  0.00  0.00     0.001 A 
HETATM    7  C   UNK N   1      22.845  11.948  12.122  0.00  0.00     0.001 A 
HETATM    8  C   UNK N   1      21.851  12.480  11.298  0.00  0.00     0.015 A 
HETATM    9  C   UNK N   1      22.172  12.978  10.026  0.00  0.00     0.013 A 
HETATM   10  C   UNK N   1      21.167  13.499   9.196  0.00  0.00     0.111 A 
HETATM   11  C   UNK N   1      21.498  14.002   7.907  0.00  0.00     0.122 A 
ENDROOT
BRANCH  11  12
HETATM   12  O   UNK N   1      20.591  14.505   7.017  0.00  0.00    -0.271 OA
BRANCH  12  13
HETATM   13  C   UNK N   1      19.923  15.691   6.934  0.00  0.00     0.298 C 
HETATM   14  O   UNK N   1      19.125  16.038   7.788  0.00  0.00    -0.259 OA
BRANCH  13  15
HETATM   15  C   UNK N   1      20.253  16.610   5.831  0.00  0.00     0.040 A 
HETATM   16  C   UNK N   1      19.644  16.466   4.576  0.00  0.00     0.020 A 
HETATM   17  C   UNK N   1      19.931  17.372   3.549  0.00  0.00     0.030 A 
HETATM   18  C   UNK N   1      20.820  18.425   3.775  0.00  0.00     0.025 A 
HETATM   19  C   UNK N   1      21.440  18.565   5.019  0.00  0.00     0.030 A 
HETATM   20  C   UNK N   1      21.159  17.657   6.043  0.00  0.00     0.020 A 
BRANCH  18  21
HETATM   21  N   UNK N   1      21.083  19.356   2.751  0.00  0.00    -0.399 N 
HETATM   22  H   UNK N   1      21.823  19.998   2.838  0.00  0.00     0.156 HD
HETATM   23  H   UNK N   1      20.521  19.364   1.943  0.00  0.00     0.156 HD
ENDBRANCH  18  21
ENDBRANCH  13  15
ENDBRANCH  12  13
ENDBRANCH  11  12
BRANCH  10  24
HETATM   24  O   UNK N   1      19.899  13.480   9.640  0.00  0.00    -0.357 OA
HETATM   25  H   UNK N   1      19.303  12.822   9.341  0.00  0.00     0.217 HD
ENDBRANCH  10  24
BRANCH   3  26
HETATM   26  O   UNK N   1      25.120  13.384   7.885  0.00  0.00    -0.359 OA
HETATM   27  H   UNK N   1      25.695  12.707   8.186  0.00  0.00     0.217 HD
ENDBRANCH   3  26
TORSDOF 6
ENDMDL
MODEL 6
REMARK VINA RESULT:      -6.7      5.734     10.181
REMARK  6 active torsions:
REMARK  status: ('A' for Active; 'I' for Inactive)
REMARK    1  A    between atoms: C_3  and  O_23 
REMARK    2  A    between atoms: C_10  and  O_22 
REMARK    3  A    between atoms: C_11  and  O_12 
REMARK    4  A    between atoms: O_12  and  C_13 
REMARK    5  A    between atoms: C_13  and  C_15 
REMARK    6  A    between atoms: C_18  and  N_21 
ROOT
HETATM    1  C   UNK N   1      34.558  11.866  10.361  0.00  0.00     0.054 C 
HETATM    2  C   UNK N   1      34.921  12.311  11.741  0.00  0.00     0.009 A 
HETATM    3  C   UNK N   1      34.578  11.505  12.836  0.00  0.00     0.085 A 
HETATM    4  C   UNK N   1      34.906  11.910  14.134  0.00  0.00     0.011 A 
HETATM    5  C   UNK N   1      34.560  11.116  15.237  0.00  0.00     0.015 A 
HETATM    6  C   UNK N   1      34.881  11.528  16.532  0.00  0.00     0.001 A 
HETATM    7  C   UNK N   1      35.551  12.736  16.737  0.00  0.00     0.001 A 
HETATM    8  C   UNK N   1      35.898  13.535  15.646  0.00  0.00     0.015 A 
HETATM    9  C   UNK N   1      35.581  13.134  14.340  0.00  0.00     0.013 A 
HETATM   10  C   UNK N   1      35.920  13.949  13.248  0.00  0.00     0.111 A 
HETATM   11  C   UNK N   1      35.595  13.537  11.925  0.00  0.00     0.122 A 
ENDROOT
BRANCH  11  12
HETATM   12  O   UNK N   1      35.859  14.269  10.802  0.00  0.00    -0.271 OA
BRANCH  12  13
HETATM   13  C   UNK N   1      35.713  15.589  10.492  0.00  0.00     0.298 C 
HETATM   14  O   UNK N   1      36.569  16.411  10.771  0.00  0.00    -0.259 OA
BRANCH  13  15
HETATM   15  C   UNK N   1      34.531  16.005   9.717  0.00  0.00     0.040 A 
HETATM   16  C   UNK N   1      33.395  15.185   9.652  0.00  0.00     0.020 A 
HETATM   17  C   UNK N   1      32.262  15.610   8.951  0.00  0.00     0.030 A 
HETATM   18  C   UNK N   1      32.258  16.857   8.319  0.00  0.00     0.025 A 
HETATM   19  C   UNK N   1      33.392  17.671   8.370  0.00  0.00     0.030 A 
HETATM   20  C   UNK N   1      34.527  17.245   9.064  0.00  0.00     0.020 A 
BRANCH  18  21
HETATM   21  N   UNK N   1      31.106  17.299   7.641  0.00  0.00    -0.399 N 
HETATM   22  H   UNK N   1      30.938  18.259   7.514  0.00  0.00     0.156 HD
HETATM   23  H   UNK N   1      30.462  16.639   7.292  0.00  0.00     0.156 HD
ENDBRANCH  18  21
ENDBRANCH  13  15
ENDBRANCH  12  13
ENDBRANCH  11  12
BRANCH  10  24
HETATM   24  O   UNK N   1      36.525  15.123  13.492  0.00  0.00    -0.357 OA
HETATM   25  H   UNK N   1      37.292  15.368  13.013  0.00  0.00     0.217 HD
ENDBRANCH  10  24
BRANCH   3  26
HETATM   26  O   UNK N   1      33.927  10.342  12.636  0.00  0.00    -0.359 OA
HETATM   27  H   UNK N   1      34.244   9.551  13.028  0.00  0.00     0.217 HD
ENDBRANCH   3  26
TORSDOF 6
ENDMDL
MODEL 7
REMARK VINA RESULT:      -6.7      8.885     11.213
REMARK  6 active torsions:
REMARK  status: ('A' for Active; 'I' for Inactive)
REMARK    1  A    between atoms: C_3  and  O_23 
REMARK    2  A    between atoms: C_10  and  O_22 
REMARK    3  A    between atoms: C_11  and  O_12 
REMARK    4  A    between atoms: O_12  and  C_13 
REMARK    5  A    between atoms: C_13  and  C_15 
REMARK    6  A    between atoms: C_18  and  N_21 
ROOT
HETATM    1  C   UNK N   1      19.472  16.390   7.585  0.00  0.00     0.054 C 
HETATM    2  C   UNK N   1      20.535  15.424   8.003  0.00  0.00     0.009 A 
HETATM    3  C   UNK N   1      20.290  14.555   9.076  0.00  0.00     0.085 A 
HETATM    4  C   UNK N   1      21.276  13.650   9.483  0.00  0.00     0.011 A 
HETATM    5  C   UNK N   1      21.045  12.783  10.561  0.00  0.00     0.015 A 
HETATM    6  C   UNK N   1      22.035  11.886  10.971  0.00  0.00     0.001 A 
HETATM    7  C   UNK N   1      23.263  11.848  10.307  0.00  0.00     0.001 A 
HETATM    8  C   UNK N   1      23.503  12.708   9.234  0.00  0.00     0.015 A 
HETATM    9  C   UNK N   1      22.519  13.614   8.812  0.00  0.00     0.013 A 
HETATM   10  C   UNK N   1      22.772  14.486   7.742  0.00  0.00     0.111 A 
HETATM   11  C   UNK N   1      21.769  15.404   7.320  0.00  0.00     0.122 A 
ENDROOT
BRANCH  11  12
HETATM   12  O   UNK N   1      21.927  16.309   6.308  0.00  0.00    -0.271 OA
BRANCH  12  13
HETATM   13  C   UNK N   1      22.105  16.182   4.962  0.00  0.00     0.298 C 
HETATM   14  O   UNK N   1      22.589  15.177   4.472  0.00  0.00    -0.259 OA
BRANCH  13  15
HETATM   15  C   UNK N   1      21.608  17.254   4.082  0.00  0.00     0.040 A 
HETATM   16  C   UNK N   1      22.253  18.499   4.039  0.00  0.00     0.020 A 
HETATM   17  C   UNK N   1      21.800  19.494   3.166  0.00  0.00     0.030 A 
HETATM   18  C   UNK N   1      20.708  19.246   2.330  0.00  0.00     0.025 A 
HETATM   19  C   UNK N   1      20.055  18.012   2.379  0.00  0.00     0.030 A 
HETATM   20  C   UNK N   1      20.502  17.020   3.255  0.00  0.00     0.020 A 
BRANCH  18  21
HETATM   21  N   UNK N   1      20.273  20.236   1.428  0.00  0.00    -0.399 N 
HETATM   22  H   UNK N   1      19.317  20.337   1.220  0.00  0.00     0.156 HD
HETATM   23  H   UNK N   1      20.932  20.831   1.001  0.00  0.00     0.156 HD
ENDBRANCH  18  21
ENDBRANCH  13  15
ENDBRANCH  12  13
ENDBRANCH  11  12
BRANCH  10  24
HETATM   24  O   UNK N   1      23.981  14.447   7.158  0.00  0.00    -0.357 OA
HETATM   25  H   UNK N   1      24.742  14.231   7.661  0.00  0.00     0.217 HD
ENDBRANCH  10  24
BRANCH   3  26
HETATM   26  O   UNK N   1      19.106  14.598   9.719  0.00  0.00    -0.359 OA
HETATM   27  H   UNK N   1      18.677  13.803   9.970  0.00  0.00     0.217 HD
ENDBRANCH   3  26
TORSDOF 6
ENDMDL
MODEL 8
REMARK VINA RESULT:      -6.7     10.826     12.862
REMARK  6 active torsions:
REMARK  status: ('A' for Active; 'I' for Inactive)
REMARK    1  A    between atoms: C_3  and  O_23 
REMARK    2  A    between atoms: C_10  and  O_22 
REMARK    3  A    between atoms: C_11  and  O_12 
REMARK    4  A    between atoms: O_12  and  C_13 
REMARK    5  A    between atoms: C_13  and  C_15 
REMARK    6  A    between atoms: C_18  and  N_21 
ROOT
HETATM    1  C   UNK N   1      30.646  24.048  -5.828  0.00  0.00     0.054 C 
HETATM    2  C   UNK N   1      29.463  24.700  -5.186  0.00  0.00     0.009 A 
HETATM    3  C   UNK N   1      29.019  25.941  -5.664  0.00  0.00     0.085 A 
HETATM    4  C   UNK N   1      27.917  26.567  -5.071  0.00  0.00     0.011 A 
HETATM    5  C   UNK N   1      27.470  27.812  -5.536  0.00  0.00     0.015 A 
HETATM    6  C   UNK N   1      26.375  28.438  -4.935  0.00  0.00     0.001 A 
HETATM    7  C   UNK N   1      25.718  27.825  -3.866  0.00  0.00     0.001 A 
HETATM    8  C   UNK N   1      26.156  26.587  -3.395  0.00  0.00     0.015 A 
HETATM    9  C   UNK N   1      27.255  25.947  -3.988  0.00  0.00     0.013 A 
HETATM   10  C   UNK N   1      27.700  24.708  -3.500  0.00  0.00     0.111 A 
HETATM   11  C   UNK N   1      28.816  24.064  -4.105  0.00  0.00     0.122 A 
ENDROOT
BRANCH  11  12
HETATM   12  O   UNK N   1      29.341  22.873  -3.688  0.00  0.00    -0.271 OA
BRANCH  12  13
HETATM   13  C   UNK N   1      30.350  22.547  -2.832  0.00  0.00     0.298 C 
HETATM   14  O   UNK N   1      30.385  22.972  -1.690  0.00  0.00    -0.259 OA
BRANCH  13  15
HETATM   15  C   UNK N   1      31.368  21.579  -3.279  0.00  0.00     0.040 A 
HETATM   16  C   UNK N   1      31.073  20.647  -4.284  0.00  0.00     0.020 A 
HETATM   17  C   UNK N   1      32.060  19.763  -4.732  0.00  0.00     0.030 A 
HETATM   18  C   UNK N   1      33.344  19.813  -4.183  0.00  0.00     0.025 A 
HETATM   19  C   UNK N   1      33.639  20.730  -3.173  0.00  0.00     0.030 A 
HETATM   20  C   UNK N   1      32.652  21.610  -2.719  0.00  0.00     0.020 A 
BRANCH  18  21
HETATM   21  N   UNK N   1      34.347  18.945  -4.658  0.00  0.00    -0.399 N 
HETATM   22  H   UNK N   1      35.141  18.753  -4.111  0.00  0.00     0.156 HD
HETATM   23  H   UNK N   1      34.252  18.529  -5.546  0.00  0.00     0.156 HD
ENDBRANCH  18  21
ENDBRANCH  13  15
ENDBRANCH  12  13
ENDBRANCH  11  12
BRANCH  10  24
HETATM   24  O   UNK N   1      27.067  24.174  -2.442  0.00  0.00    -0.357 OA
HETATM   25  H   UNK N   1      26.248  23.733  -2.555  0.00  0.00     0.217 HD
ENDBRANCH  10  24
BRANCH   3  26
HETATM   26  O   UNK N   1      29.659  26.532  -6.693  0.00  0.00    -0.359 OA
HETATM   27  H   UNK N   1      29.763  27.464  -6.709  0.00  0.00     0.217 HD
ENDBRANCH   3  26
TORSDOF 6
ENDMDL
MODEL 9
REMARK VINA RESULT:      -6.7     11.155     13.797
REMARK  6 active torsions:
REMARK  status: ('A' for Active; 'I' for Inactive)
REMARK    1  A    between atoms: C_3  and  O_23 
REMARK    2  A    between atoms: C_10  and  O_22 
REMARK    3  A    between atoms: C_11  and  O_12 
REMARK    4  A    between atoms: O_12  and  C_13 
REMARK    5  A    between atoms: C_13  and  C_15 
REMARK    6  A    between atoms: C_18  and  N_21 
ROOT
HETATM    1  C   UNK N   1      29.582  21.560  -5.914  0.00  0.00     0.054 C 
HETATM    2  C   UNK N   1      30.950  21.314  -5.362  0.00  0.00     0.009 A 
HETATM    3  C   UNK N   1      31.988  20.953  -6.232  0.00  0.00     0.085 A 
HETATM    4  C   UNK N   1      33.272  20.714  -5.730  0.00  0.00     0.011 A 
HETATM    5  C   UNK N   1      34.315  20.343  -6.591  0.00  0.00     0.015 A 
HETATM    6  C   UNK N   1      35.593  20.097  -6.085  0.00  0.00     0.001 A 
HETATM    7  C   UNK N   1      35.840  20.220  -4.716  0.00  0.00     0.001 A 
HETATM    8  C   UNK N   1      34.808  20.586  -3.851  0.00  0.00     0.015 A 
HETATM    9  C   UNK N   1      33.520  20.836  -4.344  0.00  0.00     0.013 A 
HETATM   10  C   UNK N   1      32.482  21.190  -3.468  0.00  0.00     0.111 A 
HETATM   11  C   UNK N   1      31.176  21.441  -3.974  0.00  0.00     0.122 A 
ENDROOT
BRANCH  11  12
HETATM   12  O   UNK N   1      30.097  21.766  -3.202  0.00  0.00    -0.271 OA
BRANCH  12  13
HETATM   13  C   UNK N   1      29.776  22.865  -2.461  0.00  0.00     0.298 C 
HETATM   14  O   UNK N   1      30.218  23.031  -1.337  0.00  0.00    -0.259 OA
BRANCH  13  15
HETATM   15  C   UNK N   1      28.952  23.917  -3.081  0.00  0.00     0.040 A 
HETATM   16  C   UNK N   1      29.550  24.958  -3.805  0.00  0.00     0.020 A 
HETATM   17  C   UNK N   1      28.755  25.927  -4.427  0.00  0.00     0.030 A 
HETATM   18  C   UNK N   1      27.363  25.854  -4.334  0.00  0.00     0.025 A 
HETATM   19  C   UNK N   1      26.763  24.826  -3.602  0.00  0.00     0.030 A 
HETATM   20  C   UNK N   1      27.556  23.862  -2.974  0.00  0.00     0.020 A 
BRANCH  18  21
HETATM   21  N   UNK N   1      26.562  26.809  -4.988  0.00  0.00    -0.399 N 
HETATM   22  H   UNK N   1      26.943  27.388  -5.686  0.00  0.00     0.156 HD
HETATM   23  H   UNK N   1      25.612  26.900  -4.743  0.00  0.00     0.156 HD
ENDBRANCH  18  21
ENDBRANCH  13  15
ENDBRANCH  12  13
ENDBRANCH  11  12
BRANCH  10  24
HETATM   24  O   UNK N   1      32.752  21.255  -2.153  0.00  0.00    -0.357 OA
HETATM   25  H   UNK N   1      32.751  20.477  -1.631  0.00  0.00     0.217 HD
ENDBRANCH  10  24
BRANCH   3  26
HETATM   26  O   UNK N   1      31.745  20.830  -7.552  0.00  0.00    -0.359 OA
HETATM   27  H   UNK N   1      31.499  21.581  -8.057  0.00  0.00     0.217 HD
ENDBRANCH   3  26
TORSDOF 6
ENDMDL
