MODEL 1
REMARK VINA RESULT:      -8.6      0.000      0.000
REMARK  10 active torsions:
REMARK  status: ('A' for Active; 'I' for Inactive)
REMARK    1  A    between atoms: N_42  and  C_19 
REMARK    2  A    between atoms: O_45  and  C_20 
REMARK    3  A    between atoms: O_45  and  C_21 
REMARK    4  A    between atoms: N_37  and  C_24 
REMARK    5  A    between atoms: C_28  and  C_25 
REMARK    6  A    between atoms: C_30  and  C_26 
REMARK    7  A    between atoms: N_39  and  C_27 
REMARK       I    between atoms: N_32  and  C_28 
REMARK    8  A    between atoms: N_37  and  C_29 
REMARK    9  A    between atoms: N_39  and  C_29 
REMARK   10  A    between atoms: O_44  and  C_29 
ROOT
HETATM    1  C   UNK N   1      35.377  16.101  10.962  0.00  0.00     0.223 C 
ENDROOT
BRANCH   1   2
HETATM    2  N   UNK N   1      34.809  16.997  10.247  0.00  0.00    -0.320 N 
ATOM      3  HN  UNK N   1      34.823  17.947  10.616  1.00  0.00     0.169 HD
BRANCH   2   4
HETATM    4  C   UNK N   1      34.165  16.817   9.005  0.00  0.00     0.074 C 
HETATM    5  C   UNK N   1      33.221  15.793   8.778  0.00  0.00     0.035 C 
HETATM    6  C   UNK N   1      32.305  15.897   7.733  0.00  0.00     0.040 C 
HETATM    7  C   UNK N   1      32.334  17.041   6.943  0.00  0.00     0.079 C 
HETATM    8  C   UNK N   1      33.379  17.971   7.077  0.00  0.00     0.081 C 
HETATM    9  C   UNK N   1      34.286  17.859   8.099  0.00  0.00     0.145 C 
HETATM   10  F   UNK N   1      35.142  18.883   8.338  0.00  0.00    -0.204 F 
BRANCH   7  11
HETATM   11  O   UNK N   1      31.202  17.466   6.348  0.00  0.00    -0.311 OA
BRANCH  11  12
HETATM   12  C   UNK N   1      30.084  17.350   7.116  0.00  0.00     0.079 A 
HETATM   13  C   UNK N   1      29.968  18.094   8.313  0.00  0.00     0.054 A 
HETATM   14  C   UNK N   1      28.739  18.182   8.955  0.00  0.00     0.091 A 
HETATM   15  N   UNK N   1      27.655  17.568   8.417  0.00  0.00    -0.361 N 
HETATM   16  C   UNK N   1      27.738  16.834   7.270  0.00  0.00     0.103 A 
ATOM     17  HN  UNK N   1      26.752  17.660   8.883  1.00  0.00     0.165 HD
HETATM   18  C   UNK N   1      28.965  16.715   6.606  0.00  0.00     0.072 A 
BRANCH  16  19
HETATM   19  C   UNK N   1      26.536  16.207   6.663  0.00  0.00     0.267 C 
HETATM   20  N   UNK N   1      25.817  16.789   5.666  0.00  0.00    -0.360 N 
HETATM   21  C   UNK N   1      26.099  18.084   5.102  0.00  0.00     0.149 C 
HETATM   22  H   UNK N   1      25.049  16.290   5.305  0.00  0.00     0.162 HD
HETATM   23  O   UNK N   1      26.178  15.114   7.074  0.00  0.00    -0.266 OA
ENDBRANCH  16  19
ENDBRANCH  11  12
ENDBRANCH   7  11
ENDBRANCH   2   4
ENDBRANCH   1   2
BRANCH   1  24
HETATM   24  N   UNK N   1      34.634  15.111  11.664  0.00  0.00    -0.307 N 
HETATM   25  H   UNK N   1      33.682  15.255  11.871  0.00  0.00     0.171 HD
BRANCH  24  26
HETATM   26  C   UNK N   1      35.284  13.911  12.062  0.00  0.00     0.132 A 
HETATM   27  C   UNK N   1      35.681  13.615  13.343  0.00  0.00     0.077 A 
HETATM   28  C   UNK N   1      36.169  12.322  13.243  0.00  0.00     0.037 A 
HETATM   29  N   UNK N   1      36.079  11.889  11.959  0.00  0.00    -0.295 N 
HETATM   30  N   UNK N   1      35.531  12.867  11.243  0.00  0.00    -0.240 N 
ATOM     31  HN  UNK N   1      36.377  10.980  11.607  1.00  0.00     0.187 HD
BRANCH  28  32
HETATM   32  C   UNK N   1      36.651  11.510  14.420  0.00  0.00    -0.007 C 
HETATM   33  C   UNK N   1      36.385  12.259  15.713  0.00  0.00     0.021 C 
HETATM   34  C   UNK N   1      38.134  11.208  14.324  0.00  0.00     0.021 C 
HETATM   35  C   UNK N   1      35.899  10.189  14.466  0.00  0.00     0.021 C 
ENDBRANCH  28  32
BRANCH  30  36
HETATM   36  C   UNK N   1      35.192  12.789   9.841  0.00  0.00     0.059 A 
HETATM   37  C   UNK N   1      34.002  12.205   9.376  0.00  0.00     0.034 A 
HETATM   38  C   UNK N   1      33.713  12.207   7.993  0.00  0.00     0.033 A 
HETATM   39  C   UNK N   1      34.594  12.829   7.087  0.00  0.00     0.042 A 
HETATM   40  C   UNK N   1      35.767  13.419   7.568  0.00  0.00    -0.007 A 
HETATM   41  N   UNK N   1      34.318  12.881   5.756  0.00  0.00    -0.365 N 
HETATM   42  C   UNK N   1      36.633  14.075   6.695  0.00  0.00     0.015 A 
HETATM   43  C   UNK N   1      36.052  13.367   8.911  0.00  0.00     0.045 A 
HETATM   44  C   UNK N   1      36.323  14.131   5.340  0.00  0.00     0.018 A 
HETATM   45  C   UNK N   1      35.154  13.515   4.881  0.00  0.00     0.088 A 
ATOM     46  HN  UNK N   1      33.469  12.438   5.403  1.00  0.00     0.165 HD
ENDBRANCH  30  36
ENDBRANCH  24  26
ENDBRANCH   1  24
BRANCH   1  47
HETATM   47  O   UNK N   1      36.713  16.149  11.077  0.00  0.00    -0.332 OA
HETATM   48  H   UNK N   1      37.163  16.852  11.503  0.00  0.00     0.220 HD
ENDBRANCH   1  47
TORSDOF 10
ENDMDL
MODEL 2
REMARK VINA RESULT:      -8.5      6.478     10.578
REMARK  10 active torsions:
REMARK  status: ('A' for Active; 'I' for Inactive)
REMARK    1  A    between atoms: N_42  and  C_19 
REMARK    2  A    between atoms: O_45  and  C_20 
REMARK    3  A    between atoms: O_45  and  C_21 
REMARK    4  A    between atoms: N_37  and  C_24 
REMARK    5  A    between atoms: C_28  and  C_25 
REMARK    6  A    between atoms: C_30  and  C_26 
REMARK    7  A    between atoms: N_39  and  C_27 
REMARK       I    between atoms: N_32  and  C_28 
REMARK    8  A    between atoms: N_37  and  C_29 
REMARK    9  A    between atoms: N_39  and  C_29 
REMARK   10  A    between atoms: O_44  and  C_29 
ROOT
HETATM    1  C   UNK N   1      28.646  16.200   3.146  0.00  0.00     0.223 C 
ENDROOT
BRANCH   1   2
HETATM    2  N   UNK N   1      27.446  16.049   2.731  0.00  0.00    -0.320 N 
ATOM      3  HN  UNK N   1      27.219  16.480   1.836  1.00  0.00     0.169 HD
BRANCH   2   4
HETATM    4  C   UNK N   1      26.402  15.352   3.374  0.00  0.00     0.074 C 
HETATM    5  C   UNK N   1      26.376  15.135   4.767  0.00  0.00     0.035 C 
HETATM    6  C   UNK N   1      25.176  14.850   5.415  0.00  0.00     0.040 C 
HETATM    7  C   UNK N   1      24.011  14.811   4.657  0.00  0.00     0.079 C 
HETATM    8  C   UNK N   1      24.074  14.867   3.254  0.00  0.00     0.081 C 
HETATM    9  C   UNK N   1      25.259  15.135   2.619  0.00  0.00     0.145 C 
HETATM   10  F   UNK N   1      25.251  15.403   1.290  0.00  0.00    -0.204 F 
BRANCH   7  11
HETATM   11  O   UNK N   1      22.831  15.114   5.234  0.00  0.00    -0.311 OA
BRANCH  11  12
HETATM   12  C   UNK N   1      22.321  14.130   6.023  0.00  0.00     0.079 A 
HETATM   13  C   UNK N   1      22.030  12.861   5.472  0.00  0.00     0.054 A 
HETATM   14  C   UNK N   1      21.764  11.787   6.313  0.00  0.00     0.091 A 
HETATM   15  N   UNK N   1      21.805  11.961   7.658  0.00  0.00    -0.361 N 
HETATM   16  C   UNK N   1      22.072  13.176   8.220  0.00  0.00     0.103 A 
ATOM     17  HN  UNK N   1      21.633  11.160   8.266  1.00  0.00     0.165 HD
HETATM   18  C   UNK N   1      22.332  14.280   7.399  0.00  0.00     0.072 A 
BRANCH  16  19
HETATM   19  C   UNK N   1      22.165  13.345   9.693  0.00  0.00     0.267 C 
HETATM   20  N   UNK N   1      23.313  13.148  10.393  0.00  0.00    -0.360 N 
HETATM   21  C   UNK N   1      24.562  12.723   9.816  0.00  0.00     0.149 C 
HETATM   22  H   UNK N   1      23.289  13.309  11.364  0.00  0.00     0.162 HD
HETATM   23  O   UNK N   1      21.162  13.682  10.304  0.00  0.00    -0.266 OA
ENDBRANCH  16  19
ENDBRANCH  11  12
ENDBRANCH   7  11
ENDBRANCH   2   4
ENDBRANCH   1   2
BRANCH   1  24
HETATM   24  N   UNK N   1      29.102  17.423   3.713  0.00  0.00    -0.307 N 
HETATM   25  H   UNK N   1      29.544  18.100   3.149  0.00  0.00     0.171 HD
BRANCH  24  26
HETATM   26  C   UNK N   1      28.914  17.656   5.102  0.00  0.00     0.132 A 
HETATM   27  C   UNK N   1      29.766  17.243   6.096  0.00  0.00     0.077 A 
HETATM   28  C   UNK N   1      29.211  17.779   7.247  0.00  0.00     0.037 A 
HETATM   29  N   UNK N   1      28.076  18.459   6.942  0.00  0.00    -0.295 N 
HETATM   30  N   UNK N   1      27.903  18.383   5.625  0.00  0.00    -0.240 N 
ATOM     31  HN  UNK N   1      27.465  18.940   7.602  1.00  0.00     0.187 HD
BRANCH  28  32
HETATM   32  C   UNK N   1      29.840  17.673   8.614  0.00  0.00    -0.007 C 
HETATM   33  C   UNK N   1      28.804  17.231   9.631  0.00  0.00     0.021 C 
HETATM   34  C   UNK N   1      30.436  18.994   9.062  0.00  0.00     0.021 C 
HETATM   35  C   UNK N   1      30.953  16.638   8.580  0.00  0.00     0.021 C 
ENDBRANCH  28  32
BRANCH  30  36
HETATM   36  C   UNK N   1      26.851  19.034   4.880  0.00  0.00     0.059 A 
HETATM   37  C   UNK N   1      27.095  20.070   3.964  0.00  0.00     0.034 A 
HETATM   38  C   UNK N   1      26.021  20.628   3.234  0.00  0.00     0.033 A 
HETATM   39  C   UNK N   1      24.718  20.119   3.391  0.00  0.00     0.042 A 
HETATM   40  C   UNK N   1      24.495  19.076   4.296  0.00  0.00    -0.007 A 
HETATM   41  N   UNK N   1      23.675  20.611   2.669  0.00  0.00    -0.365 N 
HETATM   42  C   UNK N   1      23.220  18.531   4.439  0.00  0.00     0.015 A 
HETATM   43  C   UNK N   1      25.544  18.578   5.030  0.00  0.00     0.045 A 
HETATM   44  C   UNK N   1      22.171  19.038   3.678  0.00  0.00     0.018 A 
HETATM   45  C   UNK N   1      22.418  20.095   2.795  0.00  0.00     0.088 A 
ATOM     46  HN  UNK N   1      23.836  21.382   2.019  1.00  0.00     0.165 HD
ENDBRANCH  30  36
ENDBRANCH  24  26
ENDBRANCH   1  24
BRANCH   1  47
HETATM   47  O   UNK N   1      29.496  15.173   2.986  0.00  0.00    -0.332 OA
HETATM   48  H   UNK N   1      29.924  14.750   3.704  0.00  0.00     0.220 HD
ENDBRANCH   1  47
TORSDOF 10
ENDMDL
MODEL 3
REMARK VINA RESULT:      -8.4      3.042     10.333
REMARK  10 active torsions:
REMARK  status: ('A' for Active; 'I' for Inactive)
REMARK    1  A    between atoms: N_42  and  C_19 
REMARK    2  A    between atoms: O_45  and  C_20 
REMARK    3  A    between atoms: O_45  and  C_21 
REMARK    4  A    between atoms: N_37  and  C_24 
REMARK    5  A    between atoms: C_28  and  C_25 
REMARK    6  A    between atoms: C_30  and  C_26 
REMARK    7  A    between atoms: N_39  and  C_27 
REMARK       I    between atoms: N_32  and  C_28 
REMARK    8  A    between atoms: N_37  and  C_29 
REMARK    9  A    between atoms: N_39  and  C_29 
REMARK   10  A    between atoms: O_44  and  C_29 
ROOT
HETATM    1  C   UNK N   1      29.063  16.689   3.038  0.00  0.00     0.223 C 
ENDROOT
BRANCH   1   2
HETATM    2  N   UNK N   1      30.236  16.381   2.633  0.00  0.00    -0.320 N 
ATOM      3  HN  UNK N   1      30.338  16.204   1.634  1.00  0.00     0.169 HD
BRANCH   2   4
HETATM    4  C   UNK N   1      31.405  16.258   3.413  0.00  0.00     0.074 C 
HETATM    5  C   UNK N   1      32.318  17.318   3.590  0.00  0.00     0.035 C 
HETATM    6  C   UNK N   1      33.193  17.322   4.673  0.00  0.00     0.040 C 
HETATM    7  C   UNK N   1      33.124  16.271   5.581  0.00  0.00     0.079 C 
HETATM    8  C   UNK N   1      32.328  15.147   5.305  0.00  0.00     0.081 C 
HETATM    9  C   UNK N   1      31.476  15.140   4.231  0.00  0.00     0.145 C 
HETATM   10  F   UNK N   1      30.564  14.144   4.116  0.00  0.00    -0.204 F 
BRANCH   7  11
HETATM   11  O   UNK N   1      33.479  16.477   6.865  0.00  0.00    -0.311 OA
BRANCH  11  12
HETATM   12  C   UNK N   1      34.211  15.470   7.414  0.00  0.00     0.079 A 
HETATM   13  C   UNK N   1      35.418  15.058   6.805  0.00  0.00     0.054 A 
HETATM   14  C   UNK N   1      36.292  14.226   7.493  0.00  0.00     0.091 A 
HETATM   15  N   UNK N   1      35.987  13.830   8.755  0.00  0.00    -0.361 N 
HETATM   16  C   UNK N   1      34.824  14.200   9.366  0.00  0.00     0.103 A 
ATOM     17  HN  UNK N   1      36.647  13.239   9.262  1.00  0.00     0.165 HD
HETATM   18  C   UNK N   1      33.917  15.028   8.693  0.00  0.00     0.072 A 
BRANCH  16  19
HETATM   19  C   UNK N   1      34.523  13.802  10.765  0.00  0.00     0.267 C 
HETATM   20  N   UNK N   1      34.354  12.509  11.150  0.00  0.00    -0.360 N 
HETATM   21  C   UNK N   1      34.409  11.376  10.263  0.00  0.00     0.149 C 
HETATM   22  H   UNK N   1      34.183  12.335  12.104  0.00  0.00     0.162 HD
HETATM   23  O   UNK N   1      34.427  14.677  11.611  0.00  0.00    -0.266 OA
ENDBRANCH  16  19
ENDBRANCH  11  12
ENDBRANCH   7  11
ENDBRANCH   2   4
ENDBRANCH   1   2
BRANCH   1  24
HETATM   24  N   UNK N   1      28.775  17.949   3.633  0.00  0.00    -0.307 N 
HETATM   25  H   UNK N   1      28.764  18.768   3.086  0.00  0.00     0.171 HD
BRANCH  24  26
HETATM   26  C   UNK N   1      28.505  18.012   5.028  0.00  0.00     0.132 A 
HETATM   27  C   UNK N   1      29.366  17.609   6.018  0.00  0.00     0.077 A 
HETATM   28  C   UNK N   1      28.702  17.950   7.186  0.00  0.00     0.037 A 
HETATM   29  N   UNK N   1      27.501  18.509   6.892  0.00  0.00    -0.295 N 
HETATM   30  N   UNK N   1      27.389  18.548   5.567  0.00  0.00    -0.240 N 
ATOM     31  HN  UNK N   1      26.809  18.839   7.564  1.00  0.00     0.187 HD
BRANCH  28  32
HETATM   32  C   UNK N   1      29.288  17.783   8.567  0.00  0.00    -0.007 C 
HETATM   33  C   UNK N   1      29.730  19.130   9.111  0.00  0.00     0.021 C 
HETATM   34  C   UNK N   1      30.476  16.841   8.563  0.00  0.00     0.021 C 
HETATM   35  C   UNK N   1      28.232  17.211   9.499  0.00  0.00     0.021 C 
ENDBRANCH  28  32
BRANCH  30  36
HETATM   36  C   UNK N   1      26.290  19.134   4.836  0.00  0.00     0.059 A 
HETATM   37  C   UNK N   1      26.457  20.197   3.932  0.00  0.00     0.034 A 
HETATM   38  C   UNK N   1      25.343  20.689   3.215  0.00  0.00     0.033 A 
HETATM   39  C   UNK N   1      24.079  20.091   3.373  0.00  0.00     0.042 A 
HETATM   40  C   UNK N   1      23.933  19.023   4.266  0.00  0.00    -0.007 A 
HETATM   41  N   UNK N   1      23.000  20.519   2.663  0.00  0.00    -0.365 N 
HETATM   42  C   UNK N   1      22.699  18.390   4.408  0.00  0.00     0.015 A 
HETATM   43  C   UNK N   1      25.019  18.589   4.987  0.00  0.00     0.045 A 
HETATM   44  C   UNK N   1      21.614  18.833   3.660  0.00  0.00     0.018 A 
HETATM   45  C   UNK N   1      21.781  19.916   2.790  0.00  0.00     0.088 A 
ATOM     46  HN  UNK N   1      23.103  21.308   2.023  1.00  0.00     0.165 HD
ENDBRANCH  30  36
ENDBRANCH  24  26
ENDBRANCH   1  24
BRANCH   1  47
HETATM   47  O   UNK N   1      28.102  15.758   2.933  0.00  0.00    -0.332 OA
HETATM   48  H   UNK N   1      27.418  15.802   2.293  0.00  0.00     0.220 HD
ENDBRANCH   1  47
TORSDOF 10
ENDMDL
MODEL 4
REMARK VINA RESULT:      -8.4      2.875      4.940
REMARK  10 active torsions:
REMARK  status: ('A' for Active; 'I' for Inactive)
REMARK    1  A    between atoms: N_42  and  C_19 
REMARK    2  A    between atoms: O_45  and  C_20 
REMARK    3  A    between atoms: O_45  and  C_21 
REMARK    4  A    between atoms: N_37  and  C_24 
REMARK    5  A    between atoms: C_28  and  C_25 
REMARK    6  A    between atoms: C_30  and  C_26 
REMARK    7  A    between atoms: N_39  and  C_27 
REMARK       I    between atoms: N_32  and  C_28 
REMARK    8  A    between atoms: N_37  and  C_29 
REMARK    9  A    between atoms: N_39  and  C_29 
REMARK   10  A    between atoms: O_44  and  C_29 
ROOT
HETATM    1  C   UNK N   1      36.595  14.061  14.468  0.00  0.00     0.223 C 
ENDROOT
BRANCH   1   2
HETATM    2  N   UNK N   1      36.804  14.378  13.247  0.00  0.00    -0.320 N 
ATOM      3  HN  UNK N   1      37.567  15.030  13.072  1.00  0.00     0.169 HD
BRANCH   2   4
HETATM    4  C   UNK N   1      36.095  13.924  12.114  0.00  0.00     0.074 C 
HETATM    5  C   UNK N   1      34.716  14.159  11.935  0.00  0.00     0.035 C 
HETATM    6  C   UNK N   1      34.149  14.098  10.664  0.00  0.00     0.040 C 
HETATM    7  C   UNK N   1      34.982  13.826   9.584  0.00  0.00     0.079 C 
HETATM    8  C   UNK N   1      36.315  13.436   9.795  0.00  0.00     0.081 C 
HETATM    9  C   UNK N   1      36.866  13.484  11.049  0.00  0.00     0.145 C 
HETATM   10  F   UNK N   1      38.204  13.319  11.190  0.00  0.00    -0.204 F 
BRANCH   7  11
HETATM   11  O   UNK N   1      34.664  14.302   8.363  0.00  0.00    -0.311 OA
BRANCH  11  12
HETATM   12  C   UNK N   1      34.102  15.542   8.371  0.00  0.00     0.079 A 
HETATM   13  C   UNK N   1      34.909  16.683   8.586  0.00  0.00     0.054 A 
HETATM   14  C   UNK N   1      34.395  17.949   8.336  0.00  0.00     0.091 A 
HETATM   15  N   UNK N   1      33.128  18.079   7.868  0.00  0.00    -0.361 N 
HETATM   16  C   UNK N   1      32.321  16.998   7.662  0.00  0.00     0.103 A 
ATOM     17  HN  UNK N   1      32.768  19.012   7.663  1.00  0.00     0.165 HD
HETATM   18  C   UNK N   1      32.805  15.709   7.917  0.00  0.00     0.072 A 
BRANCH  16  19
HETATM   19  C   UNK N   1      30.953  17.147   7.103  0.00  0.00     0.267 C 
HETATM   20  N   UNK N   1      29.897  17.600   7.830  0.00  0.00    -0.360 N 
HETATM   21  C   UNK N   1      29.956  17.956   9.224  0.00  0.00     0.149 C 
HETATM   22  H   UNK N   1      29.031  17.692   7.370  0.00  0.00     0.162 HD
HETATM   23  O   UNK N   1      30.767  16.853   5.931  0.00  0.00    -0.266 OA
ENDBRANCH  16  19
ENDBRANCH  11  12
ENDBRANCH   7  11
ENDBRANCH   2   4
ENDBRANCH   1   2
BRANCH   1  24
HETATM   24  N   UNK N   1      35.390  13.435  14.892  0.00  0.00    -0.307 N 
HETATM   25  H   UNK N   1      34.516  13.810  14.635  0.00  0.00     0.171 HD
BRANCH  24  26
HETATM   26  C   UNK N   1      35.462  12.262  15.692  0.00  0.00     0.132 A 
HETATM   27  C   UNK N   1      35.522  12.244  17.064  0.00  0.00     0.077 A 
HETATM   28  C   UNK N   1      35.485  10.894  17.374  0.00  0.00     0.037 A 
HETATM   29  N   UNK N   1      35.424  10.156  16.235  0.00  0.00    -0.295 N 
HETATM   30  N   UNK N   1      35.406  11.002  15.209  0.00  0.00    -0.240 N 
ATOM     31  HN  UNK N   1      35.398   9.139  16.176  1.00  0.00     0.187 HD
BRANCH  28  32
HETATM   32  C   UNK N   1      35.440  10.354  18.783  0.00  0.00    -0.007 C 
HETATM   33  C   UNK N   1      35.263  11.492  19.771  0.00  0.00     0.021 C 
HETATM   34  C   UNK N   1      36.703   9.592  19.132  0.00  0.00     0.021 C 
HETATM   35  C   UNK N   1      34.259   9.406  18.924  0.00  0.00     0.021 C 
ENDBRANCH  28  32
BRANCH  30  36
HETATM   36  C   UNK N   1      35.272  10.631  13.820  0.00  0.00     0.059 A 
HETATM   37  C   UNK N   1      34.032  10.575  13.162  0.00  0.00     0.034 A 
HETATM   38  C   UNK N   1      33.981  10.250  11.788  0.00  0.00     0.033 A 
HETATM   39  C   UNK N   1      35.171  10.026  11.069  0.00  0.00     0.042 A 
HETATM   40  C   UNK N   1      36.398  10.101  11.736  0.00  0.00    -0.007 A 
HETATM   41  N   UNK N   1      35.151   9.753   9.736  0.00  0.00    -0.365 N 
HETATM   42  C   UNK N   1      37.590   9.922  11.035  0.00  0.00     0.015 A 
HETATM   43  C   UNK N   1      36.424  10.374  13.082  0.00  0.00     0.045 A 
HETATM   44  C   UNK N   1      37.547   9.661   9.670  0.00  0.00     0.018 A 
HETATM   45  C   UNK N   1      36.306   9.571   9.031  0.00  0.00     0.088 A 
ATOM     46  HN  UNK N   1      34.254   9.684   9.253  1.00  0.00     0.165 HD
ENDBRANCH  30  36
ENDBRANCH  24  26
ENDBRANCH   1  24
BRANCH   1  47
HETATM   47  O   UNK N   1      37.538  14.385  15.367  0.00  0.00    -0.332 OA
HETATM   48  H   UNK N   1      37.399  14.334  16.292  0.00  0.00     0.220 HD
ENDBRANCH   1  47
TORSDOF 10
ENDMDL
MODEL 5
REMARK VINA RESULT:      -8.4      4.369      8.424
REMARK  10 active torsions:
REMARK  status: ('A' for Active; 'I' for Inactive)
REMARK    1  A    between atoms: N_42  and  C_19 
REMARK    2  A    between atoms: O_45  and  C_20 
REMARK    3  A    between atoms: O_45  and  C_21 
REMARK    4  A    between atoms: N_37  and  C_24 
REMARK    5  A    between atoms: C_28  and  C_25 
REMARK    6  A    between atoms: C_30  and  C_26 
REMARK    7  A    between atoms: N_39  and  C_27 
REMARK       I    between atoms: N_32  and  C_28 
REMARK    8  A    between atoms: N_37  and  C_29 
REMARK    9  A    between atoms: N_39  and  C_29 
REMARK   10  A    between atoms: O_44  and  C_29 
ROOT
HETATM    1  C   UNK N   1      29.615  14.111   4.363  0.00  0.00     0.223 C 
ENDROOT
BRANCH   1   2
HETATM    2  N   UNK N   1      28.521  14.164   3.702  0.00  0.00    -0.320 N 
ATOM      3  HN  UNK N   1      28.535  13.752   2.770  1.00  0.00     0.169 HD
BRANCH   2   4
HETATM    4  C   UNK N   1      27.298  14.728   4.120  0.00  0.00     0.074 C 
HETATM    5  C   UNK N   1      26.945  14.861   5.480  0.00  0.00     0.035 C 
HETATM    6  C   UNK N   1      25.977  15.782   5.871  0.00  0.00     0.040 C 
HETATM    7  C   UNK N   1      25.391  16.578   4.892  0.00  0.00     0.079 C 
HETATM    8  C   UNK N   1      25.632  16.323   3.532  0.00  0.00     0.081 C 
HETATM    9  C   UNK N   1      26.577  15.406   3.150  0.00  0.00     0.145 C 
HETATM   10  F   UNK N   1      26.946  15.341   1.847  0.00  0.00    -0.204 F 
BRANCH   7  11
HETATM   11  O   UNK N   1      24.930  17.802   5.219  0.00  0.00    -0.311 OA
BRANCH  11  12
HETATM   12  C   UNK N   1      23.627  18.018   4.890  0.00  0.00     0.079 A 
HETATM   13  C   UNK N   1      22.597  17.569   5.749  0.00  0.00     0.054 A 
HETATM   14  C   UNK N   1      21.294  18.012   5.556  0.00  0.00     0.091 A 
HETATM   15  N   UNK N   1      21.024  18.888   4.556  0.00  0.00    -0.361 N 
HETATM   16  C   UNK N   1      21.994  19.330   3.703  0.00  0.00     0.103 A 
ATOM     17  HN  UNK N   1      20.069  19.227   4.438  1.00  0.00     0.165 HD
HETATM   18  C   UNK N   1      23.315  18.892   3.864  0.00  0.00     0.072 A 
BRANCH  16  19
HETATM   19  C   UNK N   1      21.698  20.328   2.643  0.00  0.00     0.267 C 
HETATM   20  N   UNK N   1      20.961  20.041   1.537  0.00  0.00    -0.360 N 
HETATM   21  C   UNK N   1      20.408  18.746   1.235  0.00  0.00     0.149 C 
HETATM   22  H   UNK N   1      20.792  20.771   0.899  0.00  0.00     0.162 HD
HETATM   23  O   UNK N   1      22.134  21.462   2.773  0.00  0.00    -0.266 OA
ENDBRANCH  16  19
ENDBRANCH  11  12
ENDBRANCH   7  11
ENDBRANCH   2   4
ENDBRANCH   1   2
BRANCH   1  24
HETATM   24  N   UNK N   1      30.530  15.200   4.399  0.00  0.00    -0.307 N 
HETATM   25  H   UNK N   1      30.595  15.822   3.639  0.00  0.00     0.171 HD
BRANCH  24  26
HETATM   26  C   UNK N   1      31.351  15.378   5.547  0.00  0.00     0.132 A 
HETATM   27  C   UNK N   1      32.553  14.752   5.763  0.00  0.00     0.077 A 
HETATM   28  C   UNK N   1      33.003  15.311   6.949  0.00  0.00     0.037 A 
HETATM   29  N   UNK N   1      32.096  16.208   7.413  0.00  0.00    -0.295 N 
HETATM   30  N   UNK N   1      31.088  16.247   6.547  0.00  0.00    -0.240 N 
ATOM     31  HN  UNK N   1      32.173  16.753   8.272  1.00  0.00     0.187 HD
BRANCH  28  32
HETATM   32  C   UNK N   1      34.345  15.006   7.568  0.00  0.00    -0.007 C 
HETATM   33  C   UNK N   1      35.428  15.031   6.504  0.00  0.00     0.021 C 
HETATM   34  C   UNK N   1      34.355  13.649   8.246  0.00  0.00     0.021 C 
HETATM   35  C   UNK N   1      34.672  16.061   8.613  0.00  0.00     0.021 C 
ENDBRANCH  28  32
BRANCH  30  36
HETATM   36  C   UNK N   1      29.947  17.128   6.629  0.00  0.00     0.059 A 
HETATM   37  C   UNK N   1      29.312  17.441   7.842  0.00  0.00     0.034 A 
HETATM   38  C   UNK N   1      28.229  18.349   7.853  0.00  0.00     0.033 A 
HETATM   39  C   UNK N   1      27.814  18.970   6.660  0.00  0.00     0.042 A 
HETATM   40  C   UNK N   1      28.467  18.658   5.462  0.00  0.00    -0.007 A 
HETATM   41  N   UNK N   1      26.802  19.880   6.651  0.00  0.00    -0.365 N 
HETATM   42  C   UNK N   1      28.099  19.291   4.276  0.00  0.00     0.015 A 
HETATM   43  C   UNK N   1      29.488  17.739   5.466  0.00  0.00     0.045 A 
HETATM   44  C   UNK N   1      27.072  20.230   4.293  0.00  0.00     0.018 A 
HETATM   45  C   UNK N   1      26.422  20.508   5.500  0.00  0.00     0.088 A 
ATOM     46  HN  UNK N   1      26.316  20.096   7.522  1.00  0.00     0.165 HD
ENDBRANCH  30  36
ENDBRANCH  24  26
ENDBRANCH   1  24
BRANCH   1  47
HETATM   47  O   UNK N   1      29.909  12.963   4.993  0.00  0.00    -0.332 OA
HETATM   48  H   UNK N   1      29.509  12.144   4.773  0.00  0.00     0.220 HD
ENDBRANCH   1  47
TORSDOF 10
ENDMDL
MODEL 6
REMARK VINA RESULT:      -8.2      2.889      9.305
REMARK  10 active torsions:
REMARK  status: ('A' for Active; 'I' for Inactive)
REMARK    1  A    between atoms: N_42  and  C_19 
REMARK    2  A    between atoms: O_45  and  C_20 
REMARK    3  A    between atoms: O_45  and  C_21 
REMARK    4  A    between atoms: N_37  and  C_24 
REMARK    5  A    between atoms: C_28  and  C_25 
REMARK    6  A    between atoms: C_30  and  C_26 
REMARK    7  A    between atoms: N_39  and  C_27 
REMARK       I    between atoms: N_32  and  C_28 
REMARK    8  A    between atoms: N_37  and  C_29 
REMARK    9  A    between atoms: N_39  and  C_29 
REMARK   10  A    between atoms: O_44  and  C_29 
ROOT
HETATM    1  C   UNK N   1      33.245  17.549   6.247  0.00  0.00     0.223 C 
ENDROOT
BRANCH   1   2
HETATM    2  N   UNK N   1      32.821  17.539   7.453  0.00  0.00    -0.320 N 
ATOM      3  HN  UNK N   1      32.231  18.322   7.732  1.00  0.00     0.169 HD
BRANCH   2   4
HETATM    4  C   UNK N   1      33.079  16.566   8.442  0.00  0.00     0.074 C 
HETATM    5  C   UNK N   1      32.407  15.326   8.482  0.00  0.00     0.035 C 
HETATM    6  C   UNK N   1      32.962  14.246   9.164  0.00  0.00     0.040 C 
HETATM    7  C   UNK N   1      34.198  14.417   9.778  0.00  0.00     0.079 C 
HETATM    8  C   UNK N   1      34.774  15.696   9.868  0.00  0.00     0.081 C 
HETATM    9  C   UNK N   1      34.219  16.760   9.206  0.00  0.00     0.145 C 
HETATM   10  F   UNK N   1      34.911  17.923   9.125  0.00  0.00    -0.204 F 
BRANCH   7  11
HETATM   11  O   UNK N   1      35.018  13.359   9.929  0.00  0.00    -0.311 OA
BRANCH  11  12
HETATM   12  C   UNK N   1      34.696  12.542  10.969  0.00  0.00     0.079 A 
HETATM   13  C   UNK N   1      34.378  11.185  10.731  0.00  0.00     0.054 A 
HETATM   14  C   UNK N   1      34.308  10.294  11.795  0.00  0.00     0.091 A 
HETATM   15  N   UNK N   1      34.566  10.731  13.053  0.00  0.00    -0.361 N 
HETATM   16  C   UNK N   1      34.865  12.036  13.317  0.00  0.00     0.103 A 
ATOM     17  HN  UNK N   1      34.537  10.063  13.825  1.00  0.00     0.165 HD
HETATM   18  C   UNK N   1      34.930  12.961  12.267  0.00  0.00     0.072 A 
BRANCH  16  19
HETATM   19  C   UNK N   1      35.194  12.494  14.691  0.00  0.00     0.267 C 
HETATM   20  N   UNK N   1      36.424  12.346  15.250  0.00  0.00    -0.360 N 
HETATM   21  C   UNK N   1      37.543  11.705  14.608  0.00  0.00     0.149 C 
HETATM   22  H   UNK N   1      36.561  12.703  16.157  0.00  0.00     0.162 HD
HETATM   23  O   UNK N   1      34.318  13.034  15.350  0.00  0.00    -0.266 OA
ENDBRANCH  16  19
ENDBRANCH  11  12
ENDBRANCH   7  11
ENDBRANCH   2   4
ENDBRANCH   1   2
BRANCH   1  24
HETATM   24  N   UNK N   1      32.360  17.519   5.133  0.00  0.00    -0.307 N 
HETATM   25  H   UNK N   1      32.247  18.315   4.565  0.00  0.00     0.171 HD
BRANCH  24  26
HETATM   26  C   UNK N   1      31.640  16.326   4.852  0.00  0.00     0.132 A 
HETATM   27  C   UNK N   1      32.179  15.188   4.305  0.00  0.00     0.077 A 
HETATM   28  C   UNK N   1      31.123  14.290   4.313  0.00  0.00     0.037 A 
HETATM   29  N   UNK N   1      30.013  14.883   4.822  0.00  0.00    -0.295 N 
HETATM   30  N   UNK N   1      30.339  16.129   5.155  0.00  0.00    -0.240 N 
ATOM     31  HN  UNK N   1      29.095  14.452   4.930  1.00  0.00     0.187 HD
BRANCH  28  32
HETATM   32  C   UNK N   1      31.240  12.848   3.884  0.00  0.00    -0.007 C 
HETATM   33  C   UNK N   1      31.917  12.035   4.972  0.00  0.00     0.021 C 
HETATM   34  C   UNK N   1      32.035  12.707   2.600  0.00  0.00     0.021 C 
HETATM   35  C   UNK N   1      29.851  12.276   3.648  0.00  0.00     0.021 C 
ENDBRANCH  28  32
BRANCH  30  36
HETATM   36  C   UNK N   1      29.464  17.080   5.799  0.00  0.00     0.059 A 
HETATM   37  C   UNK N   1      29.258  17.106   7.189  0.00  0.00     0.034 A 
HETATM   38  C   UNK N   1      28.425  18.096   7.756  0.00  0.00     0.033 A 
HETATM   39  C   UNK N   1      27.836  19.079   6.938  0.00  0.00     0.042 A 
HETATM   40  C   UNK N   1      28.063  19.048   5.558  0.00  0.00    -0.007 A 
HETATM   41  N   UNK N   1      27.064  20.068   7.466  0.00  0.00    -0.365 N 
HETATM   42  C   UNK N   1      27.523  20.035   4.735  0.00  0.00     0.015 A 
HETATM   43  C   UNK N   1      28.840  18.051   5.021  0.00  0.00     0.045 A 
HETATM   44  C   UNK N   1      26.750  21.046   5.297  0.00  0.00     0.018 A 
HETATM   45  C   UNK N   1      26.521  21.042   6.678  0.00  0.00     0.088 A 
ATOM     46  HN  UNK N   1      26.886  20.081   8.471  1.00  0.00     0.165 HD
ENDBRANCH  30  36
ENDBRANCH  24  26
ENDBRANCH   1  24
BRANCH   1  47
HETATM   47  O   UNK N   1      34.574  17.537   6.053  0.00  0.00    -0.332 OA
HETATM   48  H   UNK N   1      34.997  16.942   5.466  0.00  0.00     0.220 HD
ENDBRANCH   1  47
TORSDOF 10
ENDMDL
MODEL 7
REMARK VINA RESULT:      -8.0      3.426     10.277
REMARK  10 active torsions:
REMARK  status: ('A' for Active; 'I' for Inactive)
REMARK    1  A    between atoms: N_42  and  C_19 
REMARK    2  A    between atoms: O_45  and  C_20 
REMARK    3  A    between atoms: O_45  and  C_21 
REMARK    4  A    between atoms: N_37  and  C_24 
REMARK    5  A    between atoms: C_28  and  C_25 
REMARK    6  A    between atoms: C_30  and  C_26 
REMARK    7  A    between atoms: N_39  and  C_27 
REMARK       I    between atoms: N_32  and  C_28 
REMARK    8  A    between atoms: N_37  and  C_29 
REMARK    9  A    between atoms: N_39  and  C_29 
REMARK   10  A    between atoms: O_44  and  C_29 
ROOT
HETATM    1  C   UNK N   1      30.987  16.590   3.248  0.00  0.00     0.223 C 
ENDROOT
BRANCH   1   2
HETATM    2  N   UNK N   1      31.188  17.397   4.219  0.00  0.00    -0.320 N 
ATOM      3  HN  UNK N   1      30.879  18.359   4.080  1.00  0.00     0.169 HD
BRANCH   2   4
HETATM    4  C   UNK N   1      31.789  17.106   5.462  0.00  0.00     0.074 C 
HETATM    5  C   UNK N   1      31.129  16.378   6.475  0.00  0.00     0.035 C 
HETATM    6  C   UNK N   1      31.860  15.742   7.476  0.00  0.00     0.040 C 
HETATM    7  C   UNK N   1      33.247  15.825   7.433  0.00  0.00     0.079 C 
HETATM    8  C   UNK N   1      33.880  16.683   6.518  0.00  0.00     0.081 C 
HETATM    9  C   UNK N   1      33.156  17.318   5.542  0.00  0.00     0.145 C 
HETATM   10  F   UNK N   1      33.813  17.958   4.543  0.00  0.00    -0.204 F 
BRANCH   7  11
HETATM   11  O   UNK N   1      33.989  14.831   7.961  0.00  0.00    -0.311 OA
BRANCH  11  12
HETATM   12  C   UNK N   1      34.927  15.244   8.857  0.00  0.00     0.079 A 
HETATM   13  C   UNK N   1      34.641  16.312   9.738  0.00  0.00     0.054 A 
HETATM   14  C   UNK N   1      35.480  16.561  10.817  0.00  0.00     0.091 A 
HETATM   15  N   UNK N   1      36.557  15.763  11.027  0.00  0.00    -0.361 N 
HETATM   16  C   UNK N   1      36.866  14.732  10.188  0.00  0.00     0.103 A 
ATOM     17  HN  UNK N   1      37.153  15.939  11.837  1.00  0.00     0.165 HD
HETATM   18  C   UNK N   1      36.047  14.464   9.085  0.00  0.00     0.072 A 
BRANCH  16  19
HETATM   19  C   UNK N   1      38.019  13.835  10.455  0.00  0.00     0.267 C 
HETATM   20  N   UNK N   1      38.051  12.951  11.487  0.00  0.00    -0.360 N 
HETATM   21  C   UNK N   1      37.004  12.795  12.464  0.00  0.00     0.149 C 
HETATM   22  H   UNK N   1      38.846  12.376  11.573  0.00  0.00     0.162 HD
HETATM   23  O   UNK N   1      38.984  13.889   9.707  0.00  0.00    -0.266 OA
ENDBRANCH  16  19
ENDBRANCH  11  12
ENDBRANCH   7  11
ENDBRANCH   2   4
ENDBRANCH   1   2
BRANCH   1  24
HETATM   24  N   UNK N   1      29.788  16.612   2.481  0.00  0.00    -0.307 N 
HETATM   25  H   UNK N   1      29.623  17.338   1.836  0.00  0.00     0.171 HD
BRANCH  24  26
HETATM   26  C   UNK N   1      28.833  15.575   2.657  0.00  0.00     0.132 A 
HETATM   27  C   UNK N   1      28.784  14.413   1.927  0.00  0.00     0.077 A 
HETATM   28  C   UNK N   1      27.759  13.696   2.523  0.00  0.00     0.037 A 
HETATM   29  N   UNK N   1      27.221  14.414   3.543  0.00  0.00    -0.295 N 
HETATM   30  N   UNK N   1      27.887  15.562   3.622  0.00  0.00    -0.240 N 
ATOM     31  HN  UNK N   1      26.446  14.126   4.139  1.00  0.00     0.187 HD
BRANCH  28  32
HETATM   32  C   UNK N   1      27.370  12.293   2.125  0.00  0.00    -0.007 C 
HETATM   33  C   UNK N   1      28.346  11.755   1.095  0.00  0.00     0.021 C 
HETATM   34  C   UNK N   1      25.969  12.240   1.549  0.00  0.00     0.021 C 
HETATM   35  C   UNK N   1      27.416  11.390   3.348  0.00  0.00     0.021 C 
ENDBRANCH  28  32
BRANCH  30  36
HETATM   36  C   UNK N   1      27.679  16.584   4.621  0.00  0.00     0.059 A 
HETATM   37  C   UNK N   1      27.824  16.344   5.997  0.00  0.00     0.034 A 
HETATM   38  C   UNK N   1      27.652  17.404   6.916  0.00  0.00     0.033 A 
HETATM   39  C   UNK N   1      27.379  18.705   6.452  0.00  0.00     0.042 A 
HETATM   40  C   UNK N   1      27.254  18.930   5.077  0.00  0.00    -0.007 A 
HETATM   41  N   UNK N   1      27.251  19.751   7.313  0.00  0.00    -0.365 N 
HETATM   42  C   UNK N   1      27.024  20.217   4.593  0.00  0.00     0.015 A 
HETATM   43  C   UNK N   1      27.380  17.877   4.203  0.00  0.00     0.045 A 
HETATM   44  C   UNK N   1      26.913  21.274   5.490  0.00  0.00     0.018 A 
HETATM   45  C   UNK N   1      27.022  21.019   6.862  0.00  0.00     0.088 A 
ATOM     46  HN  UNK N   1      27.327  19.584   8.317  1.00  0.00     0.165 HD
ENDBRANCH  30  36
ENDBRANCH  24  26
ENDBRANCH   1  24
BRANCH   1  47
HETATM   47  O   UNK N   1      31.931  15.670   2.996  0.00  0.00    -0.332 OA
HETATM   48  H   UNK N   1      32.749  15.879   2.588  0.00  0.00     0.220 HD
ENDBRANCH   1  47
TORSDOF 10
ENDMDL
MODEL 8
REMARK VINA RESULT:      -8.0      2.255      3.029
REMARK  10 active torsions:
REMARK  status: ('A' for Active; 'I' for Inactive)
REMARK    1  A    between atoms: N_42  and  C_19 
REMARK    2  A    between atoms: O_45  and  C_20 
REMARK    3  A    between atoms: O_45  and  C_21 
REMARK    4  A    between atoms: N_37  and  C_24 
REMARK    5  A    between atoms: C_28  and  C_25 
REMARK    6  A    between atoms: C_30  and  C_26 
REMARK    7  A    between atoms: N_39  and  C_27 
REMARK       I    between atoms: N_32  and  C_28 
REMARK    8  A    between atoms: N_37  and  C_29 
REMARK    9  A    between atoms: N_39  and  C_29 
REMARK   10  A    between atoms: O_44  and  C_29 
ROOT
HETATM    1  C   UNK N   1      35.729  15.913  10.966  0.00  0.00     0.223 C 
ENDROOT
BRANCH   1   2
HETATM    2  N   UNK N   1      35.500  15.759   9.717  0.00  0.00    -0.320 N 
ATOM      3  HN  UNK N   1      36.214  15.265   9.183  1.00  0.00     0.169 HD
BRANCH   2   4
HETATM    4  C   UNK N   1      34.369  16.197   8.996  0.00  0.00     0.074 C 
HETATM    5  C   UNK N   1      34.396  17.325   8.149  0.00  0.00     0.035 C 
HETATM    6  C   UNK N   1      33.443  17.477   7.146  0.00  0.00     0.040 C 
HETATM    7  C   UNK N   1      32.486  16.479   6.989  0.00  0.00     0.079 C 
HETATM    8  C   UNK N   1      32.372  15.449   7.937  0.00  0.00     0.081 C 
HETATM    9  C   UNK N   1      33.306  15.310   8.932  0.00  0.00     0.145 C 
HETATM   10  F   UNK N   1      33.299  14.187   9.692  0.00  0.00    -0.204 F 
BRANCH   7  11
HETATM   11  O   UNK N   1      31.946  16.261   5.773  0.00  0.00    -0.311 OA
BRANCH  11  12
HETATM   12  C   UNK N   1      30.594  16.411   5.724  0.00  0.00     0.079 A 
HETATM   13  C   UNK N   1      29.777  15.330   5.318  0.00  0.00     0.054 A 
HETATM   14  C   UNK N   1      28.404  15.390   5.516  0.00  0.00     0.091 A 
HETATM   15  N   UNK N   1      27.859  16.477   6.116  0.00  0.00    -0.361 N 
HETATM   16  C   UNK N   1      28.619  17.541   6.509  0.00  0.00     0.103 A 
ATOM     17  HN  UNK N   1      26.852  16.501   6.281  1.00  0.00     0.165 HD
HETATM   18  C   UNK N   1      30.005  17.517   6.311  0.00  0.00     0.072 A 
BRANCH  16  19
HETATM   19  C   UNK N   1      28.019  18.706   7.209  0.00  0.00     0.267 C 
HETATM   20  N   UNK N   1      27.829  18.747   8.555  0.00  0.00    -0.360 N 
HETATM   21  C   UNK N   1      28.146  17.672   9.460  0.00  0.00     0.149 C 
HETATM   22  H   UNK N   1      27.450  19.570   8.938  0.00  0.00     0.162 HD
HETATM   23  O   UNK N   1      27.686  19.676   6.546  0.00  0.00    -0.266 OA
ENDBRANCH  16  19
ENDBRANCH  11  12
ENDBRANCH   7  11
ENDBRANCH   2   4
ENDBRANCH   1   2
BRANCH   1  24
HETATM   24  N   UNK N   1      36.753  15.192  11.641  0.00  0.00    -0.307 N 
HETATM   25  H   UNK N   1      37.682  15.521  11.634  0.00  0.00     0.171 HD
BRANCH  24  26
HETATM   26  C   UNK N   1      36.420  13.992  12.326  0.00  0.00     0.132 A 
HETATM   27  C   UNK N   1      35.897  13.924  13.594  0.00  0.00     0.077 A 
HETATM   28  C   UNK N   1      35.662  12.571  13.778  0.00  0.00     0.037 A 
HETATM   29  N   UNK N   1      36.047  11.878  12.676  0.00  0.00    -0.295 N 
HETATM   30  N   UNK N   1      36.507  12.756  11.789  0.00  0.00    -0.240 N 
ATOM     31  HN  UNK N   1      35.995  10.867  12.551  1.00  0.00     0.187 HD
BRANCH  28  32
HETATM   32  C   UNK N   1      35.000  11.990  15.004  0.00  0.00    -0.007 C 
HETATM   33  C   UNK N   1      35.987  11.129  15.770  0.00  0.00     0.021 C 
HETATM   34  C   UNK N   1      33.790  11.150  14.644  0.00  0.00     0.021 C 
HETATM   35  C   UNK N   1      34.540  13.119  15.913  0.00  0.00     0.021 C 
ENDBRANCH  28  32
BRANCH  30  36
HETATM   36  C   UNK N   1      36.951  12.440  10.451  0.00  0.00     0.059 A 
HETATM   37  C   UNK N   1      36.073  12.353   9.358  0.00  0.00     0.034 A 
HETATM   38  C   UNK N   1      36.584  12.088   8.068  0.00  0.00     0.033 A 
HETATM   39  C   UNK N   1      37.972  11.954   7.870  0.00  0.00     0.042 A 
HETATM   40  C   UNK N   1      38.834  12.059   8.967  0.00  0.00    -0.007 A 
HETATM   41  N   UNK N   1      38.492  11.740   6.631  0.00  0.00    -0.365 N 
HETATM   42  C   UNK N   1      40.213  11.969   8.788  0.00  0.00     0.015 A 
HETATM   43  C   UNK N   1      38.313  12.272  10.221  0.00  0.00     0.045 A 
HETATM   44  C   UNK N   1      40.724  11.768   7.510  0.00  0.00     0.018 A 
HETATM   45  C   UNK N   1      39.840  11.645   6.433  0.00  0.00     0.088 A 
ATOM     46  HN  UNK N   1      37.862  11.648   5.833  1.00  0.00     0.165 HD
ENDBRANCH  30  36
ENDBRANCH  24  26
ENDBRANCH   1  24
BRANCH   1  47
HETATM   47  O   UNK N   1      34.932  16.750  11.648  0.00  0.00    -0.332 OA
HETATM   48  H   UNK N   1      35.243  17.538  12.046  0.00  0.00     0.220 HD
ENDBRANCH   1  47
TORSDOF 10
ENDMDL
MODEL 9
REMARK VINA RESULT:      -8.0      2.101      5.204
REMARK  10 active torsions:
REMARK  status: ('A' for Active; 'I' for Inactive)
REMARK    1  A    between atoms: N_42  and  C_19 
REMARK    2  A    between atoms: O_45  and  C_20 
REMARK    3  A    between atoms: O_45  and  C_21 
REMARK    4  A    between atoms: N_37  and  C_24 
REMARK    5  A    between atoms: C_28  and  C_25 
REMARK    6  A    between atoms: C_30  and  C_26 
REMARK    7  A    between atoms: N_39  and  C_27 
REMARK       I    between atoms: N_32  and  C_28 
REMARK    8  A    between atoms: N_37  and  C_29 
REMARK    9  A    between atoms: N_39  and  C_29 
REMARK   10  A    between atoms: O_44  and  C_29 
ROOT
HETATM    1  C   UNK N   1      34.782  16.162  10.362  0.00  0.00     0.223 C 
ENDROOT
BRANCH   1   2
HETATM    2  N   UNK N   1      33.869  16.676   9.628  0.00  0.00    -0.320 N 
ATOM      3  HN  UNK N   1      33.244  17.341  10.081  1.00  0.00     0.169 HD
BRANCH   2   4
HETATM    4  C   UNK N   1      33.631  16.425   8.260  0.00  0.00     0.074 C 
HETATM    5  C   UNK N   1      32.879  15.320   7.808  0.00  0.00     0.035 C 
HETATM    6  C   UNK N   1      32.302  15.331   6.540  0.00  0.00     0.040 C 
HETATM    7  C   UNK N   1      32.468  16.463   5.750  0.00  0.00     0.079 C 
HETATM    8  C   UNK N   1      33.351  17.482   6.146  0.00  0.00     0.081 C 
HETATM    9  C   UNK N   1      33.927  17.463   7.389  0.00  0.00     0.145 C 
HETATM   10  F   UNK N   1      34.591  18.560   7.828  0.00  0.00    -0.204 F 
BRANCH   7  11
HETATM   11  O   UNK N   1      31.528  16.781   4.838  0.00  0.00    -0.311 OA
BRANCH  11  12
HETATM   12  C   UNK N   1      30.250  16.722   5.303  0.00  0.00     0.079 A 
HETATM   13  C   UNK N   1      29.367  15.728   4.821  0.00  0.00     0.054 A 
HETATM   14  C   UNK N   1      28.163  15.498   5.474  0.00  0.00     0.091 A 
HETATM   15  N   UNK N   1      27.852  16.217   6.582  0.00  0.00    -0.361 N 
HETATM   16  C   UNK N   1      28.678  17.191   7.064  0.00  0.00     0.103 A 
ATOM     17  HN  UNK N   1      26.977  16.023   7.069  1.00  0.00     0.165 HD
HETATM   18  C   UNK N   1      29.893  17.455   6.421  0.00  0.00     0.072 A 
BRANCH  16  19
HETATM   19  C   UNK N   1      28.352  17.938   8.306  0.00  0.00     0.267 C 
HETATM   20  N   UNK N   1      27.759  19.161   8.304  0.00  0.00    -0.360 N 
HETATM   21  C   UNK N   1      27.406  19.899   7.118  0.00  0.00     0.149 C 
HETATM   22  H   UNK N   1      27.555  19.572   9.175  0.00  0.00     0.162 HD
HETATM   23  O   UNK N   1      28.625  17.427   9.382  0.00  0.00    -0.266 OA
ENDBRANCH  16  19
ENDBRANCH  11  12
ENDBRANCH   7  11
ENDBRANCH   2   4
ENDBRANCH   1   2
BRANCH   1  24
HETATM   24  N   UNK N   1      34.614  14.907  11.011  0.00  0.00    -0.307 N 
HETATM   25  H   UNK N   1      33.837  14.748  11.595  0.00  0.00     0.171 HD
BRANCH  24  26
HETATM   26  C   UNK N   1      35.581  13.886  10.807  0.00  0.00     0.132 A 
HETATM   27  C   UNK N   1      36.193  13.605   9.610  0.00  0.00     0.077 A 
HETATM   28  C   UNK N   1      37.104  12.612   9.935  0.00  0.00     0.037 A 
HETATM   29  N   UNK N   1      37.015  12.314  11.256  0.00  0.00    -0.295 N 
HETATM   30  N   UNK N   1      36.083  13.101  11.785  0.00  0.00    -0.240 N 
ATOM     31  HN  UNK N   1      37.563  11.612  11.754  1.00  0.00     0.187 HD
BRANCH  28  32
HETATM   32  C   UNK N   1      38.092  12.023   8.958  0.00  0.00    -0.007 C 
HETATM   33  C   UNK N   1      38.601  10.689   9.472  0.00  0.00     0.021 C 
HETATM   34  C   UNK N   1      39.274  12.945   8.730  0.00  0.00     0.021 C 
HETATM   35  C   UNK N   1      37.405  11.793   7.620  0.00  0.00     0.021 C 
ENDBRANCH  28  32
BRANCH  30  36
HETATM   36  C   UNK N   1      35.727  13.156  13.183  0.00  0.00     0.059 A 
HETATM   37  C   UNK N   1      34.800  12.277  13.768  0.00  0.00     0.034 A 
HETATM   38  C   UNK N   1      34.537  12.357  15.154  0.00  0.00     0.033 A 
HETATM   39  C   UNK N   1      35.230  13.284  15.955  0.00  0.00     0.042 A 
HETATM   40  C   UNK N   1      36.161  14.142  15.359  0.00  0.00    -0.007 A 
HETATM   41  N   UNK N   1      35.024  13.352  17.298  0.00  0.00    -0.365 N 
HETATM   42  C   UNK N   1      36.888  15.041  16.138  0.00  0.00     0.015 A 
HETATM   43  C   UNK N   1      36.370  14.079  14.002  0.00  0.00     0.045 A 
HETATM   44  C   UNK N   1      36.674  15.081  17.512  0.00  0.00     0.018 A 
HETATM   45  C   UNK N   1      35.722  14.227  18.080  0.00  0.00     0.088 A 
ATOM     46  HN  UNK N   1      34.334  12.737  17.730  1.00  0.00     0.165 HD
ENDBRANCH  30  36
ENDBRANCH  24  26
ENDBRANCH   1  24
BRANCH   1  47
HETATM   47  O   UNK N   1      35.905  16.873  10.549  0.00  0.00    -0.332 OA
HETATM   48  H   UNK N   1      36.560  16.974   9.886  0.00  0.00     0.220 HD
ENDBRANCH   1  47
TORSDOF 10
ENDMDL
