REMARK  5 active torsions:
REMARK  status: ('A' for Active; 'I' for Inactive)
REMARK    1  A    between atoms: C_2  and  N_3 
REMARK       I    between atoms: N_3  and  C_4 
REMARK       I    between atoms: C_4  and  N_6 
REMARK    2  A    between atoms: N_6  and  C_7 
REMARK    3  A    between atoms: C_10  and  C_13 
REMARK    4  A    between atoms: C_18  and  N_21 
REMARK    5  A    between atoms: N_30  and  C_32 
ROOT
HETATM    1  C   UNK N   1      -0.797  -1.127   0.032  0.00  0.00     0.117 A 
HETATM    2  N   UNK N   1       0.326  -1.855  -0.139  0.00  0.00    -0.343 N 
ATOM      3  HN  UNK N   1       0.250  -2.870  -0.209  1.00  0.00     0.167 HD
HETATM    4  C   UNK N   1       1.540  -1.287  -0.220  0.00  0.00     0.049 A 
HETATM    5  C   UNK N   1       1.678   0.110  -0.131  0.00  0.00     0.012 A 
HETATM    6  C   UNK N   1       0.486   0.889   0.066  0.00  0.00     0.113 A 
HETATM    7  N   UNK N   1      -0.712   0.225   0.132  0.00  0.00    -0.328 N 
ATOM      8  HN  UNK N   1      -1.568   0.764   0.260  1.00  0.00     0.169 HD
HETATM    9  C   UNK N   1       3.063   0.696  -0.272  0.00  0.00     0.075 C 
HETATM   10  C   UNK N   1       4.120  -0.314  -0.745  0.00  0.00     0.278 C 
HETATM   11  N   UNK N   1       3.981  -1.601  -0.062  0.00  0.00     0.103 N 
HETATM   12  C   UNK N   1       2.706  -2.186  -0.467  0.00  0.00     0.330 C 
ENDROOT
BRANCH   1  13
HETATM   13  C   UNK N   1      -2.087  -1.838   0.061  0.00  0.00     0.008 A 
HETATM   14  C   UNK N   1      -3.323  -1.175   0.141  0.00  0.00     0.017 A 
HETATM   15  C   UNK N   1      -4.517  -1.919   0.133  0.00  0.00     0.030 A 
HETATM   16  C   UNK N   1      -4.479  -3.322   0.050  0.00  0.00     0.036 A 
HETATM   17  C   UNK N   1      -3.239  -3.963  -0.028  0.00  0.00     0.030 A 
HETATM   18  C   UNK N   1      -2.064  -3.233  -0.025  0.00  0.00     0.017 A 
BRANCH  16  19
HETATM   19  N   UNK N   1      -5.697  -4.069   0.046  0.00  0.00    -0.309 N 
HETATM   20  C   UNK N   1      -5.781  -5.432   0.010  0.00  0.00     0.320 C 
HETATM   21  N   UNK N   1      -6.998  -6.023   0.009  0.00  0.00    -0.343 N 
HETATM   22  O   UNK N   1      -4.772  -6.124  -0.015  0.00  0.00    -0.247 OA
HETATM   23  H   UNK N   1      -7.808  -5.464   0.029  0.00  0.00     0.164 HD
HETATM   24  H   UNK N   1      -6.541  -3.562   0.072  0.00  0.00     0.170 HD
BRANCH  21  25
HETATM   25  C   UNK N   1      -7.130  -7.460  -0.020  0.00  0.00     0.120 C 
HETATM   26  C   UNK N   1      -8.593  -7.842  -0.004  0.00  0.00     0.026 C 
ENDBRANCH  21  25
ENDBRANCH  16  19
ENDBRANCH   1  13
BRANCH   6  27
HETATM   27  N   UNK N   1       0.456   2.334   0.143  0.00  0.00    -0.358 N 
HETATM   28  C   UNK N   1      -0.866   2.961   0.192  0.00  0.00     0.151 C 
HETATM   29  C   UNK N   1      -0.811   4.483   0.122  0.00  0.00     0.187 C 
HETATM   30  O   UNK N   1       0.173   4.853  -0.797  0.00  0.00    -0.388 OA
HETATM   31  C   UNK N   1       1.363   4.661  -0.092  0.00  0.00     0.192 C 
HETATM   32  C   UNK N   1       1.667   3.165   0.065  0.00  0.00     0.105 C 
HETATM   33  C   UNK N   1       2.487   3.031   1.338  0.00  0.00     0.034 C 
ENDBRANCH   6  27
BRANCH  11  34
HETATM   34  C   UNK N   1       5.025  -2.485  -0.588  0.00  0.00     0.270 A 
HETATM   35  C   UNK N   1       6.296  -2.331   0.204  0.00  0.00     0.205 A 
HETATM   36  O   UNK N   1       6.183  -3.605   0.782  0.00  0.00    -0.387 OA
HETATM   37  C   UNK N   1       4.996  -3.843   0.079  0.00  0.00     0.205 A 
ENDBRANCH  11  34
TORSDOF 5
