MODEL 1
REMARK VINA RESULT:      -7.4      0.000      0.000
REMARK  4 active torsions:
REMARK  status: ('A' for Active; 'I' for Inactive)
REMARK    1  A    between atoms: O_1  and  C_2 
REMARK    2  A    between atoms: C_3  and  O_4 
REMARK    3  A    between atoms: C_16  and  O_17 
REMARK    4  A    between atoms: C_18  and  O_19 
ROOT
HETATM    1  C   UNK N   1      31.323  21.754  -3.009  0.00  0.00     0.102 A 
HETATM    2  C   UNK N   1      30.349  22.653  -2.541  0.00  0.00     0.134 A 
HETATM    3  C   UNK N   1      29.309  23.057  -3.385  0.00  0.00     0.127 A 
HETATM    4  C   UNK N   1      29.249  22.549  -4.692  0.00  0.00     0.031 A 
HETATM    5  C   UNK N   1      30.215  21.651  -5.168  0.00  0.00     0.056 A 
HETATM    6  C   UNK N   1      31.258  21.257  -4.319  0.00  0.00     0.058 A 
HETATM    7  C   UNK N   1      30.095  21.176  -6.489  0.00  0.00     0.299 A 
HETATM    8  O   UNK N   1      30.917  20.398  -6.942  0.00  0.00    -0.259 OA
HETATM    9  O   UNK N   1      29.075  21.572  -7.254  0.00  0.00    -0.271 OA
HETATM   10  C   UNK N   1      28.142  22.423  -6.823  0.00  0.00     0.127 A 
HETATM   11  C   UNK N   1      28.209  22.942  -5.521  0.00  0.00     0.031 A 
HETATM   12  C   UNK N   1      27.245  23.841  -5.046  0.00  0.00     0.056 A 
HETATM   13  C   UNK N   1      26.195  24.226  -5.891  0.00  0.00     0.058 A 
HETATM   14  C   UNK N   1      26.114  23.708  -7.191  0.00  0.00     0.102 A 
HETATM   15  C   UNK N   1      27.086  22.806  -7.659  0.00  0.00     0.134 A 
HETATM   16  C   UNK N   1      27.369  24.322  -3.728  0.00  0.00     0.299 A 
HETATM   17  O   UNK N   1      26.554  25.110  -3.278  0.00  0.00    -0.259 OA
HETATM   18  O   UNK N   1      28.380  23.915  -2.957  0.00  0.00    -0.271 OA
ENDROOT
BRANCH   1  19
HETATM   19  O   UNK N   1      32.324  21.363  -2.202  0.00  0.00    -0.358 OA
HETATM   20  H   UNK N   1      32.627  21.933  -1.523  0.00  0.00     0.217 HD
ENDBRANCH   1  19
BRANCH   2  21
HETATM   21  O   UNK N   1      30.413  23.123  -1.282  0.00  0.00    -0.356 OA
HETATM   22  H   UNK N   1      31.177  22.967  -0.762  0.00  0.00     0.218 HD
ENDBRANCH   2  21
BRANCH  15  23
HETATM   23  O   UNK N   1      27.002  22.308  -8.905  0.00  0.00    -0.356 OA
HETATM   24  H   UNK N   1      27.607  22.590  -9.564  0.00  0.00     0.218 HD
ENDBRANCH  15  23
BRANCH  14  25
HETATM   25  O   UNK N   1      25.100  24.079  -7.990  0.00  0.00    -0.358 OA
HETATM   26  H   UNK N   1      24.620  23.432  -8.469  0.00  0.00     0.217 HD
ENDBRANCH  14  25
TORSDOF 4
ENDMDL
MODEL 2
REMARK VINA RESULT:      -7.4      0.122      6.171
REMARK  4 active torsions:
REMARK  status: ('A' for Active; 'I' for Inactive)
REMARK    1  A    between atoms: O_1  and  C_2 
REMARK    2  A    between atoms: C_3  and  O_4 
REMARK    3  A    between atoms: C_16  and  O_17 
REMARK    4  A    between atoms: C_18  and  O_19 
ROOT
HETATM    1  C   UNK N   1      26.185  23.759  -7.236  0.00  0.00     0.102 A 
HETATM    2  C   UNK N   1      27.191  22.900  -7.712  0.00  0.00     0.134 A 
HETATM    3  C   UNK N   1      28.241  22.521  -6.869  0.00  0.00     0.127 A 
HETATM    4  C   UNK N   1      28.270  22.999  -5.549  0.00  0.00     0.031 A 
HETATM    5  C   UNK N   1      27.270  23.855  -5.065  0.00  0.00     0.056 A 
HETATM    6  C   UNK N   1      26.226  24.237  -5.919  0.00  0.00     0.058 A 
HETATM    7  C   UNK N   1      27.355  24.297  -3.730  0.00  0.00     0.299 A 
HETATM    8  O   UNK N   1      26.508  25.046  -3.273  0.00  0.00    -0.259 OA
HETATM    9  O   UNK N   1      28.362  23.894  -2.953  0.00  0.00    -0.271 OA
HETATM   10  C   UNK N   1      29.324  23.077  -3.389  0.00  0.00     0.127 A 
HETATM   11  C   UNK N   1      29.304  22.610  -4.712  0.00  0.00     0.031 A 
HETATM   12  C   UNK N   1      30.304  21.756  -5.198  0.00  0.00     0.056 A 
HETATM   13  C   UNK N   1      31.341  21.364  -4.340  0.00  0.00     0.058 A 
HETATM   14  C   UNK N   1      31.367  21.820  -3.015  0.00  0.00     0.102 A 
HETATM   15  C   UNK N   1      30.359  22.675  -2.537  0.00  0.00     0.134 A 
HETATM   16  C   UNK N   1      30.223  21.320  -6.535  0.00  0.00     0.299 A 
HETATM   17  O   UNK N   1      31.076  20.581  -6.996  0.00  0.00    -0.259 OA
HETATM   18  O   UNK N   1      29.207  21.711  -7.307  0.00  0.00    -0.271 OA
ENDROOT
BRANCH   1  19
HETATM   19  O   UNK N   1      25.175  24.126  -8.043  0.00  0.00    -0.358 OA
HETATM   20  H   UNK N   1      24.954  23.600  -8.786  0.00  0.00     0.217 HD
ENDBRANCH   1  19
BRANCH   2  21
HETATM   21  O   UNK N   1      27.145  22.441  -8.975  0.00  0.00    -0.356 OA
HETATM   22  H   UNK N   1      27.673  21.709  -9.227  0.00  0.00     0.218 HD
ENDBRANCH   2  21
BRANCH  15  23
HETATM   23  O   UNK N   1      30.385  23.107  -1.264  0.00  0.00    -0.356 OA
HETATM   24  H   UNK N   1      31.203  23.323  -0.859  0.00  0.00     0.218 HD
ENDBRANCH  15  23
BRANCH  14  25
HETATM   25  O   UNK N   1      32.363  21.432  -2.201  0.00  0.00    -0.358 OA
HETATM   26  H   UNK N   1      32.359  21.689  -1.299  0.00  0.00     0.217 HD
ENDBRANCH  14  25
TORSDOF 4
ENDMDL
MODEL 3
REMARK VINA RESULT:      -7.1     10.546     11.804
REMARK  4 active torsions:
REMARK  status: ('A' for Active; 'I' for Inactive)
REMARK    1  A    between atoms: O_1  and  C_2 
REMARK    2  A    between atoms: C_3  and  O_4 
REMARK    3  A    between atoms: C_16  and  O_17 
REMARK    4  A    between atoms: C_18  and  O_19 
ROOT
HETATM    1  C   UNK N   1      26.168  18.282   4.883  0.00  0.00     0.102 A 
HETATM    2  C   UNK N   1      25.226  17.332   5.317  0.00  0.00     0.134 A 
HETATM    3  C   UNK N   1      23.894  17.431   4.901  0.00  0.00     0.127 A 
HETATM    4  C   UNK N   1      23.517  18.478   4.046  0.00  0.00     0.031 A 
HETATM    5  C   UNK N   1      24.449  19.429   3.607  0.00  0.00     0.056 A 
HETATM    6  C   UNK N   1      25.780  19.328   4.034  0.00  0.00     0.058 A 
HETATM    7  C   UNK N   1      24.008  20.453   2.747  0.00  0.00     0.299 A 
HETATM    8  O   UNK N   1      24.786  21.303   2.347  0.00  0.00    -0.259 OA
HETATM    9  O   UNK N   1      22.731  20.499   2.358  0.00  0.00    -0.271 OA
HETATM   10  C   UNK N   1      21.826  19.604   2.759  0.00  0.00     0.127 A 
HETATM   11  C   UNK N   1      22.199  18.565   3.625  0.00  0.00     0.031 A 
HETATM   12  C   UNK N   1      21.267  17.616   4.066  0.00  0.00     0.056 A 
HETATM   13  C   UNK N   1      19.938  17.710   3.629  0.00  0.00     0.058 A 
HETATM   14  C   UNK N   1      19.556  18.740   2.758  0.00  0.00     0.102 A 
HETATM   15  C   UNK N   1      20.499  19.688   2.321  0.00  0.00     0.134 A 
HETATM   16  C   UNK N   1      21.706  16.596   4.932  0.00  0.00     0.299 A 
HETATM   17  O   UNK N   1      20.925  15.754   5.341  0.00  0.00    -0.259 OA
HETATM   18  O   UNK N   1      22.986  16.541   5.309  0.00  0.00    -0.271 OA
ENDROOT
BRANCH   1  19
HETATM   19  O   UNK N   1      27.448  18.190   5.280  0.00  0.00    -0.358 OA
HETATM   20  H   UNK N   1      27.803  17.360   5.531  0.00  0.00     0.217 HD
ENDBRANCH   1  19
BRANCH   2  21
HETATM   21  O   UNK N   1      25.603  16.327   6.128  0.00  0.00    -0.356 OA
HETATM   22  H   UNK N   1      25.070  16.092   6.861  0.00  0.00     0.218 HD
ENDBRANCH   2  21
BRANCH  15  23
HETATM   23  O   UNK N   1      20.130  20.672   1.482  0.00  0.00    -0.356 OA
HETATM   24  H   UNK N   1      20.072  20.505   0.561  0.00  0.00     0.218 HD
ENDBRANCH  15  23
BRANCH  14  25
HETATM   25  O   UNK N   1      18.282  18.817   2.341  0.00  0.00    -0.358 OA
HETATM   26  H   UNK N   1      18.047  18.500   1.490  0.00  0.00     0.217 HD
ENDBRANCH  14  25
TORSDOF 4
ENDMDL
MODEL 4
REMARK VINA RESULT:      -7.1     16.275     17.802
REMARK  4 active torsions:
REMARK  status: ('A' for Active; 'I' for Inactive)
REMARK    1  A    between atoms: O_1  and  C_2 
REMARK    2  A    between atoms: C_3  and  O_4 
REMARK    3  A    between atoms: C_16  and  O_17 
REMARK    4  A    between atoms: C_18  and  O_19 
ROOT
HETATM    1  C   UNK N   1      22.847  12.120  11.600  0.00  0.00     0.102 A 
HETATM    2  C   UNK N   1      23.991  12.321  10.807  0.00  0.00     0.134 A 
HETATM    3  C   UNK N   1      23.887  13.011   9.594  0.00  0.00     0.127 A 
HETATM    4  C   UNK N   1      22.637  13.504   9.189  0.00  0.00     0.031 A 
HETATM    5  C   UNK N   1      21.491  13.310   9.973  0.00  0.00     0.056 A 
HETATM    6  C   UNK N   1      21.602  12.611  11.183  0.00  0.00     0.058 A 
HETATM    7  C   UNK N   1      20.267  13.833   9.512  0.00  0.00     0.299 A 
HETATM    8  O   UNK N   1      19.247  13.681  10.162  0.00  0.00    -0.259 OA
HETATM    9  O   UNK N   1      20.216  14.504   8.359  0.00  0.00    -0.271 OA
HETATM   10  C   UNK N   1      21.294  14.705   7.596  0.00  0.00     0.127 A 
HETATM   11  C   UNK N   1      22.541  14.200   7.994  0.00  0.00     0.031 A 
HETATM   12  C   UNK N   1      23.687  14.392   7.210  0.00  0.00     0.056 A 
HETATM   13  C   UNK N   1      23.579  15.102   6.006  0.00  0.00     0.058 A 
HETATM   14  C   UNK N   1      22.338  15.616   5.603  0.00  0.00     0.102 A 
HETATM   15  C   UNK N   1      21.195  15.420   6.397  0.00  0.00     0.134 A 
HETATM   16  C   UNK N   1      24.909  13.862   7.667  0.00  0.00     0.299 A 
HETATM   17  O   UNK N   1      25.928  14.004   7.012  0.00  0.00    -0.259 OA
HETATM   18  O   UNK N   1      24.963  13.205   8.828  0.00  0.00    -0.271 OA
ENDROOT
BRANCH   1  19
HETATM   19  O   UNK N   1      22.942  11.458  12.764  0.00  0.00    -0.358 OA
HETATM   20  H   UNK N   1      22.385  10.723  12.932  0.00  0.00     0.217 HD
ENDBRANCH   1  19
BRANCH   2  21
HETATM   21  O   UNK N   1      25.185  11.853  11.213  0.00  0.00    -0.356 OA
HETATM   22  H   UNK N   1      25.550  12.143  12.025  0.00  0.00     0.218 HD
ENDBRANCH   2  21
BRANCH  15  23
HETATM   23  O   UNK N   1      20.008  15.918   6.009  0.00  0.00    -0.356 OA
HETATM   24  H   UNK N   1      19.949  16.434   5.228  0.00  0.00     0.218 HD
ENDBRANCH  15  23
BRANCH  14  25
HETATM   25  O   UNK N   1      22.248  16.301   4.451  0.00  0.00    -0.358 OA
HETATM   26  H   UNK N   1      21.633  17.003   4.370  0.00  0.00     0.217 HD
ENDBRANCH  14  25
TORSDOF 4
ENDMDL
MODEL 5
REMARK VINA RESULT:      -7.1     12.562     13.957
REMARK  4 active torsions:
REMARK  status: ('A' for Active; 'I' for Inactive)
REMARK    1  A    between atoms: O_1  and  C_2 
REMARK    2  A    between atoms: C_3  and  O_4 
REMARK    3  A    between atoms: C_16  and  O_17 
REMARK    4  A    between atoms: C_18  and  O_19 
ROOT
HETATM    1  C   UNK N   1      20.714  19.782   1.207  0.00  0.00     0.102 A 
HETATM    2  C   UNK N   1      20.980  20.089   2.554  0.00  0.00     0.134 A 
HETATM    3  C   UNK N   1      20.873  19.092   3.530  0.00  0.00     0.127 A 
HETATM    4  C   UNK N   1      20.509  17.792   3.148  0.00  0.00     0.031 A 
HETATM    5  C   UNK N   1      20.243  17.476   1.808  0.00  0.00     0.056 A 
HETATM    6  C   UNK N   1      20.344  18.481   0.837  0.00  0.00     0.058 A 
HETATM    7  C   UNK N   1      19.885  16.151   1.490  0.00  0.00     0.299 A 
HETATM    8  O   UNK N   1      19.641  15.837   0.337  0.00  0.00    -0.259 OA
HETATM    9  O   UNK N   1      19.816  15.226   2.450  0.00  0.00    -0.271 OA
HETATM   10  C   UNK N   1      20.067  15.501   3.732  0.00  0.00     0.127 A 
HETATM   11  C   UNK N   1      20.418  16.804   4.117  0.00  0.00     0.031 A 
HETATM   12  C   UNK N   1      20.682  17.121   5.456  0.00  0.00     0.056 A 
HETATM   13  C   UNK N   1      20.592  16.113   6.426  0.00  0.00     0.058 A 
HETATM   14  C   UNK N   1      20.249  14.806   6.052  0.00  0.00     0.102 A 
HETATM   15  C   UNK N   1      19.987  14.498   4.705  0.00  0.00     0.134 A 
HETATM   16  C   UNK N   1      21.032  18.448   5.775  0.00  0.00     0.299 A 
HETATM   17  O   UNK N   1      21.264  18.764   6.930  0.00  0.00    -0.259 OA
HETATM   18  O   UNK N   1      21.117  19.369   4.813  0.00  0.00    -0.271 OA
ENDROOT
BRANCH   1  19
HETATM   19  O   UNK N   1      20.814  20.735   0.267  0.00  0.00    -0.358 OA
HETATM   20  H   UNK N   1      20.083  21.292   0.083  0.00  0.00     0.217 HD
ENDBRANCH   1  19
BRANCH   2  21
HETATM   21  O   UNK N   1      21.339  21.337   2.904  0.00  0.00    -0.356 OA
HETATM   22  H   UNK N   1      21.303  22.029   2.274  0.00  0.00     0.218 HD
ENDBRANCH   2  21
BRANCH  15  23
HETATM   23  O   UNK N   1      19.663  13.243   4.349  0.00  0.00    -0.356 OA
HETATM   24  H   UNK N   1      19.986  12.886   3.544  0.00  0.00     0.218 HD
ENDBRANCH  15  23
BRANCH  14  25
HETATM   25  O   UNK N   1      20.174  13.847   6.989  0.00  0.00    -0.358 OA
HETATM   26  H   UNK N   1      19.353  13.431   7.169  0.00  0.00     0.217 HD
ENDBRANCH  14  25
TORSDOF 4
ENDMDL
MODEL 6
REMARK VINA RESULT:      -6.9      1.109      4.890
REMARK  4 active torsions:
REMARK  status: ('A' for Active; 'I' for Inactive)
REMARK    1  A    between atoms: O_1  and  C_2 
REMARK    2  A    between atoms: C_3  and  O_4 
REMARK    3  A    between atoms: C_16  and  O_17 
REMARK    4  A    between atoms: C_18  and  O_19 
ROOT
HETATM    1  C   UNK N   1      26.302  24.521  -5.393  0.00  0.00     0.102 A 
HETATM    2  C   UNK N   1      26.922  24.547  -4.131  0.00  0.00     0.134 A 
HETATM    3  C   UNK N   1      28.054  23.760  -3.893  0.00  0.00     0.127 A 
HETATM    4  C   UNK N   1      28.563  22.958  -4.927  0.00  0.00     0.031 A 
HETATM    5  C   UNK N   1      27.952  22.926  -6.189  0.00  0.00     0.056 A 
HETATM    6  C   UNK N   1      26.814  23.711  -6.416  0.00  0.00     0.058 A 
HETATM    7  C   UNK N   1      28.514  22.103  -7.184  0.00  0.00     0.299 A 
HETATM    8  O   UNK N   1      28.010  22.043  -8.293  0.00  0.00    -0.259 OA
HETATM    9  O   UNK N   1      29.608  21.384  -6.922  0.00  0.00    -0.271 OA
HETATM   10  C   UNK N   1      30.209  21.400  -5.730  0.00  0.00     0.127 A 
HETATM   11  C   UNK N   1      29.693  22.191  -4.692  0.00  0.00     0.031 A 
HETATM   12  C   UNK N   1      30.302  22.222  -3.430  0.00  0.00     0.056 A 
HETATM   13  C   UNK N   1      31.448  21.446  -3.206  0.00  0.00     0.058 A 
HETATM   14  C   UNK N   1      31.976  20.658  -4.238  0.00  0.00     0.102 A 
HETATM   15  C   UNK N   1      31.358  20.634  -5.501  0.00  0.00     0.134 A 
HETATM   16  C   UNK N   1      29.736  23.039  -2.432  0.00  0.00     0.299 A 
HETATM   17  O   UNK N   1      30.233  23.090  -1.320  0.00  0.00    -0.259 OA
HETATM   18  O   UNK N   1      28.651  23.770  -2.699  0.00  0.00    -0.271 OA
ENDROOT
BRANCH   1  19
HETATM   19  O   UNK N   1      25.214  25.274  -5.625  0.00  0.00    -0.358 OA
HETATM   20  H   UNK N   1      24.941  25.444  -6.505  0.00  0.00     0.217 HD
ENDBRANCH   1  19
BRANCH   2  21
HETATM   21  O   UNK N   1      26.430  25.329  -3.153  0.00  0.00    -0.356 OA
HETATM   22  H   UNK N   1      26.726  26.213  -3.067  0.00  0.00     0.218 HD
ENDBRANCH   2  21
BRANCH  15  23
HETATM   23  O   UNK N   1      31.870  19.880  -6.490  0.00  0.00    -0.356 OA
HETATM   24  H   UNK N   1      31.753  20.138  -7.384  0.00  0.00     0.218 HD
ENDBRANCH  15  23
BRANCH  14  25
HETATM   25  O   UNK N   1      33.078  19.925  -4.014  0.00  0.00    -0.358 OA
HETATM   26  H   UNK N   1      33.001  19.012  -3.813  0.00  0.00     0.217 HD
ENDBRANCH  14  25
TORSDOF 4
ENDMDL
MODEL 7
REMARK VINA RESULT:      -6.9      1.119      3.840
REMARK  4 active torsions:
REMARK  status: ('A' for Active; 'I' for Inactive)
REMARK    1  A    between atoms: O_1  and  C_2 
REMARK    2  A    between atoms: C_3  and  O_4 
REMARK    3  A    between atoms: C_16  and  O_17 
REMARK    4  A    between atoms: C_18  and  O_19 
ROOT
HETATM    1  C   UNK N   1      32.235  20.723  -4.064  0.00  0.00     0.102 A 
HETATM    2  C   UNK N   1      31.669  20.658  -5.350  0.00  0.00     0.134 A 
HETATM    3  C   UNK N   1      30.498  21.369  -5.633  0.00  0.00     0.127 A 
HETATM    4  C   UNK N   1      29.906  22.147  -4.626  0.00  0.00     0.031 A 
HETATM    5  C   UNK N   1      30.463  22.219  -3.341  0.00  0.00     0.056 A 
HETATM    6  C   UNK N   1      31.633  21.497  -3.063  0.00  0.00     0.058 A 
HETATM    7  C   UNK N   1      29.823  23.020  -2.376  0.00  0.00     0.299 A 
HETATM    8  O   UNK N   1      30.273  23.105  -1.246  0.00  0.00    -0.259 OA
HETATM    9  O   UNK N   1      28.718  23.699  -2.694  0.00  0.00    -0.271 OA
HETATM   10  C   UNK N   1      28.170  23.650  -3.911  0.00  0.00     0.127 A 
HETATM   11  C   UNK N   1      28.753  22.861  -4.914  0.00  0.00     0.031 A 
HETATM   12  C   UNK N   1      28.195  22.787  -6.198  0.00  0.00     0.056 A 
HETATM   13  C   UNK N   1      27.033  23.518  -6.479  0.00  0.00     0.058 A 
HETATM   14  C   UNK N   1      26.446  24.315  -5.486  0.00  0.00     0.102 A 
HETATM   15  C   UNK N   1      27.013  24.383  -4.201  0.00  0.00     0.134 A 
HETATM   16  C   UNK N   1      28.831  21.980  -7.160  0.00  0.00     0.299 A 
HETATM   17  O   UNK N   1      28.375  21.886  -8.287  0.00  0.00    -0.259 OA
HETATM   18  O   UNK N   1      29.945  21.314  -6.847  0.00  0.00    -0.271 OA
ENDROOT
BRANCH   1  19
HETATM   19  O   UNK N   1      33.359  20.042  -3.788  0.00  0.00    -0.358 OA
HETATM   20  H   UNK N   1      34.146  20.503  -3.574  0.00  0.00     0.217 HD
ENDBRANCH   1  19
BRANCH   2  21
HETATM   21  O   UNK N   1      32.253  19.917  -6.309  0.00  0.00    -0.356 OA
HETATM   22  H   UNK N   1      31.744  19.306  -6.804  0.00  0.00     0.218 HD
ENDBRANCH   2  21
BRANCH  15  23
HETATM   23  O   UNK N   1      26.450  25.151  -3.253  0.00  0.00    -0.356 OA
HETATM   24  H   UNK N   1      26.973  25.490  -2.552  0.00  0.00     0.218 HD
ENDBRANCH  15  23
BRANCH  14  25
HETATM   25  O   UNK N   1      25.336  25.016  -5.769  0.00  0.00    -0.358 OA
HETATM   26  H   UNK N   1      24.857  25.434  -5.081  0.00  0.00     0.217 HD
ENDBRANCH  14  25
TORSDOF 4
ENDMDL
MODEL 8
REMARK VINA RESULT:      -6.8     22.670     25.902
REMARK  4 active torsions:
REMARK  status: ('A' for Active; 'I' for Inactive)
REMARK    1  A    between atoms: O_1  and  C_2 
REMARK    2  A    between atoms: C_3  and  O_4 
REMARK    3  A    between atoms: C_16  and  O_17 
REMARK    4  A    between atoms: C_18  and  O_19 
ROOT
HETATM    1  C   UNK N   1      36.868  12.662  13.670  0.00  0.00     0.102 A 
HETATM    2  C   UNK N   1      36.624  13.701  14.586  0.00  0.00     0.134 A 
HETATM    3  C   UNK N   1      36.182  13.400  15.879  0.00  0.00     0.127 A 
HETATM    4  C   UNK N   1      35.996  12.058  16.248  0.00  0.00     0.031 A 
HETATM    5  C   UNK N   1      36.237  11.016  15.341  0.00  0.00     0.056 A 
HETATM    6  C   UNK N   1      36.672  11.326  14.045  0.00  0.00     0.058 A 
HETATM    7  C   UNK N   1      36.033   9.691  15.774  0.00  0.00     0.299 A 
HETATM    8  O   UNK N   1      36.227   8.757  15.014  0.00  0.00    -0.259 OA
HETATM    9  O   UNK N   1      35.631   9.448  17.023  0.00  0.00    -0.271 OA
HETATM   10  C   UNK N   1      35.398  10.422  17.905  0.00  0.00     0.127 A 
HETATM   11  C   UNK N   1      35.571  11.764  17.534  0.00  0.00     0.031 A 
HETATM   12  C   UNK N   1      35.328  12.807  18.439  0.00  0.00     0.056 A 
HETATM   13  C   UNK N   1      34.904  12.497  19.738  0.00  0.00     0.058 A 
HETATM   14  C   UNK N   1      34.735  11.159  20.122  0.00  0.00     0.102 A 
HETATM   15  C   UNK N   1      34.982  10.120  19.208  0.00  0.00     0.134 A 
HETATM   16  C   UNK N   1      35.524  14.132  18.004  0.00  0.00     0.299 A 
HETATM   17  O   UNK N   1      35.318  15.067  18.759  0.00  0.00    -0.259 OA
HETATM   18  O   UNK N   1      35.941  14.375  16.759  0.00  0.00    -0.271 OA
ENDROOT
BRANCH   1  19
HETATM   19  O   UNK N   1      37.292  12.946  12.427  0.00  0.00    -0.358 OA
HETATM   20  H   UNK N   1      37.060  12.385  11.713  0.00  0.00     0.217 HD
ENDBRANCH   1  19
BRANCH   2  21
HETATM   21  O   UNK N   1      36.818  14.981  14.223  0.00  0.00    -0.356 OA
HETATM   22  H   UNK N   1      36.635  15.672  14.828  0.00  0.00     0.218 HD
ENDBRANCH   2  21
BRANCH  15  23
HETATM   23  O   UNK N   1      34.823   8.839  19.581  0.00  0.00    -0.356 OA
HETATM   24  H   UNK N   1      34.428   8.225  18.992  0.00  0.00     0.218 HD
ENDBRANCH  15  23
BRANCH  14  25
HETATM   25  O   UNK N   1      34.335  10.874  21.372  0.00  0.00    -0.358 OA
HETATM   26  H   UNK N   1      33.649  11.373  21.770  0.00  0.00     0.217 HD
ENDBRANCH  14  25
TORSDOF 4
ENDMDL
MODEL 9
REMARK VINA RESULT:      -6.8     13.391     16.391
REMARK  4 active torsions:
REMARK  status: ('A' for Active; 'I' for Inactive)
REMARK    1  A    between atoms: O_1  and  C_2 
REMARK    2  A    between atoms: C_3  and  O_4 
REMARK    3  A    between atoms: C_16  and  O_17 
REMARK    4  A    between atoms: C_18  and  O_19 
ROOT
HETATM    1  C   UNK N   1      36.076  13.900  10.674  0.00  0.00     0.102 A 
HETATM    2  C   UNK N   1      36.125  15.277  10.394  0.00  0.00     0.134 A 
HETATM    3  C   UNK N   1      35.206  15.841   9.503  0.00  0.00     0.127 A 
HETATM    4  C   UNK N   1      34.237  15.021   8.904  0.00  0.00     0.031 A 
HETATM    5  C   UNK N   1      34.180  13.647   9.177  0.00  0.00     0.056 A 
HETATM    6  C   UNK N   1      35.109  13.088  10.065  0.00  0.00     0.058 A 
HETATM    7  C   UNK N   1      33.182  12.879   8.545  0.00  0.00     0.299 A 
HETATM    8  O   UNK N   1      33.101  11.680   8.752  0.00  0.00    -0.259 OA
HETATM    9  O   UNK N   1      32.311  13.462   7.717  0.00  0.00    -0.271 OA
HETATM   10  C   UNK N   1      32.343  14.768   7.444  0.00  0.00     0.127 A 
HETATM   11  C   UNK N   1      33.320  15.586   8.032  0.00  0.00     0.031 A 
HETATM   12  C   UNK N   1      33.379  16.960   7.758  0.00  0.00     0.056 A 
HETATM   13  C   UNK N   1      32.443  17.521   6.879  0.00  0.00     0.058 A 
HETATM   14  C   UNK N   1      31.458  16.714   6.291  0.00  0.00     0.102 A 
HETATM   15  C   UNK N   1      31.406  15.337   6.573  0.00  0.00     0.134 A 
HETATM   16  C   UNK N   1      34.382  17.726   8.383  0.00  0.00     0.299 A 
HETATM   17  O   UNK N   1      34.470  18.922   8.167  0.00  0.00    -0.259 OA
HETATM   18  O   UNK N   1      35.243  17.146   9.224  0.00  0.00    -0.271 OA
ENDROOT
BRANCH   1  19
HETATM   19  O   UNK N   1      36.956  13.354  11.528  0.00  0.00    -0.358 OA
HETATM   20  H   UNK N   1      36.727  13.243  12.430  0.00  0.00     0.217 HD
ENDBRANCH   1  19
BRANCH   2  21
HETATM   21  O   UNK N   1      37.051  16.053  10.985  0.00  0.00    -0.356 OA
HETATM   22  H   UNK N   1      37.470  15.767  11.771  0.00  0.00     0.218 HD
ENDBRANCH   2  21
BRANCH  15  23
HETATM   23  O   UNK N   1      30.458  14.567   6.011  0.00  0.00    -0.356 OA
HETATM   24  H   UNK N   1      29.740  14.257   6.528  0.00  0.00     0.218 HD
ENDBRANCH  15  23
BRANCH  14  25
HETATM   25  O   UNK N   1      30.562  17.264   5.457  0.00  0.00    -0.358 OA
HETATM   26  H   UNK N   1      30.811  17.984   4.910  0.00  0.00     0.217 HD
ENDBRANCH  14  25
TORSDOF 4
ENDMDL
