MODEL 1
REMARK VINA RESULT:      -6.9      0.000      0.000
REMARK  4 active torsions:
REMARK  status: ('A' for Active; 'I' for Inactive)
REMARK    1  A    between atoms: O_1  and  C_2 
REMARK    2  A    between atoms: C_5  and  C_8 
REMARK    3  A    between atoms: C_13  and  O_14 
REMARK    4  A    between atoms: C_16  and  O_17 
ROOT
HETATM    1  C   UNK N   1      33.726  16.651   8.221  0.00  0.00     0.048 A 
HETATM    2  C   UNK N   1      34.511  17.652   8.813  0.00  0.00     0.159 A 
HETATM    3  O   UNK N   1      35.205  17.423   9.923  0.00  0.00    -0.321 OA
HETATM    4  C   UNK N   1      35.213  16.241  10.528  0.00  0.00     0.094 A 
HETATM    5  C   UNK N   1      35.978  16.067  11.685  0.00  0.00     0.074 A 
HETATM    6  C   UNK N   1      36.010  14.830  12.329  0.00  0.00     0.071 A 
HETATM    7  C   UNK N   1      35.282  13.755  11.819  0.00  0.00     0.074 A 
HETATM    8  C   UNK N   1      34.509  13.908  10.666  0.00  0.00     0.085 A 
HETATM    9  C   UNK N   1      34.461  15.160  10.006  0.00  0.00     0.082 A 
HETATM   10  C   UNK N   1      33.703  15.380   8.839  0.00  0.00     0.200 A 
HETATM   11  O   UNK N   1      33.044  14.471   8.359  0.00  0.00    -0.286 OA
ENDROOT
BRANCH   1  12
HETATM   12  C   UNK N   1      32.990  16.949   6.953  0.00  0.00    -0.020 A 
HETATM   13  C   UNK N   1      33.700  17.192   5.762  0.00  0.00     0.015 A 
HETATM   14  C   UNK N   1      33.018  17.397   4.557  0.00  0.00     0.037 A 
HETATM   15  C   UNK N   1      31.622  17.372   4.530  0.00  0.00     0.065 A 
HETATM   16  C   UNK N   1      30.905  17.158   5.707  0.00  0.00     0.037 A 
HETATM   17  C   UNK N   1      31.585  16.943   6.906  0.00  0.00     0.015 A 
BRANCH  15  18
HETATM   18  O   UNK N   1      30.967  17.546   3.371  0.00  0.00    -0.361 OA
HETATM   19  H   UNK N   1      30.494  16.836   2.986  0.00  0.00     0.217 HD
ENDBRANCH  15  18
ENDBRANCH   1  12
BRANCH   8  20
HETATM   20  O   UNK N   1      33.825  12.845  10.202  0.00  0.00    -0.360 OA
HETATM   21  H   UNK N   1      33.623  12.780   9.288  0.00  0.00     0.217 HD
ENDBRANCH   8  20
BRANCH   6  22
HETATM   22  O   UNK N   1      36.744  14.671  13.442  0.00  0.00    -0.361 OA
HETATM   23  H   UNK N   1      37.562  15.119  13.533  0.00  0.00     0.217 HD
ENDBRANCH   6  22
TORSDOF 4
ENDMDL
MODEL 2
REMARK VINA RESULT:      -6.7      4.384      6.888
REMARK  4 active torsions:
REMARK  status: ('A' for Active; 'I' for Inactive)
REMARK    1  A    between atoms: O_1  and  C_2 
REMARK    2  A    between atoms: C_5  and  C_8 
REMARK    3  A    between atoms: C_13  and  O_14 
REMARK    4  A    between atoms: C_16  and  O_17 
ROOT
HETATM    1  C   UNK N   1      27.780  18.710   5.781  0.00  0.00     0.048 A 
HETATM    2  C   UNK N   1      27.863  19.302   7.051  0.00  0.00     0.159 A 
HETATM    3  O   UNK N   1      28.743  18.882   7.954  0.00  0.00    -0.321 OA
HETATM    4  C   UNK N   1      29.602  17.899   7.711  0.00  0.00     0.094 A 
HETATM    5  C   UNK N   1      30.511  17.520   8.702  0.00  0.00     0.074 A 
HETATM    6  C   UNK N   1      31.430  16.497   8.463  0.00  0.00     0.071 A 
HETATM    7  C   UNK N   1      31.450  15.849   7.227  0.00  0.00     0.074 A 
HETATM    8  C   UNK N   1      30.550  16.210   6.223  0.00  0.00     0.085 A 
HETATM    9  C   UNK N   1      29.606  17.242   6.456  0.00  0.00     0.082 A 
HETATM   10  C   UNK N   1      28.672  17.655   5.486  0.00  0.00     0.200 A 
HETATM   11  O   UNK N   1      28.648  17.113   4.391  0.00  0.00    -0.286 OA
ENDROOT
BRANCH   1  12
HETATM   12  C   UNK N   1      26.793  19.241   4.788  0.00  0.00    -0.020 A 
HETATM   13  C   UNK N   1      25.444  18.848   4.853  0.00  0.00     0.015 A 
HETATM   14  C   UNK N   1      24.501  19.396   3.976  0.00  0.00     0.037 A 
HETATM   15  C   UNK N   1      24.897  20.335   3.020  0.00  0.00     0.065 A 
HETATM   16  C   UNK N   1      26.236  20.715   2.929  0.00  0.00     0.037 A 
HETATM   17  C   UNK N   1      27.174  20.175   3.809  0.00  0.00     0.015 A 
BRANCH  15  18
HETATM   18  O   UNK N   1      23.990  20.879   2.193  0.00  0.00    -0.361 OA
HETATM   19  H   UNK N   1      23.165  21.170   2.526  0.00  0.00     0.217 HD
ENDBRANCH  15  18
ENDBRANCH   1  12
BRANCH   8  20
HETATM   20  O   UNK N   1      30.604  15.566   5.043  0.00  0.00    -0.360 OA
HETATM   21  H   UNK N   1      30.935  16.005   4.283  0.00  0.00     0.217 HD
ENDBRANCH   8  20
BRANCH   6  22
HETATM   22  O   UNK N   1      32.297  16.135   9.420  0.00  0.00    -0.361 OA
HETATM   23  H   UNK N   1      32.030  16.132  10.319  0.00  0.00     0.217 HD
ENDBRANCH   6  22
TORSDOF 4
ENDMDL
MODEL 3
REMARK VINA RESULT:      -6.6      4.541      7.043
REMARK  4 active torsions:
REMARK  status: ('A' for Active; 'I' for Inactive)
REMARK    1  A    between atoms: O_1  and  C_2 
REMARK    2  A    between atoms: C_5  and  C_8 
REMARK    3  A    between atoms: C_13  and  O_14 
REMARK    4  A    between atoms: C_16  and  O_17 
ROOT
HETATM    1  C   UNK N   1      28.111  18.387   5.138  0.00  0.00     0.048 A 
HETATM    2  C   UNK N   1      29.053  17.544   4.529  0.00  0.00     0.159 A 
HETATM    3  O   UNK N   1      30.003  16.941   5.236  0.00  0.00    -0.321 OA
HETATM    4  C   UNK N   1      30.112  17.083   6.552  0.00  0.00     0.094 A 
HETATM    5  C   UNK N   1      31.126  16.406   7.234  0.00  0.00     0.074 A 
HETATM    6  C   UNK N   1      31.251  16.532   8.618  0.00  0.00     0.071 A 
HETATM    7  C   UNK N   1      30.357  17.331   9.332  0.00  0.00     0.074 A 
HETATM    8  C   UNK N   1      29.337  18.017   8.671  0.00  0.00     0.085 A 
HETATM    9  C   UNK N   1      29.204  17.905   7.265  0.00  0.00     0.082 A 
HETATM   10  C   UNK N   1      28.197  18.570   6.537  0.00  0.00     0.200 A 
HETATM   11  O   UNK N   1      27.395  19.285   7.118  0.00  0.00    -0.286 OA
ENDROOT
BRANCH   1  12
HETATM   12  C   UNK N   1      27.041  19.017   4.303  0.00  0.00    -0.020 A 
HETATM   13  C   UNK N   1      25.776  18.408   4.196  0.00  0.00     0.015 A 
HETATM   14  C   UNK N   1      24.747  19.028   3.478  0.00  0.00     0.037 A 
HETATM   15  C   UNK N   1      24.972  20.257   2.853  0.00  0.00     0.065 A 
HETATM   16  C   UNK N   1      26.228  20.859   2.929  0.00  0.00     0.037 A 
HETATM   17  C   UNK N   1      27.250  20.246   3.653  0.00  0.00     0.015 A 
BRANCH  15  18
HETATM   18  O   UNK N   1      23.980  20.864   2.183  0.00  0.00    -0.361 OA
HETATM   19  H   UNK N   1      24.177  21.459   1.487  0.00  0.00     0.217 HD
ENDBRANCH  15  18
ENDBRANCH   1  12
BRANCH   8  20
HETATM   20  O   UNK N   1      28.492  18.774   9.395  0.00  0.00    -0.360 OA
HETATM   21  H   UNK N   1      27.615  18.916   9.094  0.00  0.00     0.217 HD
ENDBRANCH   8  20
BRANCH   6  22
HETATM   22  O   UNK N   1      32.230  15.882   9.266  0.00  0.00    -0.361 OA
HETATM   23  H   UNK N   1      32.040  15.411  10.054  0.00  0.00     0.217 HD
ENDBRANCH   6  22
TORSDOF 4
ENDMDL
MODEL 4
REMARK VINA RESULT:      -6.6     11.343     12.807
REMARK  4 active torsions:
REMARK  status: ('A' for Active; 'I' for Inactive)
REMARK    1  A    between atoms: O_1  and  C_2 
REMARK    2  A    between atoms: C_5  and  C_8 
REMARK    3  A    between atoms: C_13  and  O_14 
REMARK    4  A    between atoms: C_16  and  O_17 
ROOT
HETATM    1  C   UNK N   1      21.644  15.610   6.788  0.00  0.00     0.048 A 
HETATM    2  C   UNK N   1      22.932  15.057   6.724  0.00  0.00     0.159 A 
HETATM    3  O   UNK N   1      23.346  14.162   7.615  0.00  0.00    -0.321 OA
HETATM    4  C   UNK N   1      22.572  13.726   8.602  0.00  0.00     0.094 A 
HETATM    5  C   UNK N   1      23.069  12.772   9.494  0.00  0.00     0.074 A 
HETATM    6  C   UNK N   1      22.268  12.292  10.531  0.00  0.00     0.071 A 
HETATM    7  C   UNK N   1      20.961  12.759  10.680  0.00  0.00     0.074 A 
HETATM    8  C   UNK N   1      20.446  13.713   9.802  0.00  0.00     0.085 A 
HETATM    9  C   UNK N   1      21.251  14.215   8.750  0.00  0.00     0.082 A 
HETATM   10  C   UNK N   1      20.791  15.177   7.829  0.00  0.00     0.200 A 
HETATM   11  O   UNK N   1      19.657  15.620   7.923  0.00  0.00    -0.286 OA
ENDROOT
BRANCH   1  12
HETATM   12  C   UNK N   1      21.214  16.590   5.742  0.00  0.00    -0.020 A 
HETATM   13  C   UNK N   1      21.637  17.930   5.811  0.00  0.00     0.015 A 
HETATM   14  C   UNK N   1      21.302  18.835   4.797  0.00  0.00     0.037 A 
HETATM   15  C   UNK N   1      20.533  18.414   3.710  0.00  0.00     0.065 A 
HETATM   16  C   UNK N   1      20.085  17.095   3.641  0.00  0.00     0.037 A 
HETATM   17  C   UNK N   1      20.428  16.191   4.647  0.00  0.00     0.015 A 
BRANCH  15  18
HETATM   18  O   UNK N   1      20.229  19.274   2.725  0.00  0.00    -0.361 OA
HETATM   19  H   UNK N   1      20.806  19.376   1.995  0.00  0.00     0.217 HD
ENDBRANCH  15  18
ENDBRANCH   1  12
BRANCH   8  20
HETATM   20  O   UNK N   1      19.179  14.134   9.976  0.00  0.00    -0.360 OA
HETATM   21  H   UNK N   1      18.464  13.550   9.813  0.00  0.00     0.217 HD
ENDBRANCH   8  20
BRANCH   6  22
HETATM   22  O   UNK N   1      22.752  11.378  11.386  0.00  0.00    -0.361 OA
HETATM   23  H   UNK N   1      22.947  10.511  11.087  0.00  0.00     0.217 HD
ENDBRANCH   6  22
TORSDOF 4
ENDMDL
MODEL 5
REMARK VINA RESULT:      -6.6      5.218      9.517
REMARK  4 active torsions:
REMARK  status: ('A' for Active; 'I' for Inactive)
REMARK    1  A    between atoms: O_1  and  C_2 
REMARK    2  A    between atoms: C_5  and  C_8 
REMARK    3  A    between atoms: C_13  and  O_14 
REMARK    4  A    between atoms: C_16  and  O_17 
ROOT
HETATM    1  C   UNK N   1      36.279  12.236  14.973  0.00  0.00     0.048 A 
HETATM    2  C   UNK N   1      37.482  11.566  14.700  0.00  0.00     0.159 A 
HETATM    3  O   UNK N   1      37.918  11.405  13.455  0.00  0.00    -0.321 OA
HETATM    4  C   UNK N   1      37.260  11.876  12.402  0.00  0.00     0.094 A 
HETATM    5  C   UNK N   1      37.786  11.684  11.121  0.00  0.00     0.074 A 
HETATM    6  C   UNK N   1      37.116  12.181  10.002  0.00  0.00     0.071 A 
HETATM    7  C   UNK N   1      35.919  12.880  10.156  0.00  0.00     0.074 A 
HETATM    8  C   UNK N   1      35.375  13.082  11.425  0.00  0.00     0.085 A 
HETATM    9  C   UNK N   1      36.040  12.576  12.570  0.00  0.00     0.082 A 
HETATM   10  C   UNK N   1      35.546  12.746  13.878  0.00  0.00     0.200 A 
HETATM   11  O   UNK N   1      34.498  13.347  14.062  0.00  0.00    -0.286 OA
ENDROOT
BRANCH   1  12
HETATM   12  C   UNK N   1      35.848  12.420  16.394  0.00  0.00    -0.020 A 
HETATM   13  C   UNK N   1      35.716  11.306  17.243  0.00  0.00     0.015 A 
HETATM   14  C   UNK N   1      35.386  11.475  18.593  0.00  0.00     0.037 A 
HETATM   15  C   UNK N   1      35.177  12.757  19.106  0.00  0.00     0.065 A 
HETATM   16  C   UNK N   1      35.280  13.869  18.270  0.00  0.00     0.037 A 
HETATM   17  C   UNK N   1      35.618  13.700  16.928  0.00  0.00     0.015 A 
BRANCH  15  18
HETATM   18  O   UNK N   1      34.883  12.923  20.405  0.00  0.00    -0.361 OA
HETATM   19  H   UNK N   1      34.709  13.779  20.743  0.00  0.00     0.217 HD
ENDBRANCH  15  18
ENDBRANCH   1  12
BRANCH   8  20
HETATM   20  O   UNK N   1      34.221  13.766  11.533  0.00  0.00    -0.360 OA
HETATM   21  H   UNK N   1      33.415  13.372  11.261  0.00  0.00     0.217 HD
ENDBRANCH   8  20
BRANCH   6  22
HETATM   22  O   UNK N   1      37.625  11.988   8.775  0.00  0.00    -0.361 OA
HETATM   23  H   UNK N   1      38.466  12.339   8.555  0.00  0.00     0.217 HD
ENDBRANCH   6  22
TORSDOF 4
ENDMDL
MODEL 6
REMARK VINA RESULT:      -6.5     11.721     13.935
REMARK  4 active torsions:
REMARK  status: ('A' for Active; 'I' for Inactive)
REMARK    1  A    between atoms: O_1  and  C_2 
REMARK    2  A    between atoms: C_5  and  C_8 
REMARK    3  A    between atoms: C_13  and  O_14 
REMARK    4  A    between atoms: C_16  and  O_17 
ROOT
HETATM    1  C   UNK N   1      21.827  14.570   7.602  0.00  0.00     0.048 A 
HETATM    2  C   UNK N   1      22.211  14.017   6.371  0.00  0.00     0.159 A 
HETATM    3  O   UNK N   1      22.210  14.741   5.256  0.00  0.00    -0.321 OA
HETATM    4  C   UNK N   1      21.864  16.022   5.237  0.00  0.00     0.094 A 
HETATM    5  C   UNK N   1      21.901  16.726   4.030  0.00  0.00     0.074 A 
HETATM    6  C   UNK N   1      21.553  18.077   3.991  0.00  0.00     0.071 A 
HETATM    7  C   UNK N   1      21.171  18.736   5.160  0.00  0.00     0.074 A 
HETATM    8  C   UNK N   1      21.125  18.052   6.375  0.00  0.00     0.085 A 
HETATM    9  C   UNK N   1      21.468  16.679   6.429  0.00  0.00     0.082 A 
HETATM   10  C   UNK N   1      21.444  15.931   7.622  0.00  0.00     0.200 A 
HETATM   11  O   UNK N   1      21.111  16.464   8.670  0.00  0.00    -0.286 OA
ENDROOT
BRANCH   1  12
HETATM   12  C   UNK N   1      21.877  13.723   8.835  0.00  0.00    -0.020 A 
HETATM   13  C   UNK N   1      23.111  13.260   9.325  0.00  0.00     0.015 A 
HETATM   14  C   UNK N   1      23.174  12.531  10.518  0.00  0.00     0.037 A 
HETATM   15  C   UNK N   1      22.005  12.249  11.228  0.00  0.00     0.065 A 
HETATM   16  C   UNK N   1      20.771  12.680  10.740  0.00  0.00     0.037 A 
HETATM   17  C   UNK N   1      20.710  13.415   9.556  0.00  0.00     0.015 A 
BRANCH  15  18
HETATM   18  O   UNK N   1      22.065  11.569  12.384  0.00  0.00    -0.361 OA
HETATM   19  H   UNK N   1      21.593  11.872  13.134  0.00  0.00     0.217 HD
ENDBRANCH  15  18
ENDBRANCH   1  12
BRANCH   8  20
HETATM   20  O   UNK N   1      20.757  18.724   7.482  0.00  0.00    -0.360 OA
HETATM   21  H   UNK N   1      21.295  18.695   8.249  0.00  0.00     0.217 HD
ENDBRANCH   8  20
BRANCH   6  22
HETATM   22  O   UNK N   1      21.587  18.745   2.828  0.00  0.00    -0.361 OA
HETATM   23  H   UNK N   1      20.889  19.330   2.601  0.00  0.00     0.217 HD
ENDBRANCH   6  22
TORSDOF 4
ENDMDL
MODEL 7
REMARK VINA RESULT:      -6.5     12.222     14.870
REMARK  4 active torsions:
REMARK  status: ('A' for Active; 'I' for Inactive)
REMARK    1  A    between atoms: O_1  and  C_2 
REMARK    2  A    between atoms: C_5  and  C_8 
REMARK    3  A    between atoms: C_13  and  O_14 
REMARK    4  A    between atoms: C_16  and  O_17 
ROOT
HETATM    1  C   UNK N   1      20.879  17.039   5.336  0.00  0.00     0.048 A 
HETATM    2  C   UNK N   1      19.770  16.748   4.527  0.00  0.00     0.159 A 
HETATM    3  O   UNK N   1      19.542  17.413   3.399  0.00  0.00    -0.321 OA
HETATM    4  C   UNK N   1      20.347  18.374   2.961  0.00  0.00     0.094 A 
HETATM    5  C   UNK N   1      20.055  19.021   1.758  0.00  0.00     0.074 A 
HETATM    6  C   UNK N   1      20.894  20.025   1.274  0.00  0.00     0.071 A 
HETATM    7  C   UNK N   1      22.037  20.386   1.988  0.00  0.00     0.074 A 
HETATM    8  C   UNK N   1      22.348  19.754   3.194  0.00  0.00     0.085 A 
HETATM    9  C   UNK N   1      21.500  18.739   3.700  0.00  0.00     0.082 A 
HETATM   10  C   UNK N   1      21.757  18.061   4.909  0.00  0.00     0.200 A 
HETATM   11  O   UNK N   1      22.742  18.347   5.571  0.00  0.00    -0.286 OA
ENDROOT
BRANCH   1  12
HETATM   12  C   UNK N   1      21.110  16.240   6.580  0.00  0.00    -0.020 A 
HETATM   13  C   UNK N   1      20.434  16.570   7.769  0.00  0.00     0.015 A 
HETATM   14  C   UNK N   1      20.586  15.783   8.916  0.00  0.00     0.037 A 
HETATM   15  C   UNK N   1      21.421  14.664   8.890  0.00  0.00     0.065 A 
HETATM   16  C   UNK N   1      22.117  14.339   7.726  0.00  0.00     0.037 A 
HETATM   17  C   UNK N   1      21.957  15.118   6.580  0.00  0.00     0.015 A 
BRANCH  15  18
HETATM   18  O   UNK N   1      21.551  13.894   9.983  0.00  0.00    -0.361 OA
HETATM   19  H   UNK N   1      22.275  13.306  10.060  0.00  0.00     0.217 HD
ENDBRANCH  15  18
ENDBRANCH   1  12
BRANCH   8  20
HETATM   20  O   UNK N   1      23.462  20.127   3.850  0.00  0.00    -0.360 OA
HETATM   21  H   UNK N   1      23.958  20.864   3.551  0.00  0.00     0.217 HD
ENDBRANCH   8  20
BRANCH   6  22
HETATM   22  O   UNK N   1      20.604  20.645   0.120  0.00  0.00    -0.361 OA
HETATM   23  H   UNK N   1      20.091  20.208  -0.532  0.00  0.00     0.217 HD
ENDBRANCH   6  22
TORSDOF 4
ENDMDL
MODEL 8
REMARK VINA RESULT:      -6.5      5.792      9.747
REMARK  4 active torsions:
REMARK  status: ('A' for Active; 'I' for Inactive)
REMARK    1  A    between atoms: O_1  and  C_2 
REMARK    2  A    between atoms: C_5  and  C_8 
REMARK    3  A    between atoms: C_13  and  O_14 
REMARK    4  A    between atoms: C_16  and  O_17 
ROOT
HETATM    1  C   UNK N   1      35.011  11.850  14.986  0.00  0.00     0.048 A 
HETATM    2  C   UNK N   1      33.984  11.000  14.548  0.00  0.00     0.159 A 
HETATM    3  O   UNK N   1      33.833  10.701  13.262  0.00  0.00    -0.321 OA
HETATM    4  C   UNK N   1      34.644  11.169  12.320  0.00  0.00     0.094 A 
HETATM    5  C   UNK N   1      34.436  10.800  10.989  0.00  0.00     0.074 A 
HETATM    6  C   UNK N   1      35.284  11.270   9.985  0.00  0.00     0.071 A 
HETATM    7  C   UNK N   1      36.352  12.109  10.308  0.00  0.00     0.074 A 
HETATM    8  C   UNK N   1      36.577  12.491  11.631  0.00  0.00     0.085 A 
HETATM    9  C   UNK N   1      35.719  12.027  12.658  0.00  0.00     0.082 A 
HETATM   10  C   UNK N   1      35.892  12.374  14.013  0.00  0.00     0.200 A 
HETATM   11  O   UNK N   1      36.810  13.110  14.342  0.00  0.00    -0.286 OA
ENDROOT
BRANCH   1  12
HETATM   12  C   UNK N   1      35.159  12.130  16.448  0.00  0.00    -0.020 A 
HETATM   13  C   UNK N   1      35.031  13.444  16.934  0.00  0.00     0.015 A 
HETATM   14  C   UNK N   1      35.093  13.704  18.308  0.00  0.00     0.037 A 
HETATM   15  C   UNK N   1      35.292  12.656  19.209  0.00  0.00     0.065 A 
HETATM   16  C   UNK N   1      35.445  11.352  18.740  0.00  0.00     0.037 A 
HETATM   17  C   UNK N   1      35.374  11.092  17.372  0.00  0.00     0.015 A 
BRANCH  15  18
HETATM   18  O   UNK N   1      35.329  12.901  20.529  0.00  0.00    -0.361 OA
HETATM   19  H   UNK N   1      35.033  13.723  20.864  0.00  0.00     0.217 HD
ENDBRANCH  15  18
ENDBRANCH   1  12
BRANCH   8  20
HETATM   20  O   UNK N   1      37.621  13.297  11.902  0.00  0.00    -0.360 OA
HETATM   21  H   UNK N   1      37.921  13.908  11.258  0.00  0.00     0.217 HD
ENDBRANCH   8  20
BRANCH   6  22
HETATM   22  O   UNK N   1      35.075  10.916   8.708  0.00  0.00    -0.361 OA
HETATM   23  H   UNK N   1      35.407  11.449   8.012  0.00  0.00     0.217 HD
ENDBRANCH   6  22
TORSDOF 4
ENDMDL
MODEL 9
REMARK VINA RESULT:      -6.4      4.757      9.811
REMARK  4 active torsions:
REMARK  status: ('A' for Active; 'I' for Inactive)
REMARK    1  A    between atoms: O_1  and  C_2 
REMARK    2  A    between atoms: C_5  and  C_8 
REMARK    3  A    between atoms: C_13  and  O_14 
REMARK    4  A    between atoms: C_16  and  O_17 
ROOT
HETATM    1  C   UNK N   1      35.758  12.973  15.773  0.00  0.00     0.048 A 
HETATM    2  C   UNK N   1      36.515  14.140  15.587  0.00  0.00     0.159 A 
HETATM    3  O   UNK N   1      36.689  14.666  14.379  0.00  0.00    -0.321 OA
HETATM    4  C   UNK N   1      36.153  14.138  13.285  0.00  0.00     0.094 A 
HETATM    5  C   UNK N   1      36.365  14.754  12.049  0.00  0.00     0.074 A 
HETATM    6  C   UNK N   1      35.800  14.223  10.890  0.00  0.00     0.071 A 
HETATM    7  C   UNK N   1      35.013  13.073  10.958  0.00  0.00     0.074 A 
HETATM    8  C   UNK N   1      34.789  12.440  12.182  0.00  0.00     0.085 A 
HETATM    9  C   UNK N   1      35.363  12.965  13.366  0.00  0.00     0.082 A 
HETATM   10  C   UNK N   1      35.175  12.376  14.632  0.00  0.00     0.200 A 
HETATM   11  O   UNK N   1      34.498  11.365  14.741  0.00  0.00    -0.286 OA
ENDROOT
BRANCH   1  12
HETATM   12  C   UNK N   1      35.563  12.438  17.157  0.00  0.00    -0.020 A 
HETATM   13  C   UNK N   1      35.837  11.086  17.438  0.00  0.00     0.015 A 
HETATM   14  C   UNK N   1      35.730  10.596  18.745  0.00  0.00     0.037 A 
HETATM   15  C   UNK N   1      35.340  11.447  19.782  0.00  0.00     0.065 A 
HETATM   16  C   UNK N   1      35.042  12.783  19.513  0.00  0.00     0.037 A 
HETATM   17  C   UNK N   1      35.158  13.273  18.212  0.00  0.00     0.015 A 
BRANCH  15  18
HETATM   18  O   UNK N   1      35.259  10.984  21.039  0.00  0.00    -0.361 OA
HETATM   19  H   UNK N   1      35.969  10.499  21.409  0.00  0.00     0.217 HD
ENDBRANCH  15  18
ENDBRANCH   1  12
BRANCH   8  20
HETATM   20  O   UNK N   1      34.019  11.336  12.208  0.00  0.00    -0.360 OA
HETATM   21  H   UNK N   1      33.900  10.829  11.428  0.00  0.00     0.217 HD
ENDBRANCH   8  20
BRANCH   6  22
HETATM   22  O   UNK N   1      36.012  14.817   9.706  0.00  0.00    -0.361 OA
HETATM   23  H   UNK N   1      36.869  15.125   9.481  0.00  0.00     0.217 HD
ENDBRANCH   6  22
TORSDOF 4
ENDMDL
