MODEL 1
REMARK VINA RESULT:      -9.0      0.000      0.000
REMARK  3 active torsions:
REMARK  status: ('A' for Active; 'I' for Inactive)
REMARK    1  A    between atoms: C_3  and  O_33 
REMARK    2  A    between atoms: C_20  and  C_30 
REMARK    3  A    between atoms: O_32  and  C_30 
ROOT
HETATM    1  C   UNK N   1      32.830  17.026   7.827  0.00  0.00     0.013 C 
HETATM    2  C   UNK N   1      33.438  17.621   6.573  0.00  0.00     0.033 C 
HETATM    3  C   UNK N   1      32.882  16.868   5.377  0.00  0.00     0.126 C 
HETATM    4  C   UNK N   1      33.391  15.413   5.397  0.00  0.00    -0.017 C 
HETATM    5  C   UNK N   1      32.842  14.724   6.692  0.00  0.00     0.005 C 
HETATM    6  C   UNK N   1      33.259  13.234   6.816  0.00  0.00     0.007 C 
HETATM    7  C   UNK N   1      34.636  12.996   7.476  0.00  0.00     0.011 C 
HETATM    8  C   UNK N   1      34.699  13.641   8.874  0.00  0.00    -0.021 C 
HETATM    9  C   UNK N   1      34.509  15.194   8.642  0.00  0.00     0.077 C 
HETATM   10  C   UNK N   1      33.084  15.518   8.033  0.00  0.00    -0.028 C 
HETATM   11  C   UNK N   1      34.824  15.974   9.908  0.00  0.00     0.155 C 
HETATM   12  C   UNK N   1      35.424  15.316  11.078  0.00  0.00     0.054 C 
HETATM   13  C   UNK N   1      35.949  14.077  11.026  0.00  0.00    -0.062 C 
HETATM   14  C   UNK N   1      36.021  13.330   9.678  0.00  0.00    -0.012 C 
HETATM   15  C   UNK N   1      36.128  11.793   9.887  0.00  0.00     0.015 C 
HETATM   16  C   UNK N   1      36.914  11.334  11.123  0.00  0.00     0.011 C 
HETATM   17  C   UNK N   1      36.389  11.992  12.405  0.00  0.00    -0.036 C 
HETATM   18  C   UNK N   1      36.616  13.508  12.276  0.00  0.00     0.025 C 
HETATM   19  C   UNK N   1      36.208  14.275  13.562  0.00  0.00     0.030 C 
HETATM   20  C   UNK N   1      36.386  13.521  14.897  0.00  0.00     0.042 C 
HETATM   21  C   UNK N   1      37.437  12.413  14.757  0.00  0.00     0.021 C 
HETATM   22  C   UNK N   1      37.186  11.426  13.596  0.00  0.00     0.011 C 
HETATM   23  C   UNK N   1      34.913  15.386   5.293  0.00  0.00     0.018 C 
HETATM   24  C   UNK N   1      32.835  14.696   4.170  0.00  0.00     0.018 C 
HETATM   25  C   UNK N   1      31.983  15.152   9.026  0.00  0.00     0.016 C 
HETATM   26  C   UNK N   1      33.567  13.017   9.718  0.00  0.00     0.017 C 
HETATM   27  C   UNK N   1      37.262  13.793   8.924  0.00  0.00     0.021 C 
HETATM   28  C   UNK N   1      34.914  11.638  12.593  0.00  0.00     0.016 C 
HETATM   29  C   UNK N   1      35.048  12.923  15.308  0.00  0.00     0.026 C 
HETATM   30  O   UNK N   1      34.689  17.188   9.929  0.00  0.00    -0.293 OA
ENDROOT
BRANCH  20  31
HETATM   31  C   UNK N   1      36.813  14.482  15.983  0.00  0.00     0.148 C 
HETATM   32  O   UNK N   1      36.184  14.534  17.034  0.00  0.00    -0.649 OA
BRANCH  31  33
HETATM   33  O   UNK N   1      37.875  15.291  15.813  0.00  0.00    -0.776 OA
HETATM   34  H   UNK N   1      38.736  15.330  16.181  0.00  0.00     0.167 HD
ENDBRANCH  31  33
ENDBRANCH  20  31
BRANCH   3  35
HETATM   35  O   UNK N   1      33.216  17.535   4.196  0.00  0.00    -0.395 OA
HETATM   36  H   UNK N   1      33.352  18.470   3.975  0.00  0.00     0.210 HD
ENDBRANCH   3  35
TORSDOF 3
ENDMDL
MODEL 2
REMARK VINA RESULT:      -8.5     15.374     19.652
REMARK  3 active torsions:
REMARK  status: ('A' for Active; 'I' for Inactive)
REMARK    1  A    between atoms: C_3  and  O_33 
REMARK    2  A    between atoms: C_20  and  C_30 
REMARK    3  A    between atoms: O_32  and  C_30 
ROOT
HETATM    1  C   UNK N   1      34.323  22.825  -5.960  0.00  0.00     0.013 C 
HETATM    2  C   UNK N   1      35.322  22.355  -4.922  0.00  0.00     0.033 C 
HETATM    3  C   UNK N   1      35.312  20.836  -4.912  0.00  0.00     0.126 C 
HETATM    4  C   UNK N   1      33.952  20.330  -4.392  0.00  0.00    -0.017 C 
HETATM    5  C   UNK N   1      32.842  20.809  -5.388  0.00  0.00     0.005 C 
HETATM    6  C   UNK N   1      31.418  20.333  -4.993  0.00  0.00     0.007 C 
HETATM    7  C   UNK N   1      30.679  21.251  -3.992  0.00  0.00     0.011 C 
HETATM    8  C   UNK N   1      30.584  22.692  -4.529  0.00  0.00    -0.021 C 
HETATM    9  C   UNK N   1      32.075  23.198  -4.677  0.00  0.00     0.077 C 
HETATM   10  C   UNK N   1      32.872  22.344  -5.745  0.00  0.00    -0.028 C 
HETATM   11  C   UNK N   1      32.117  24.694  -4.936  0.00  0.00     0.155 C 
HETATM   12  C   UNK N   1      30.903  25.519  -4.833  0.00  0.00     0.054 C 
HETATM   13  C   UNK N   1      29.761  25.067  -4.279  0.00  0.00    -0.062 C 
HETATM   14  C   UNK N   1      29.724  23.666  -3.634  0.00  0.00    -0.012 C 
HETATM   15  C   UNK N   1      28.271  23.119  -3.554  0.00  0.00     0.015 C 
HETATM   16  C   UNK N   1      27.170  24.161  -3.318  0.00  0.00     0.011 C 
HETATM   17  C   UNK N   1      27.235  25.298  -4.345  0.00  0.00    -0.036 C 
HETATM   18  C   UNK N   1      28.577  26.024  -4.151  0.00  0.00     0.025 C 
HETATM   19  C   UNK N   1      28.717  27.261  -5.079  0.00  0.00     0.030 C 
HETATM   20  C   UNK N   1      27.413  28.009  -5.424  0.00  0.00     0.042 C 
HETATM   21  C   UNK N   1      26.340  27.749  -4.360  0.00  0.00     0.021 C 
HETATM   22  C   UNK N   1      26.060  26.257  -4.075  0.00  0.00     0.011 C 
HETATM   23  C   UNK N   1      33.727  20.803  -2.959  0.00  0.00     0.018 C 
HETATM   24  C   UNK N   1      33.987  18.804  -4.370  0.00  0.00     0.018 C 
HETATM   25  C   UNK N   1      32.274  22.537  -7.137  0.00  0.00     0.016 C 
HETATM   26  C   UNK N   1      29.835  22.629  -5.878  0.00  0.00     0.017 C 
HETATM   27  C   UNK N   1      30.273  23.762  -2.215  0.00  0.00     0.021 C 
HETATM   28  C   UNK N   1      27.081  24.723  -5.753  0.00  0.00     0.016 C 
HETATM   29  C   UNK N   1      26.921  27.542  -6.787  0.00  0.00     0.026 C 
HETATM   30  O   UNK N   1      33.186  25.254  -5.121  0.00  0.00    -0.293 OA
ENDROOT
BRANCH  20  31
HETATM   31  C   UNK N   1      27.677  29.495  -5.517  0.00  0.00     0.148 C 
HETATM   32  O   UNK N   1      27.109  30.265  -4.750  0.00  0.00    -0.649 OA
BRANCH  31  33
HETATM   33  O   UNK N   1      28.525  29.991  -6.437  0.00  0.00    -0.776 OA
HETATM   34  H   UNK N   1      28.530  30.755  -6.981  0.00  0.00     0.167 HD
ENDBRANCH  31  33
ENDBRANCH  20  31
BRANCH   3  35
HETATM   35  O   UNK N   1      36.386  20.356  -4.158  0.00  0.00    -0.395 OA
HETATM   36  H   UNK N   1      36.445  19.847  -3.334  0.00  0.00     0.210 HD
ENDBRANCH   3  35
TORSDOF 3
ENDMDL
MODEL 3
REMARK VINA RESULT:      -8.1      5.860      9.256
REMARK  3 active torsions:
REMARK  status: ('A' for Active; 'I' for Inactive)
REMARK    1  A    between atoms: C_3  and  O_33 
REMARK    2  A    between atoms: C_20  and  C_30 
REMARK    3  A    between atoms: O_32  and  C_30 
ROOT
HETATM    1  C   UNK N   1      24.663  14.789   6.612  0.00  0.00     0.013 C 
HETATM    2  C   UNK N   1      23.468  15.692   6.383  0.00  0.00     0.033 C 
HETATM    3  C   UNK N   1      22.761  15.228   5.122  0.00  0.00     0.126 C 
HETATM    4  C   UNK N   1      23.666  15.473   3.899  0.00  0.00    -0.017 C 
HETATM    5  C   UNK N   1      24.959  14.604   4.069  0.00  0.00     0.005 C 
HETATM    6  C   UNK N   1      25.946  14.736   2.878  0.00  0.00     0.007 C 
HETATM    7  C   UNK N   1      26.933  15.922   2.979  0.00  0.00     0.011 C 
HETATM    8  C   UNK N   1      27.746  15.855   4.286  0.00  0.00    -0.021 C 
HETATM    9  C   UNK N   1      26.691  15.972   5.459  0.00  0.00     0.077 C 
HETATM   10  C   UNK N   1      25.689  14.746   5.459  0.00  0.00    -0.028 C 
HETATM   11  C   UNK N   1      27.384  16.195   6.793  0.00  0.00     0.155 C 
HETATM   12  C   UNK N   1      28.828  16.469   6.864  0.00  0.00     0.054 C 
HETATM   13  C   UNK N   1      29.564  16.777   5.779  0.00  0.00    -0.062 C 
HETATM   14  C   UNK N   1      28.876  16.950   4.409  0.00  0.00    -0.012 C 
HETATM   15  C   UNK N   1      29.885  16.758   3.241  0.00  0.00     0.015 C 
HETATM   16  C   UNK N   1      31.320  17.234   3.506  0.00  0.00     0.011 C 
HETATM   17  C   UNK N   1      31.894  16.619   4.787  0.00  0.00    -0.036 C 
HETATM   18  C   UNK N   1      31.041  17.117   5.966  0.00  0.00     0.025 C 
HETATM   19  C   UNK N   1      31.588  16.633   7.335  0.00  0.00     0.030 C 
HETATM   20  C   UNK N   1      33.117  16.452   7.438  0.00  0.00     0.042 C 
HETATM   21  C   UNK N   1      33.836  17.308   6.388  0.00  0.00     0.021 C 
HETATM   22  C   UNK N   1      33.352  17.095   4.938  0.00  0.00     0.011 C 
HETATM   23  C   UNK N   1      23.953  16.964   3.746  0.00  0.00     0.018 C 
HETATM   24  C   UNK N   1      22.914  15.021   2.650  0.00  0.00     0.018 C 
HETATM   25  C   UNK N   1      26.434  13.447   5.758  0.00  0.00     0.016 C 
HETATM   26  C   UNK N   1      28.499  14.507   4.289  0.00  0.00     0.017 C 
HETATM   27  C   UNK N   1      28.307  18.361   4.318  0.00  0.00     0.021 C 
HETATM   28  C   UNK N   1      31.890  15.094   4.668  0.00  0.00     0.016 C 
HETATM   29  C   UNK N   1      33.455  14.981   7.233  0.00  0.00     0.026 C 
HETATM   30  O   UNK N   1      26.727  16.265   7.820  0.00  0.00    -0.293 OA
ENDROOT
BRANCH  20  31
HETATM   31  C   UNK N   1      33.594  16.844   8.817  0.00  0.00     0.148 C 
HETATM   32  O   UNK N   1      34.201  17.898   8.977  0.00  0.00    -0.649 OA
BRANCH  31  33
HETATM   33  O   UNK N   1      33.369  16.048   9.879  0.00  0.00    -0.776 OA
HETATM   34  H   UNK N   1      32.603  15.791  10.356  0.00  0.00     0.167 HD
ENDBRANCH  31  33
ENDBRANCH  20  31
BRANCH   3  35
HETATM   35  O   UNK N   1      21.522  15.866   5.008  0.00  0.00    -0.395 OA
HETATM   36  H   UNK N   1      20.757  15.943   5.598  0.00  0.00     0.210 HD
ENDBRANCH   3  35
TORSDOF 3
ENDMDL
MODEL 4
REMARK VINA RESULT:      -7.7      8.290     12.200
REMARK  3 active torsions:
REMARK  status: ('A' for Active; 'I' for Inactive)
REMARK    1  A    between atoms: C_3  and  O_33 
REMARK    2  A    between atoms: C_20  and  C_30 
REMARK    3  A    between atoms: O_32  and  C_30 
ROOT
HETATM    1  C   UNK N   1      22.205  17.705   4.993  0.00  0.00     0.013 C 
HETATM    2  C   UNK N   1      21.197  18.180   3.967  0.00  0.00     0.033 C 
HETATM    3  C   UNK N   1      20.066  17.167   3.913  0.00  0.00     0.126 C 
HETATM    4  C   UNK N   1      20.591  15.833   3.346  0.00  0.00    -0.017 C 
HETATM    5  C   UNK N   1      21.680  15.282   4.329  0.00  0.00     0.005 C 
HETATM    6  C   UNK N   1      22.269  13.916   3.886  0.00  0.00     0.007 C 
HETATM    7  C   UNK N   1      23.451  14.007   2.894  0.00  0.00     0.011 C 
HETATM    8  C   UNK N   1      24.591  14.870   3.470  0.00  0.00    -0.021 C 
HETATM    9  C   UNK N   1      23.981  16.316   3.668  0.00  0.00     0.077 C 
HETATM   10  C   UNK N   1      22.807  16.308   4.730  0.00  0.00    -0.028 C 
HETATM   11  C   UNK N   1      25.073  17.328   3.971  0.00  0.00     0.155 C 
HETATM   12  C   UNK N   1      26.496  16.969   3.862  0.00  0.00     0.054 C 
HETATM   13  C   UNK N   1      26.916  15.836   3.269  0.00  0.00    -0.062 C 
HETATM   14  C   UNK N   1      25.895  14.904   2.583  0.00  0.00    -0.012 C 
HETATM   15  C   UNK N   1      26.449  13.457   2.453  0.00  0.00     0.015 C 
HETATM   16  C   UNK N   1      27.961  13.332   2.220  0.00  0.00     0.011 C 
HETATM   17  C   UNK N   1      28.763  14.095   3.280  0.00  0.00    -0.036 C 
HETATM   18  C   UNK N   1      28.418  15.588   3.140  0.00  0.00     0.025 C 
HETATM   19  C   UNK N   1      29.247  16.477   4.105  0.00  0.00     0.030 C 
HETATM   20  C   UNK N   1      30.669  15.984   4.441  0.00  0.00     0.042 C 
HETATM   21  C   UNK N   1      31.192  15.047   3.344  0.00  0.00     0.021 C 
HETATM   22  C   UNK N   1      30.262  13.861   3.010  0.00  0.00     0.011 C 
HETATM   23  C   UNK N   1      21.102  16.030   1.922  0.00  0.00     0.018 C 
HETATM   24  C   UNK N   1      19.425  14.850   3.281  0.00  0.00     0.018 C 
HETATM   25  C   UNK N   1      23.341  15.937   6.112  0.00  0.00     0.016 C 
HETATM   26  C   UNK N   1      25.033  14.218   4.798  0.00  0.00     0.017 C 
HETATM   27  C   UNK N   1      25.612  15.431   1.181  0.00  0.00     0.021 C 
HETATM   28  C   UNK N   1      28.426  13.547   4.668  0.00  0.00     0.016 C 
HETATM   29  C   UNK N   1      30.638  15.256   5.778  0.00  0.00     0.026 C 
HETATM   30  O   UNK N   1      24.783  18.492   4.197  0.00  0.00    -0.293 OA
ENDROOT
BRANCH  20  31
HETATM   31  C   UNK N   1      31.607  17.161   4.582  0.00  0.00     0.148 C 
HETATM   32  O   UNK N   1      32.503  17.131   5.418  0.00  0.00    -0.649 OA
BRANCH  31  33
HETATM   33  O   UNK N   1      31.470  18.252   3.805  0.00  0.00    -0.776 OA
HETATM   34  H   UNK N   1      30.737  18.714   3.447  0.00  0.00     0.167 HD
ENDBRANCH  31  33
ENDBRANCH  20  31
BRANCH   3  35
HETATM   35  O   UNK N   1      19.000  17.681   3.171  0.00  0.00    -0.395 OA
HETATM   36  H   UNK N   1      18.860  18.516   2.698  0.00  0.00     0.210 HD
ENDBRANCH   3  35
TORSDOF 3
ENDMDL
MODEL 5
REMARK VINA RESULT:      -7.5      2.333      4.117
REMARK  3 active torsions:
REMARK  status: ('A' for Active; 'I' for Inactive)
REMARK    1  A    between atoms: C_3  and  O_33 
REMARK    2  A    between atoms: C_20  and  C_30 
REMARK    3  A    between atoms: O_32  and  C_30 
ROOT
HETATM    1  C   UNK N   1      32.683  13.158   4.395  0.00  0.00     0.013 C 
HETATM    2  C   UNK N   1      31.260  13.497   4.000  0.00  0.00     0.033 C 
HETATM    3  C   UNK N   1      31.294  14.745   3.136  0.00  0.00     0.126 C 
HETATM    4  C   UNK N   1      31.755  15.950   3.980  0.00  0.00    -0.017 C 
HETATM    5  C   UNK N   1      33.216  15.668   4.471  0.00  0.00     0.005 C 
HETATM    6  C   UNK N   1      33.812  16.829   5.312  0.00  0.00     0.007 C 
HETATM    7  C   UNK N   1      33.476  16.780   6.820  0.00  0.00     0.011 C 
HETATM    8  C   UNK N   1      33.920  15.443   7.444  0.00  0.00    -0.021 C 
HETATM    9  C   UNK N   1      33.087  14.322   6.702  0.00  0.00     0.077 C 
HETATM   10  C   UNK N   1      33.438  14.267   5.159  0.00  0.00    -0.028 C 
HETATM   11  C   UNK N   1      33.228  12.984   7.408  0.00  0.00     0.155 C 
HETATM   12  C   UNK N   1      33.891  12.880   8.718  0.00  0.00     0.054 C 
HETATM   13  C   UNK N   1      34.187  13.958   9.470  0.00  0.00    -0.062 C 
HETATM   14  C   UNK N   1      33.741  15.361   9.009  0.00  0.00    -0.012 C 
HETATM   15  C   UNK N   1      34.604  16.474   9.669  0.00  0.00     0.015 C 
HETATM   16  C   UNK N   1      35.086  16.193  11.099  0.00  0.00     0.011 C 
HETATM   17  C   UNK N   1      35.818  14.850  11.197  0.00  0.00    -0.036 C 
HETATM   18  C   UNK N   1      34.808  13.743  10.848  0.00  0.00     0.025 C 
HETATM   19  C   UNK N   1      35.413  12.322  11.007  0.00  0.00     0.030 C 
HETATM   20  C   UNK N   1      36.483  12.151  12.105  0.00  0.00     0.042 C 
HETATM   21  C   UNK N   1      36.334  13.235  13.181  0.00  0.00     0.021 C 
HETATM   22  C   UNK N   1      36.323  14.682  12.643  0.00  0.00     0.011 C 
HETATM   23  C   UNK N   1      30.770  16.202   5.118  0.00  0.00     0.018 C 
HETATM   24  C   UNK N   1      31.752  17.187   3.088  0.00  0.00     0.018 C 
HETATM   25  C   UNK N   1      34.892  13.845   4.957  0.00  0.00     0.016 C 
HETATM   26  C   UNK N   1      35.441  15.312   7.213  0.00  0.00     0.017 C 
HETATM   27  C   UNK N   1      32.290  15.578   9.424  0.00  0.00     0.021 C 
HETATM   28  C   UNK N   1      37.024  14.855  10.257  0.00  0.00     0.016 C 
HETATM   29  C   UNK N   1      37.863  12.234  11.468  0.00  0.00     0.026 C 
HETATM   30  O   UNK N   1      32.688  11.990   6.950  0.00  0.00    -0.293 OA
ENDROOT
BRANCH  20  31
HETATM   31  C   UNK N   1      36.355  10.788  12.746  0.00  0.00     0.148 C 
HETATM   32  O   UNK N   1      35.244  10.325  12.981  0.00  0.00    -0.649 OA
BRANCH  31  33
HETATM   33  O   UNK N   1      37.447  10.072  13.072  0.00  0.00    -0.776 OA
HETATM   34  H   UNK N   1      38.249  10.264  13.519  0.00  0.00     0.167 HD
ENDBRANCH  31  33
ENDBRANCH  20  31
BRANCH   3  35
HETATM   35  O   UNK N   1      30.044  14.952   2.546  0.00  0.00    -0.395 OA
HETATM   36  H   UNK N   1      29.547  15.748   2.302  0.00  0.00     0.210 HD
ENDBRANCH   3  35
TORSDOF 3
ENDMDL
MODEL 6
REMARK VINA RESULT:      -7.4      1.638      2.359
REMARK  3 active torsions:
REMARK  status: ('A' for Active; 'I' for Inactive)
REMARK    1  A    between atoms: C_3  and  O_33 
REMARK    2  A    between atoms: C_20  and  C_30 
REMARK    3  A    between atoms: O_32  and  C_30 
ROOT
HETATM    1  C   UNK N   1      33.326  15.179   8.595  0.00  0.00     0.013 C 
HETATM    2  C   UNK N   1      34.072  16.139   7.689  0.00  0.00     0.033 C 
HETATM    3  C   UNK N   1      34.150  15.517   6.306  0.00  0.00     0.126 C 
HETATM    4  C   UNK N   1      35.043  14.261   6.351  0.00  0.00    -0.017 C 
HETATM    5  C   UNK N   1      34.366  13.218   7.305  0.00  0.00     0.005 C 
HETATM    6  C   UNK N   1      35.155  11.886   7.412  0.00  0.00     0.007 C 
HETATM    7  C   UNK N   1      36.278  11.877   8.474  0.00  0.00     0.011 C 
HETATM    8  C   UNK N   1      35.726  12.234   9.867  0.00  0.00    -0.021 C 
HETATM    9  C   UNK N   1      35.155  13.704   9.743  0.00  0.00     0.077 C 
HETATM   10  C   UNK N   1      33.949  13.772   8.721  0.00  0.00    -0.028 C 
HETATM   11  C   UNK N   1      34.830  14.278  11.112  0.00  0.00     0.155 C 
HETATM   12  C   UNK N   1      35.224  13.577  12.344  0.00  0.00     0.054 C 
HETATM   13  C   UNK N   1      36.086  12.543  12.349  0.00  0.00    -0.062 C 
HETATM   14  C   UNK N   1      36.778  12.115  11.037  0.00  0.00    -0.012 C 
HETATM   15  C   UNK N   1      37.274  10.643  11.114  0.00  0.00     0.015 C 
HETATM   16  C   UNK N   1      37.756  10.165  12.490  0.00  0.00     0.011 C 
HETATM   17  C   UNK N   1      36.701  10.409  13.577  0.00  0.00    -0.036 C 
HETATM   18  C   UNK N   1      36.490  11.929  13.687  0.00  0.00     0.025 C 
HETATM   19  C   UNK N   1      35.507  12.305  14.828  0.00  0.00     0.030 C 
HETATM   20  C   UNK N   1      35.498  11.376  16.060  0.00  0.00     0.042 C 
HETATM   21  C   UNK N   1      36.824  10.614  16.175  0.00  0.00     0.021 C 
HETATM   22  C   UNK N   1      37.239   9.841  14.904  0.00  0.00     0.011 C 
HETATM   23  C   UNK N   1      36.461  14.637   6.769  0.00  0.00     0.018 C 
HETATM   24  C   UNK N   1      35.120  13.679   4.942  0.00  0.00     0.018 C 
HETATM   25  C   UNK N   1      32.765  12.957   9.238  0.00  0.00     0.016 C 
HETATM   26  C   UNK N   1      34.635  11.195  10.208  0.00  0.00     0.017 C 
HETATM   27  C   UNK N   1      37.988  13.011  10.803  0.00  0.00     0.021 C 
HETATM   28  C   UNK N   1      35.414   9.667  13.215  0.00  0.00     0.016 C 
HETATM   29  C   UNK N   1      34.342  10.393  15.928  0.00  0.00     0.026 C 
HETATM   30  O   UNK N   1      34.337  15.391  11.208  0.00  0.00    -0.293 OA
ENDROOT
BRANCH  20  31
HETATM   31  C   UNK N   1      35.272  12.183  17.317  0.00  0.00     0.148 C 
HETATM   32  O   UNK N   1      35.089  13.393  17.243  0.00  0.00    -0.649 OA
BRANCH  31  33
HETATM   33  O   UNK N   1      35.276  11.593  18.528  0.00  0.00    -0.776 OA
HETATM   34  H   UNK N   1      35.865  11.597  19.258  0.00  0.00     0.167 HD
ENDBRANCH  31  33
ENDBRANCH  20  31
BRANCH   3  35
HETATM   35  O   UNK N   1      34.604  16.463   5.383  0.00  0.00    -0.395 OA
HETATM   36  H   UNK N   1      34.614  16.495   4.414  0.00  0.00     0.210 HD
ENDBRANCH   3  35
TORSDOF 3
ENDMDL
MODEL 7
REMARK VINA RESULT:      -7.2      1.570      8.049
REMARK  3 active torsions:
REMARK  status: ('A' for Active; 'I' for Inactive)
REMARK    1  A    between atoms: C_3  and  O_33 
REMARK    2  A    between atoms: C_20  and  C_30 
REMARK    3  A    between atoms: O_32  and  C_30 
ROOT
HETATM    1  C   UNK N   1      36.071  14.568  12.737  0.00  0.00     0.013 C 
HETATM    2  C   UNK N   1      35.687  13.714  13.928  0.00  0.00     0.033 C 
HETATM    3  C   UNK N   1      36.813  12.726  14.183  0.00  0.00     0.126 C 
HETATM    4  C   UNK N   1      36.904  11.730  13.010  0.00  0.00    -0.017 C 
HETATM    5  C   UNK N   1      37.260  12.536  11.714  0.00  0.00     0.005 C 
HETATM    6  C   UNK N   1      37.415  11.637  10.458  0.00  0.00     0.007 C 
HETATM    7  C   UNK N   1      36.098  11.336   9.706  0.00  0.00     0.011 C 
HETATM    8  C   UNK N   1      35.386  12.638   9.294  0.00  0.00    -0.021 C 
HETATM    9  C   UNK N   1      35.040  13.389  10.642  0.00  0.00     0.077 C 
HETATM   10  C   UNK N   1      36.352  13.793  11.432  0.00  0.00    -0.028 C 
HETATM   11  C   UNK N   1      34.096  14.552  10.390  0.00  0.00     0.155 C 
HETATM   12  C   UNK N   1      33.467  14.750   9.075  0.00  0.00     0.054 C 
HETATM   13  C   UNK N   1      33.486  13.810   8.110  0.00  0.00    -0.062 C 
HETATM   14  C   UNK N   1      34.103  12.425   8.400  0.00  0.00    -0.012 C 
HETATM   15  C   UNK N   1      34.522  11.707   7.087  0.00  0.00     0.015 C 
HETATM   16  C   UNK N   1      33.637  11.971   5.862  0.00  0.00     0.011 C 
HETATM   17  C   UNK N   1      33.471  13.472   5.595  0.00  0.00    -0.036 C 
HETATM   18  C   UNK N   1      32.741  14.081   6.805  0.00  0.00     0.025 C 
HETATM   19  C   UNK N   1      32.430  15.589   6.607  0.00  0.00     0.030 C 
HETATM   20  C   UNK N   1      32.160  16.049   5.159  0.00  0.00     0.042 C 
HETATM   21  C   UNK N   1      31.694  14.872   4.294  0.00  0.00     0.021 C 
HETATM   22  C   UNK N   1      32.629  13.643   4.316  0.00  0.00     0.011 C 
HETATM   23  C   UNK N   1      35.609  10.933  12.893  0.00  0.00     0.018 C 
HETATM   24  C   UNK N   1      38.025  10.739  13.312  0.00  0.00     0.018 C 
HETATM   25  C   UNK N   1      37.160  14.814  10.635  0.00  0.00     0.016 C 
HETATM   26  C   UNK N   1      36.363  13.431   8.399  0.00  0.00     0.017 C 
HETATM   27  C   UNK N   1      33.063  11.561   9.103  0.00  0.00     0.021 C 
HETATM   28  C   UNK N   1      34.843  14.105   5.363  0.00  0.00     0.016 C 
HETATM   29  C   UNK N   1      33.437  16.646   4.584  0.00  0.00     0.026 C 
HETATM   30  O   UNK N   1      33.754  15.274  11.312  0.00  0.00    -0.293 OA
ENDROOT
BRANCH  20  31
HETATM   31  C   UNK N   1      31.103  17.129   5.147  0.00  0.00     0.148 C 
HETATM   32  O   UNK N   1      30.365  17.274   6.115  0.00  0.00    -0.649 OA
BRANCH  31  33
HETATM   33  O   UNK N   1      30.953  17.938   4.080  0.00  0.00    -0.776 OA
HETATM   34  H   UNK N   1      31.281  17.932   3.202  0.00  0.00     0.167 HD
ENDBRANCH  31  33
ENDBRANCH  20  31
BRANCH   3  35
HETATM   35  O   UNK N   1      36.620  12.090  15.412  0.00  0.00    -0.395 OA
HETATM   36  H   UNK N   1      36.574  11.158  15.678  0.00  0.00     0.210 HD
ENDBRANCH   3  35
TORSDOF 3
ENDMDL
MODEL 8
REMARK VINA RESULT:      -7.2      3.885      9.408
REMARK  3 active torsions:
REMARK  status: ('A' for Active; 'I' for Inactive)
REMARK    1  A    between atoms: C_3  and  O_33 
REMARK    2  A    between atoms: C_20  and  C_30 
REMARK    3  A    between atoms: O_32  and  C_30 
ROOT
HETATM    1  C   UNK N   1      37.265   8.152  16.418  0.00  0.00     0.013 C 
HETATM    2  C   UNK N   1      37.618   8.458  17.859  0.00  0.00     0.033 C 
HETATM    3  C   UNK N   1      36.349   8.357  18.687  0.00  0.00     0.126 C 
HETATM    4  C   UNK N   1      35.374   9.482  18.284  0.00  0.00    -0.017 C 
HETATM    5  C   UNK N   1      34.983   9.269  16.781  0.00  0.00     0.005 C 
HETATM    6  C   UNK N   1      33.972  10.324  16.257  0.00  0.00     0.007 C 
HETATM    7  C   UNK N   1      34.609  11.631  15.732  0.00  0.00     0.011 C 
HETATM    8  C   UNK N   1      35.635  11.339  14.620  0.00  0.00    -0.021 C 
HETATM    9  C   UNK N   1      36.764  10.459  15.293  0.00  0.00     0.077 C 
HETATM   10  C   UNK N   1      36.193   9.069  15.791  0.00  0.00    -0.028 C 
HETATM   11  C   UNK N   1      37.971  10.332  14.378  0.00  0.00     0.155 C 
HETATM   12  C   UNK N   1      38.079  11.128  13.146  0.00  0.00     0.054 C 
HETATM   13  C   UNK N   1      37.266  12.168  12.878  0.00  0.00    -0.062 C 
HETATM   14  C   UNK N   1      36.234  12.625  13.929  0.00  0.00    -0.012 C 
HETATM   15  C   UNK N   1      35.073  13.425  13.272  0.00  0.00     0.015 C 
HETATM   16  C   UNK N   1      35.452  14.290  12.062  0.00  0.00     0.011 C 
HETATM   17  C   UNK N   1      36.186  13.476  10.990  0.00  0.00    -0.036 C 
HETATM   18  C   UNK N   1      37.505  12.979  11.606  0.00  0.00     0.025 C 
HETATM   19  C   UNK N   1      38.385  12.217  10.579  0.00  0.00     0.030 C 
HETATM   20  C   UNK N   1      38.278  12.677   9.110  0.00  0.00     0.042 C 
HETATM   21  C   UNK N   1      37.781  14.126   9.030  0.00  0.00     0.021 C 
HETATM   22  C   UNK N   1      36.466  14.401   9.791  0.00  0.00     0.011 C 
HETATM   23  C   UNK N   1      35.999  10.845  18.561  0.00  0.00     0.018 C 
HETATM   24  C   UNK N   1      34.125   9.365  19.152  0.00  0.00     0.018 C 
HETATM   25  C   UNK N   1      35.724   8.229  14.605  0.00  0.00     0.016 C 
HETATM   26  C   UNK N   1      34.888  10.596  13.491  0.00  0.00     0.017 C 
HETATM   27  C   UNK N   1      36.926  13.536  14.936  0.00  0.00     0.021 C 
HETATM   28  C   UNK N   1      35.294  12.326  10.521  0.00  0.00     0.016 C 
HETATM   29  C   UNK N   1      37.317  11.754   8.372  0.00  0.00     0.026 C 
HETATM   30  O   UNK N   1      38.925   9.650  14.715  0.00  0.00    -0.293 OA
ENDROOT
BRANCH  20  31
HETATM   31  C   UNK N   1      39.625  12.571   8.434  0.00  0.00     0.148 C 
HETATM   32  O   UNK N   1      40.493  11.847   8.910  0.00  0.00    -0.649 OA
BRANCH  31  33
HETATM   33  O   UNK N   1      39.893  13.268   7.313  0.00  0.00    -0.776 OA
HETATM   34  H   UNK N   1      40.379  14.048   7.126  0.00  0.00     0.167 HD
ENDBRANCH  31  33
ENDBRANCH  20  31
BRANCH   3  35
HETATM   35  O   UNK N   1      36.663   8.385  20.049  0.00  0.00    -0.395 OA
HETATM   36  H   UNK N   1      36.944   7.705  20.680  0.00  0.00     0.210 HD
ENDBRANCH   3  35
TORSDOF 3
ENDMDL
MODEL 9
REMARK VINA RESULT:      -6.8      4.242      6.776
REMARK  3 active torsions:
REMARK  status: ('A' for Active; 'I' for Inactive)
REMARK    1  A    between atoms: C_3  and  O_33 
REMARK    2  A    between atoms: C_20  and  C_30 
REMARK    3  A    between atoms: O_32  and  C_30 
ROOT
HETATM    1  C   UNK N   1      36.440  12.334   9.699  0.00  0.00     0.013 C 
HETATM    2  C   UNK N   1      35.293  13.092   9.063  0.00  0.00     0.033 C 
HETATM    3  C   UNK N   1      35.499  14.573   9.333  0.00  0.00     0.126 C 
HETATM    4  C   UNK N   1      35.352  14.851  10.842  0.00  0.00    -0.017 C 
HETATM    5  C   UNK N   1      36.482  14.066  11.593  0.00  0.00     0.005 C 
HETATM    6  C   UNK N   1      36.464  14.289  13.129  0.00  0.00     0.007 C 
HETATM    7  C   UNK N   1      35.521  13.348  13.913  0.00  0.00     0.011 C 
HETATM    8  C   UNK N   1      35.858  11.870  13.635  0.00  0.00    -0.021 C 
HETATM    9  C   UNK N   1      35.617  11.655  12.087  0.00  0.00     0.077 C 
HETATM   10  C   UNK N   1      36.604  12.539  11.220  0.00  0.00    -0.028 C 
HETATM   11  C   UNK N   1      35.649  10.178  11.733  0.00  0.00     0.155 C 
HETATM   12  C   UNK N   1      35.687   9.145  12.780  0.00  0.00     0.054 C 
HETATM   13  C   UNK N   1      35.455   9.416  14.078  0.00  0.00    -0.062 C 
HETATM   14  C   UNK N   1      35.035  10.839  14.501  0.00  0.00    -0.012 C 
HETATM   15  C   UNK N   1      35.340  11.095  16.005  0.00  0.00     0.015 C 
HETATM   16  C   UNK N   1      35.195   9.885  16.937  0.00  0.00     0.011 C 
HETATM   17  C   UNK N   1      36.015   8.687  16.444  0.00  0.00    -0.036 C 
HETATM   18  C   UNK N   1      35.444   8.263  15.079  0.00  0.00     0.025 C 
HETATM   19  C   UNK N   1      36.138   6.992  14.520  0.00  0.00     0.030 C 
HETATM   20  C   UNK N   1      36.640   5.970  15.562  0.00  0.00     0.042 C 
HETATM   21  C   UNK N   1      35.872   6.119  16.881  0.00  0.00     0.021 C 
HETATM   22  C   UNK N   1      35.866   7.547  17.469  0.00  0.00     0.011 C 
HETATM   23  C   UNK N   1      33.946  14.487  11.310  0.00  0.00     0.018 C 
HETATM   24  C   UNK N   1      35.539  16.348  11.072  0.00  0.00     0.018 C 
HETATM   25  C   UNK N   1      38.049  12.095  11.437  0.00  0.00     0.016 C 
HETATM   26  C   UNK N   1      37.329  11.650  14.050  0.00  0.00     0.017 C 
HETATM   27  C   UNK N   1      33.534  10.994  14.289  0.00  0.00     0.021 C 
HETATM   28  C   UNK N   1      37.491   9.078  16.361  0.00  0.00     0.016 C 
HETATM   29  C   UNK N   1      38.128   6.194  15.796  0.00  0.00     0.026 C 
HETATM   30  O   UNK N   1      35.524   9.824  10.571  0.00  0.00    -0.293 OA
ENDROOT
BRANCH  20  31
HETATM   31  C   UNK N   1      36.466   4.564  15.036  0.00  0.00     0.148 C 
HETATM   32  O   UNK N   1      35.342   4.135  14.799  0.00  0.00    -0.649 OA
BRANCH  31  33
HETATM   33  O   UNK N   1      37.530   3.766  14.828  0.00  0.00    -0.776 OA
HETATM   34  H   UNK N   1      38.203   3.413  15.378  0.00  0.00     0.167 HD
ENDBRANCH  31  33
ENDBRANCH  20  31
BRANCH   3  35
HETATM   35  O   UNK N   1      34.611  15.327   8.561  0.00  0.00    -0.395 OA
HETATM   36  H   UNK N   1      34.685  15.762   7.697  0.00  0.00     0.210 HD
ENDBRANCH   3  35
TORSDOF 3
ENDMDL
