MODEL 1
REMARK VINA RESULT:      -6.5      0.000      0.000
REMARK  5 active torsions:
REMARK  status: ('A' for Active; 'I' for Inactive)
REMARK    1  A    between atoms: C_1  and  C_13 
REMARK    2  A    between atoms: C_6  and  O_20 
REMARK       I    between atoms: C_9  and  N_16 
REMARK    3  A    between atoms: C_9  and  O_19 
REMARK    4  A    between atoms: C_10  and  O_19 
REMARK    5  A    between atoms: C_13  and  S_22 
ROOT
HETATM    1  C   UNK N   1      21.501  15.606   7.265  0.00  0.00     0.166 A 
HETATM    2  C   UNK N   1      22.895  15.377   6.688  0.00  0.00     0.102 A 
HETATM    3  C   UNK N   1      23.415  13.670   8.372  0.00  0.00     0.060 A 
HETATM    4  C   UNK N   1      22.164  13.847   8.992  0.00  0.00     0.069 A 
HETATM    5  C   UNK N   1      21.924  13.136  10.187  0.00  0.00     0.069 A 
HETATM    6  C   UNK N   1      22.881  12.276  10.744  0.00  0.00     0.070 A 
HETATM    7  C   UNK N   1      24.097  12.099  10.090  0.00  0.00     0.039 A 
HETATM    8  C   UNK N   1      24.363  12.793   8.912  0.00  0.00     0.035 A 
HETATM    9  C   UNK N   1      19.915  14.879   9.006  0.00  0.00     0.368 C 
HETATM   10  N   UNK N   1      21.176  14.760   8.438  0.00  0.00    -0.279 N 
HETATM   11  N   UNK N   1      23.752  14.397   7.222  0.00  0.00    -0.347 N 
HETATM   12  O   UNK N   1      19.579  14.166   9.943  0.00  0.00    -0.238 OA
HETATM   13  S   UNK N   1      23.377  16.183   5.596  0.00  0.00    -0.063 SA
HETATM   14  H   UNK N   1      24.612  14.218   6.776  0.00  0.00     0.167 HD
ENDROOT
BRANCH   1  15
HETATM   15  C   UNK N   1      20.481  15.368   6.129  0.00  0.00     0.106 C 
BRANCH  15  16
HETATM   16  S   UNK N   1      20.428  13.616   5.599  0.00  0.00    -0.171 SA
HETATM   17  C   UNK N   1      18.945  13.826   4.578  0.00  0.00     0.089 C 
ENDBRANCH  15  16
ENDBRANCH   1  15
BRANCH   9  18
HETATM   18  O   UNK N   1      19.017  15.773   8.508  0.00  0.00    -0.299 OA
BRANCH  18  19
HETATM   19  C   UNK N   1      18.495  16.826   9.238  0.00  0.00     0.125 C 
HETATM   20  C   UNK N   1      17.105  17.151   8.733  0.00  0.00     0.040 C 
HETATM   21  C   UNK N   1      19.357  18.073   9.122  0.00  0.00     0.040 C 
ENDBRANCH  18  19
ENDBRANCH   9  18
BRANCH   6  22
HETATM   22  O   UNK N   1      22.657  11.626  11.911  0.00  0.00    -0.356 OA
HETATM   23  C   UNK N   1      23.297  11.949  13.087  0.00  0.00     0.210 C 
ENDBRANCH   6  22
TORSDOF 5
ENDMDL
MODEL 2
REMARK VINA RESULT:      -5.8     16.762     19.134
REMARK  5 active torsions:
REMARK  status: ('A' for Active; 'I' for Inactive)
REMARK    1  A    between atoms: C_1  and  C_13 
REMARK    2  A    between atoms: C_6  and  O_20 
REMARK       I    between atoms: C_9  and  N_16 
REMARK    3  A    between atoms: C_9  and  O_19 
REMARK    4  A    between atoms: C_10  and  O_19 
REMARK    5  A    between atoms: C_13  and  S_22 
ROOT
HETATM    1  C   UNK N   1      27.489  23.429  -5.741  0.00  0.00     0.166 A 
HETATM    2  C   UNK N   1      26.165  23.518  -6.494  0.00  0.00     0.102 A 
HETATM    3  C   UNK N   1      25.721  25.774  -5.636  0.00  0.00     0.060 A 
HETATM    4  C   UNK N   1      26.907  25.760  -4.877  0.00  0.00     0.069 A 
HETATM    5  C   UNK N   1      27.145  26.855  -4.021  0.00  0.00     0.069 A 
HETATM    6  C   UNK N   1      26.249  27.930  -3.925  0.00  0.00     0.070 A 
HETATM    7  C   UNK N   1      25.100  27.929  -4.712  0.00  0.00     0.039 A 
HETATM    8  C   UNK N   1      24.837  26.856  -5.560  0.00  0.00     0.035 A 
HETATM    9  C   UNK N   1      29.031  24.654  -4.258  0.00  0.00     0.368 C 
HETATM   10  N   UNK N   1      27.827  24.635  -4.947  0.00  0.00    -0.279 N 
HETATM   11  N   UNK N   1      25.382  24.687  -6.453  0.00  0.00    -0.347 N 
HETATM   12  O   UNK N   1      29.381  25.645  -3.631  0.00  0.00    -0.238 OA
HETATM   13  S   UNK N   1      25.670  22.391  -7.241  0.00  0.00    -0.063 SA
HETATM   14  H   UNK N   1      24.575  24.743  -7.015  0.00  0.00     0.167 HD
ENDROOT
BRANCH   1  15
HETATM   15  C   UNK N   1      28.597  23.138  -6.778  0.00  0.00     0.106 C 
BRANCH  15  16
HETATM   16  S   UNK N   1      28.818  24.517  -7.963  0.00  0.00    -0.171 SA
HETATM   17  C   UNK N   1      28.692  23.460  -9.430  0.00  0.00     0.089 C 
ENDBRANCH  15  16
ENDBRANCH   1  15
BRANCH   9  18
HETATM   18  O   UNK N   1      29.862  23.575  -4.293  0.00  0.00    -0.299 OA
BRANCH  18  19
HETATM   19  C   UNK N   1      30.231  22.851  -3.173  0.00  0.00     0.125 C 
HETATM   20  C   UNK N   1      30.458  21.405  -3.557  0.00  0.00     0.040 C 
HETATM   21  C   UNK N   1      29.164  22.905  -2.091  0.00  0.00     0.040 C 
ENDBRANCH  18  19
ENDBRANCH   9  18
BRANCH   6  22
HETATM   22  O   UNK N   1      26.466  28.960  -3.073  0.00  0.00    -0.356 OA
HETATM   23  C   UNK N   1      26.530  30.274  -3.481  0.00  0.00     0.210 C 
ENDBRANCH   6  22
TORSDOF 5
ENDMDL
MODEL 3
REMARK VINA RESULT:      -5.4      5.241      6.993
REMARK  5 active torsions:
REMARK  status: ('A' for Active; 'I' for Inactive)
REMARK    1  A    between atoms: C_1  and  C_13 
REMARK    2  A    between atoms: C_6  and  O_20 
REMARK       I    between atoms: C_9  and  N_16 
REMARK    3  A    between atoms: C_9  and  O_19 
REMARK    4  A    between atoms: C_10  and  O_19 
REMARK    5  A    between atoms: C_13  and  S_22 
ROOT
HETATM    1  C   UNK N   1      22.181  18.509   4.046  0.00  0.00     0.166 A 
HETATM    2  C   UNK N   1      22.295  19.773   3.198  0.00  0.00     0.102 A 
HETATM    3  C   UNK N   1      24.732  19.847   3.467  0.00  0.00     0.060 A 
HETATM    4  C   UNK N   1      24.714  18.707   4.292  0.00  0.00     0.069 A 
HETATM    5  C   UNK N   1      25.933  18.310   4.882  0.00  0.00     0.069 A 
HETATM    6  C   UNK N   1      27.128  19.009   4.656  0.00  0.00     0.070 A 
HETATM    7  C   UNK N   1      27.120  20.114   3.809  0.00  0.00     0.039 A 
HETATM    8  C   UNK N   1      25.928  20.532   3.220  0.00  0.00     0.035 A 
HETATM    9  C   UNK N   1      23.467  16.827   5.308  0.00  0.00     0.368 C 
HETATM   10  N   UNK N   1      23.474  17.993   4.556  0.00  0.00    -0.279 N 
HETATM   11  N   UNK N   1      23.548  20.342   2.905  0.00  0.00    -0.347 N 
HETATM   12  O   UNK N   1      24.512  16.332   5.708  0.00  0.00    -0.238 OA
HETATM   13  S   UNK N   1      21.114  20.431   2.703  0.00  0.00    -0.063 SA
HETATM   14  H   UNK N   1      23.593  21.109   2.289  0.00  0.00     0.167 HD
ENDROOT
BRANCH   1  15
HETATM   15  C   UNK N   1      21.472  17.436   3.190  0.00  0.00     0.106 C 
BRANCH  15  16
HETATM   16  S   UNK N   1      19.741  17.156   3.721  0.00  0.00    -0.171 SA
HETATM   17  C   UNK N   1      19.786  15.373   3.401  0.00  0.00     0.089 C 
ENDBRANCH  15  16
ENDBRANCH   1  15
BRANCH   9  18
HETATM   18  O   UNK N   1      22.294  16.196   5.589  0.00  0.00    -0.299 OA
BRANCH  18  19
HETATM   19  C   UNK N   1      21.817  15.993   6.873  0.00  0.00     0.125 C 
HETATM   20  C   UNK N   1      21.130  14.646   6.949  0.00  0.00     0.040 C 
HETATM   21  C   UNK N   1      20.824  17.069   7.281  0.00  0.00     0.040 C 
ENDBRANCH  18  19
ENDBRANCH   9  18
BRANCH   6  22
HETATM   22  O   UNK N   1      28.287  18.644   5.255  0.00  0.00    -0.356 OA
HETATM   23  C   UNK N   1      28.351  18.183   6.552  0.00  0.00     0.210 C 
ENDBRANCH   6  22
TORSDOF 5
ENDMDL
MODEL 4
REMARK VINA RESULT:      -5.4      5.585      8.656
REMARK  5 active torsions:
REMARK  status: ('A' for Active; 'I' for Inactive)
REMARK    1  A    between atoms: C_1  and  C_13 
REMARK    2  A    between atoms: C_6  and  O_20 
REMARK       I    between atoms: C_9  and  N_16 
REMARK    3  A    between atoms: C_9  and  O_19 
REMARK    4  A    between atoms: C_10  and  O_19 
REMARK    5  A    between atoms: C_13  and  S_22 
ROOT
HETATM    1  C   UNK N   1      23.749  17.209   5.526  0.00  0.00     0.166 A 
HETATM    2  C   UNK N   1      22.598  16.224   5.706  0.00  0.00     0.102 A 
HETATM    3  C   UNK N   1      21.188  17.434   4.103  0.00  0.00     0.060 A 
HETATM    4  C   UNK N   1      22.182  18.411   3.908  0.00  0.00     0.069 A 
HETATM    5  C   UNK N   1      21.859  19.516   3.093  0.00  0.00     0.069 A 
HETATM    6  C   UNK N   1      20.602  19.646   2.484  0.00  0.00     0.070 A 
HETATM    7  C   UNK N   1      19.650  18.648   2.671  0.00  0.00     0.039 A 
HETATM    8  C   UNK N   1      19.941  17.549   3.478  0.00  0.00     0.035 A 
HETATM    9  C   UNK N   1      24.485  19.222   4.309  0.00  0.00     0.368 C 
HETATM   10  N   UNK N   1      23.479  18.300   4.560  0.00  0.00    -0.279 N 
HETATM   11  N   UNK N   1      21.412  16.347   4.958  0.00  0.00    -0.347 N 
HETATM   12  O   UNK N   1      24.331  20.110   3.481  0.00  0.00    -0.238 OA
HETATM   13  S   UNK N   1      22.688  15.160   6.671  0.00  0.00    -0.063 SA
HETATM   14  H   UNK N   1      20.721  15.648   5.037  0.00  0.00     0.167 HD
ENDROOT
BRANCH   1  15
HETATM   15  C   UNK N   1      24.991  16.400   5.094  0.00  0.00     0.106 C 
BRANCH  15  16
HETATM   16  S   UNK N   1      24.773  15.615   3.453  0.00  0.00    -0.171 SA
HETATM   17  C   UNK N   1      26.338  16.245   2.790  0.00  0.00     0.089 C 
ENDBRANCH  15  16
ENDBRANCH   1  15
BRANCH   9  18
HETATM   18  O   UNK N   1      25.677  19.135   4.962  0.00  0.00    -0.299 OA
BRANCH  18  19
HETATM   19  C   UNK N   1      26.709  20.044   4.806  0.00  0.00     0.125 C 
HETATM   20  C   UNK N   1      28.014  19.300   4.619  0.00  0.00     0.040 C 
HETATM   21  C   UNK N   1      26.839  20.960   6.012  0.00  0.00     0.040 C 
ENDBRANCH  18  19
ENDBRANCH   9  18
BRANCH   6  22
HETATM   22  O   UNK N   1      20.287  20.728   1.733  0.00  0.00    -0.356 OA
HETATM   23  C   UNK N   1      20.793  20.942   0.470  0.00  0.00     0.210 C 
ENDBRANCH   6  22
TORSDOF 5
ENDMDL
MODEL 5
REMARK VINA RESULT:      -5.3      9.351     11.958
REMARK  5 active torsions:
REMARK  status: ('A' for Active; 'I' for Inactive)
REMARK    1  A    between atoms: C_1  and  C_13 
REMARK    2  A    between atoms: C_6  and  O_20 
REMARK       I    between atoms: C_9  and  N_16 
REMARK    3  A    between atoms: C_9  and  O_19 
REMARK    4  A    between atoms: C_10  and  O_19 
REMARK    5  A    between atoms: C_13  and  S_22 
ROOT
HETATM    1  C   UNK N   1      33.151  16.306   7.058  0.00  0.00     0.166 A 
HETATM    2  C   UNK N   1      33.301  17.083   8.362  0.00  0.00     0.102 A 
HETATM    3  C   UNK N   1      30.939  17.747   8.347  0.00  0.00     0.060 A 
HETATM    4  C   UNK N   1      30.722  17.089   7.122  0.00  0.00     0.069 A 
HETATM    5  C   UNK N   1      29.454  17.232   6.521  0.00  0.00     0.069 A 
HETATM    6  C   UNK N   1      28.433  17.990   7.114  0.00  0.00     0.070 A 
HETATM    7  C   UNK N   1      28.669  18.604   8.341  0.00  0.00     0.039 A 
HETATM    8  C   UNK N   1      29.915  18.485   8.953  0.00  0.00     0.035 A 
HETATM    9  C   UNK N   1      31.550  15.614   5.316  0.00  0.00     0.368 C 
HETATM   10  N   UNK N   1      31.784  16.324   6.485  0.00  0.00    -0.279 N 
HETATM   11  N   UNK N   1      32.195  17.710   8.967  0.00  0.00    -0.347 N 
HETATM   12  O   UNK N   1      30.428  15.554   4.832  0.00  0.00    -0.238 OA
HETATM   13  S   UNK N   1      34.589  17.219   8.991  0.00  0.00    -0.063 SA
HETATM   14  H   UNK N   1      32.308  18.134   9.849  0.00  0.00     0.167 HD
ENDROOT
BRANCH   1  15
HETATM   15  C   UNK N   1      33.604  14.853   7.327  0.00  0.00     0.106 C 
BRANCH  15  16
HETATM   16  S   UNK N   1      32.644  14.064   8.672  0.00  0.00    -0.171 SA
HETATM   17  C   UNK N   1      34.104  13.379   9.499  0.00  0.00     0.089 C 
ENDBRANCH  15  16
ENDBRANCH   1  15
BRANCH   9  18
HETATM   18  O   UNK N   1      32.564  14.943   4.704  0.00  0.00    -0.299 OA
BRANCH  18  19
HETATM   19  C   UNK N   1      32.886  15.089   3.366  0.00  0.00     0.125 C 
HETATM   20  C   UNK N   1      34.176  14.353   3.073  0.00  0.00     0.040 C 
HETATM   21  C   UNK N   1      33.063  16.550   2.986  0.00  0.00     0.040 C 
ENDBRANCH  18  19
ENDBRANCH   9  18
BRANCH   6  22
HETATM   22  O   UNK N   1      27.231  18.153   6.512  0.00  0.00    -0.356 OA
HETATM   23  C   UNK N   1      27.043  18.960   5.412  0.00  0.00     0.210 C 
ENDBRANCH   6  22
TORSDOF 5
ENDMDL
MODEL 6
REMARK VINA RESULT:      -5.2      7.269      8.720
REMARK  5 active torsions:
REMARK  status: ('A' for Active; 'I' for Inactive)
REMARK    1  A    between atoms: C_1  and  C_13 
REMARK    2  A    between atoms: C_6  and  O_20 
REMARK       I    between atoms: C_9  and  N_16 
REMARK    3  A    between atoms: C_9  and  O_19 
REMARK    4  A    between atoms: C_10  and  O_19 
REMARK    5  A    between atoms: C_13  and  S_22 
ROOT
HETATM    1  C   UNK N   1      27.809  17.035   4.799  0.00  0.00     0.166 A 
HETATM    2  C   UNK N   1      28.266  15.750   4.115  0.00  0.00     0.102 A 
HETATM    3  C   UNK N   1      30.087  15.427   5.727  0.00  0.00     0.060 A 
HETATM    4  C   UNK N   1      29.759  16.622   6.394  0.00  0.00     0.069 A 
HETATM    5  C   UNK N   1      30.611  17.040   7.439  0.00  0.00     0.069 A 
HETATM    6  C   UNK N   1      31.740  16.299   7.816  0.00  0.00     0.070 A 
HETATM    7  C   UNK N   1      32.020  15.105   7.157  0.00  0.00     0.039 A 
HETATM    8  C   UNK N   1      31.200  14.673   6.117  0.00  0.00     0.035 A 
HETATM    9  C   UNK N   1      28.239  18.551   6.695  0.00  0.00     0.368 C 
HETATM   10  N   UNK N   1      28.606  17.414   5.990  0.00  0.00    -0.279 N 
HETATM   11  N   UNK N   1      29.329  14.988   4.633  0.00  0.00    -0.347 N 
HETATM   12  O   UNK N   1      28.832  18.878   7.714  0.00  0.00    -0.238 OA
HETATM   13  S   UNK N   1      27.635  15.303   2.901  0.00  0.00    -0.063 SA
HETATM   14  H   UNK N   1      29.546  14.122   4.216  0.00  0.00     0.167 HD
ENDROOT
BRANCH   1  15
HETATM   15  C   UNK N   1      26.322  16.858   5.180  0.00  0.00     0.106 C 
BRANCH  15  16
HETATM   16  S   UNK N   1      26.077  15.543   6.432  0.00  0.00    -0.171 SA
HETATM   17  C   UNK N   1      24.313  15.336   6.070  0.00  0.00     0.089 C 
ENDBRANCH  15  16
ENDBRANCH   1  15
BRANCH   9  18
HETATM   18  O   UNK N   1      27.188  19.310   6.277  0.00  0.00    -0.299 OA
BRANCH  18  19
HETATM   19  C   UNK N   1      27.325  20.531   5.640  0.00  0.00     0.125 C 
HETATM   20  C   UNK N   1      26.693  21.616   6.485  0.00  0.00     0.040 C 
HETATM   21  C   UNK N   1      26.660  20.529   4.273  0.00  0.00     0.040 C 
ENDBRANCH  18  19
ENDBRANCH   9  18
BRANCH   6  22
HETATM   22  O   UNK N   1      32.574  16.726   8.795  0.00  0.00    -0.356 OA
HETATM   23  C   UNK N   1      33.717  17.452   8.546  0.00  0.00     0.210 C 
ENDBRANCH   6  22
TORSDOF 5
ENDMDL
MODEL 7
REMARK VINA RESULT:      -5.1     13.449     15.448
REMARK  5 active torsions:
REMARK  status: ('A' for Active; 'I' for Inactive)
REMARK    1  A    between atoms: C_1  and  C_13 
REMARK    2  A    between atoms: C_6  and  O_20 
REMARK       I    between atoms: C_9  and  N_16 
REMARK    3  A    between atoms: C_9  and  O_19 
REMARK    4  A    between atoms: C_10  and  O_19 
REMARK    5  A    between atoms: C_13  and  S_22 
ROOT
HETATM    1  C   UNK N   1      35.401  12.709  11.310  0.00  0.00     0.166 A 
HETATM    2  C   UNK N   1      36.326  13.917  11.414  0.00  0.00     0.102 A 
HETATM    3  C   UNK N   1      36.343  13.812  13.865  0.00  0.00     0.060 A 
HETATM    4  C   UNK N   1      35.458  12.717  13.862  0.00  0.00     0.069 A 
HETATM    5  C   UNK N   1      34.990  12.255  15.110  0.00  0.00     0.069 A 
HETATM    6  C   UNK N   1      35.390  12.845  16.318  0.00  0.00     0.070 A 
HETATM    7  C   UNK N   1      36.291  13.906  16.289  0.00  0.00     0.039 A 
HETATM    8  C   UNK N   1      36.763  14.388  15.070  0.00  0.00     0.035 A 
HETATM    9  C   UNK N   1      34.201  10.993  12.610  0.00  0.00     0.368 C 
HETATM   10  N   UNK N   1      35.014  12.117  12.613  0.00  0.00    -0.279 N 
HETATM   11  N   UNK N   1      36.792  14.372  12.662  0.00  0.00    -0.347 N 
HETATM   12  O   UNK N   1      33.896  10.436  13.656  0.00  0.00    -0.238 OA
HETATM   13  S   UNK N   1      36.721  14.642  10.234  0.00  0.00    -0.063 SA
HETATM   14  H   UNK N   1      37.453  15.102  12.690  0.00  0.00     0.167 HD
ENDROOT
BRANCH   1  15
HETATM   15  C   UNK N   1      36.108  11.655  10.428  0.00  0.00     0.106 C 
BRANCH  15  16
HETATM   16  S   UNK N   1      37.631  11.004  11.210  0.00  0.00    -0.171 SA
HETATM   17  C   UNK N   1      38.641  11.184   9.715  0.00  0.00     0.089 C 
ENDBRANCH  15  16
ENDBRANCH   1  15
BRANCH   9  18
HETATM   18  O   UNK N   1      33.753  10.470  11.435  0.00  0.00    -0.299 OA
BRANCH  18  19
HETATM   19  C   UNK N   1      33.419   9.138  11.263  0.00  0.00     0.125 C 
HETATM   20  C   UNK N   1      34.678   8.324  11.059  0.00  0.00     0.040 C 
HETATM   21  C   UNK N   1      32.510   8.937  10.061  0.00  0.00     0.040 C 
ENDBRANCH  18  19
ENDBRANCH   9  18
BRANCH   6  22
HETATM   22  O   UNK N   1      34.907  12.419  17.509  0.00  0.00    -0.356 OA
HETATM   23  C   UNK N   1      35.205  13.032  18.705  0.00  0.00     0.210 C 
ENDBRANCH   6  22
TORSDOF 5
ENDMDL
MODEL 8
REMARK VINA RESULT:      -5.1      4.827      6.855
REMARK  5 active torsions:
REMARK  status: ('A' for Active; 'I' for Inactive)
REMARK    1  A    between atoms: C_1  and  C_13 
REMARK    2  A    between atoms: C_6  and  O_20 
REMARK       I    between atoms: C_9  and  N_16 
REMARK    3  A    between atoms: C_9  and  O_19 
REMARK    4  A    between atoms: C_10  and  O_19 
REMARK    5  A    between atoms: C_13  and  S_22 
ROOT
HETATM    1  C   UNK N   1      20.816  17.660   4.273  0.00  0.00     0.166 A 
HETATM    2  C   UNK N   1      20.634  18.794   3.268  0.00  0.00     0.102 A 
HETATM    3  C   UNK N   1      22.997  19.435   3.422  0.00  0.00     0.060 A 
HETATM    4  C   UNK N   1      23.244  18.439   4.385  0.00  0.00     0.069 A 
HETATM    5  C   UNK N   1      24.528  18.401   4.968  0.00  0.00     0.069 A 
HETATM    6  C   UNK N   1      25.535  19.308   4.606  0.00  0.00     0.070 A 
HETATM    7  C   UNK N   1      25.268  20.263   3.628  0.00  0.00     0.039 A 
HETATM    8  C   UNK N   1      24.006  20.327   3.041  0.00  0.00     0.035 A 
HETATM    9  C   UNK N   1      22.461  16.483   5.682  0.00  0.00     0.368 C 
HETATM   10  N   UNK N   1      22.197  17.512   4.789  0.00  0.00    -0.279 N 
HETATM   11  N   UNK N   1      21.724  19.580   2.853  0.00  0.00    -0.347 N 
HETATM   12  O   UNK N   1      23.595  16.286   6.097  0.00  0.00    -0.238 OA
HETATM   13  S   UNK N   1      19.329  19.106   2.744  0.00  0.00    -0.063 SA
HETATM   14  H   UNK N   1      21.590  20.250   2.143  0.00  0.00     0.167 HD
ENDROOT
BRANCH   1  15
HETATM   15  C   UNK N   1      20.352  16.354   3.590  0.00  0.00     0.106 C 
BRANCH  15  16
HETATM   16  S   UNK N   1      21.471  15.844   2.232  0.00  0.00    -0.171 SA
HETATM   17  C   UNK N   1      20.154  15.769   0.989  0.00  0.00     0.089 C 
ENDBRANCH  15  16
ENDBRANCH   1  15
BRANCH   9  18
HETATM   18  O   UNK N   1      21.461  15.652   6.089  0.00  0.00    -0.299 OA
BRANCH  18  19
HETATM   19  C   UNK N   1      21.135  15.434   7.416  0.00  0.00     0.125 C 
HETATM   20  C   UNK N   1      20.771  13.978   7.615  0.00  0.00     0.040 C 
HETATM   21  C   UNK N   1      19.960  16.293   7.855  0.00  0.00     0.040 C 
ENDBRANCH  18  19
ENDBRANCH   9  18
BRANCH   6  22
HETATM   22  O   UNK N   1      26.753  19.288   5.197  0.00  0.00    -0.356 OA
HETATM   23  C   UNK N   1      27.840  19.976   4.705  0.00  0.00     0.210 C 
ENDBRANCH   6  22
TORSDOF 5
ENDMDL
MODEL 9
REMARK VINA RESULT:      -5.0      9.507     11.052
REMARK  5 active torsions:
REMARK  status: ('A' for Active; 'I' for Inactive)
REMARK    1  A    between atoms: C_1  and  C_13 
REMARK    2  A    between atoms: C_6  and  O_20 
REMARK       I    between atoms: C_9  and  N_16 
REMARK    3  A    between atoms: C_9  and  O_19 
REMARK    4  A    between atoms: C_10  and  O_19 
REMARK    5  A    between atoms: C_13  and  S_22 
ROOT
HETATM    1  C   UNK N   1      31.767  16.891   5.286  0.00  0.00     0.166 A 
HETATM    2  C   UNK N   1      32.938  16.295   4.510  0.00  0.00     0.102 A 
HETATM    3  C   UNK N   1      34.070  15.597   6.571  0.00  0.00     0.060 A 
HETATM    4  C   UNK N   1      33.052  16.156   7.365  0.00  0.00     0.069 A 
HETATM    5  C   UNK N   1      33.236  16.145   8.764  0.00  0.00     0.069 A 
HETATM    6  C   UNK N   1      34.381  15.592   9.357  0.00  0.00     0.070 A 
HETATM    7  C   UNK N   1      35.356  15.019   8.546  0.00  0.00     0.039 A 
HETATM    8  C   UNK N   1      35.203  15.023   7.161  0.00  0.00     0.035 A 
HETATM    9  C   UNK N   1      30.836  17.243   7.541  0.00  0.00     0.368 C 
HETATM   10  N   UNK N   1      31.874  16.759   6.758  0.00  0.00    -0.279 N 
HETATM   11  N   UNK N   1      33.990  15.637   5.173  0.00  0.00    -0.347 N 
HETATM   12  O   UNK N   1      30.852  17.111   8.758  0.00  0.00    -0.238 OA
HETATM   13  S   UNK N   1      33.007  16.421   3.077  0.00  0.00    -0.063 SA
HETATM   14  H   UNK N   1      34.689  15.192   4.639  0.00  0.00     0.167 HD
ENDROOT
BRANCH   1  15
HETATM   15  C   UNK N   1      30.476  16.212   4.776  0.00  0.00     0.106 C 
BRANCH  15  16
HETATM   16  S   UNK N   1      30.419  14.429   5.192  0.00  0.00    -0.171 SA
HETATM   17  C   UNK N   1      30.088  13.901   3.490  0.00  0.00     0.089 C 
ENDBRANCH  15  16
ENDBRANCH   1  15
BRANCH   9  18
HETATM   18  O   UNK N   1      29.762  17.848   6.962  0.00  0.00    -0.299 OA
BRANCH  18  19
HETATM   19  C   UNK N   1      28.531  17.984   7.579  0.00  0.00     0.125 C 
HETATM   20  C   UNK N   1      27.616  16.863   7.134  0.00  0.00     0.040 C 
HETATM   21  C   UNK N   1      27.874  19.312   7.236  0.00  0.00     0.040 C 
ENDBRANCH  18  19
ENDBRANCH   9  18
BRANCH   6  22
HETATM   22  O   UNK N   1      34.567  15.619  10.698  0.00  0.00    -0.356 OA
HETATM   23  C   UNK N   1      35.780  15.906  11.284  0.00  0.00     0.210 C 
ENDBRANCH   6  22
TORSDOF 5
ENDMDL
