MODEL 1
REMARK VINA RESULT:      -7.3      0.000      0.000
REMARK  10 active torsions:
REMARK  status: ('A' for Active; 'I' for Inactive)
REMARK    1  A    between atoms: C_2  and  O_7 
REMARK    2  A    between atoms: C_3  and  O_8 
REMARK    3  A    between atoms: C_5  and  C_9 
REMARK    4  A    between atoms: C_10  and  C_11 
REMARK    5  A    between atoms: C_11  and  C_12 
REMARK    6  A    between atoms: C_12  and  C_14 
REMARK    7  A    between atoms: C_14  and  C_15 
REMARK    8  A    between atoms: C_17  and  C_18 
REMARK    9  A    between atoms: C_20  and  O_24 
REMARK   10  A    between atoms: C_21  and  O_25 
ROOT
HETATM    1  C   UNK N   1      19.288  16.574   7.380  0.00  0.00     0.165 C 
ENDROOT
BRANCH   1   2
HETATM    2  C   UNK N   1      19.806  15.894   6.142  0.00  0.00     0.156 C 
HETATM    3  O   UNK N   1      19.408  14.790   5.805  0.00  0.00    -0.293 OA
BRANCH   2   4
HETATM    4  C   UNK N   1      20.815  16.580   5.324  0.00  0.00     0.051 C 
HETATM    5  C   UNK N   1      20.914  17.913   5.348  0.00  0.00     0.015 C 
BRANCH   5   6
HETATM    6  C   UNK N   1      21.900  18.649   4.553  0.00  0.00    -0.033 A 
HETATM    7  C   UNK N   1      21.450  19.514   3.555  0.00  0.00     0.051 A 
HETATM    8  C   UNK N   1      22.353  20.239   2.769  0.00  0.00     0.102 A 
HETATM    9  C   UNK N   1      23.744  20.079   3.006  0.00  0.00     0.099 A 
HETATM   10  C   UNK N   1      24.187  19.211   4.007  0.00  0.00     0.040 A 
HETATM   11  C   UNK N   1      23.271  18.499   4.778  0.00  0.00     0.014 A 
BRANCH   8  12
HETATM   12  O   UNK N   1      21.841  21.061   1.817  0.00  0.00    -0.353 OA
HETATM   13  C   UNK N   1      20.558  21.007   1.325  0.00  0.00     0.210 C 
ENDBRANCH   8  12
BRANCH   9  14
HETATM   14  O   UNK N   1      24.660  20.748   2.284  0.00  0.00    -0.358 OA
HETATM   15  H   UNK N   1      25.569  20.669   2.492  0.00  0.00     0.217 HD
ENDBRANCH   9  14
ENDBRANCH   5   6
ENDBRANCH   2   4
ENDBRANCH   1   2
BRANCH   1  16
HETATM   16  C   UNK N   1      19.312  15.831   8.688  0.00  0.00     0.156 C 
HETATM   17  O   UNK N   1      18.307  15.710   9.370  0.00  0.00    -0.293 OA
BRANCH  16  18
HETATM   18  C   UNK N   1      20.576  15.242   9.148  0.00  0.00     0.051 C 
HETATM   19  C   UNK N   1      20.600  14.008   9.660  0.00  0.00     0.015 C 
BRANCH  19  20
HETATM   20  C   UNK N   1      21.830  13.370  10.135  0.00  0.00    -0.033 A 
HETATM   21  C   UNK N   1      23.020  13.605   9.445  0.00  0.00     0.051 A 
HETATM   22  C   UNK N   1      24.220  13.018   9.860  0.00  0.00     0.102 A 
HETATM   23  C   UNK N   1      24.209  12.173  11.002  0.00  0.00     0.099 A 
HETATM   24  C   UNK N   1      23.013  11.943  11.686  0.00  0.00     0.040 A 
HETATM   25  C   UNK N   1      21.828  12.536  11.258  0.00  0.00     0.014 A 
BRANCH  22  26
HETATM   26  O   UNK N   1      25.338  13.292   9.140  0.00  0.00    -0.353 OA
HETATM   27  C   UNK N   1      25.362  13.889   7.901  0.00  0.00     0.210 C 
ENDBRANCH  22  26
BRANCH  23  28
HETATM   28  O   UNK N   1      25.329  11.581  11.448  0.00  0.00    -0.358 OA
HETATM   29  H   UNK N   1      25.285  10.736  11.850  0.00  0.00     0.217 HD
ENDBRANCH  23  28
ENDBRANCH  19  20
ENDBRANCH  16  18
ENDBRANCH   1  16
TORSDOF 10
ENDMDL
MODEL 2
REMARK VINA RESULT:      -7.2     15.108     17.033
REMARK  10 active torsions:
REMARK  status: ('A' for Active; 'I' for Inactive)
REMARK    1  A    between atoms: C_2  and  O_7 
REMARK    2  A    between atoms: C_3  and  O_8 
REMARK    3  A    between atoms: C_5  and  C_9 
REMARK    4  A    between atoms: C_10  and  C_11 
REMARK    5  A    between atoms: C_11  and  C_12 
REMARK    6  A    between atoms: C_12  and  C_14 
REMARK    7  A    between atoms: C_14  and  C_15 
REMARK    8  A    between atoms: C_17  and  C_18 
REMARK    9  A    between atoms: C_20  and  O_24 
REMARK   10  A    between atoms: C_21  and  O_25 
ROOT
HETATM    1  C   UNK N   1      31.963  22.168  -4.596  0.00  0.00     0.165 C 
ENDROOT
BRANCH   1   2
HETATM    2  C   UNK N   1      31.421  20.995  -5.366  0.00  0.00     0.156 C 
HETATM    3  O   UNK N   1      32.124  20.040  -5.653  0.00  0.00    -0.293 OA
BRANCH   2   4
HETATM    4  C   UNK N   1      30.011  21.006  -5.777  0.00  0.00     0.051 C 
HETATM    5  C   UNK N   1      29.581  21.876  -6.697  0.00  0.00     0.015 C 
BRANCH   5   6
HETATM    6  C   UNK N   1      28.187  21.931  -7.145  0.00  0.00    -0.033 A 
HETATM    7  C   UNK N   1      27.400  23.017  -6.760  0.00  0.00     0.051 A 
HETATM    8  C   UNK N   1      26.062  23.116  -7.162  0.00  0.00     0.102 A 
HETATM    9  C   UNK N   1      25.516  22.085  -7.973  0.00  0.00     0.099 A 
HETATM   10  C   UNK N   1      26.312  21.002  -8.354  0.00  0.00     0.040 A 
HETATM   11  C   UNK N   1      27.640  20.923  -7.943  0.00  0.00     0.014 A 
BRANCH   8  12
HETATM   12  O   UNK N   1      25.358  24.200  -6.749  0.00  0.00    -0.353 OA
HETATM   13  C   UNK N   1      25.693  25.511  -7.003  0.00  0.00     0.210 C 
ENDBRANCH   8  12
BRANCH   9  14
HETATM   14  O   UNK N   1      24.240  22.124  -8.391  0.00  0.00    -0.358 OA
HETATM   15  H   UNK N   1      23.978  21.634  -9.145  0.00  0.00     0.217 HD
ENDBRANCH   9  14
ENDBRANCH   5   6
ENDBRANCH   2   4
ENDBRANCH   1   2
BRANCH   1  16
HETATM   16  C   UNK N   1      31.443  22.439  -3.211  0.00  0.00     0.156 C 
HETATM   17  O   UNK N   1      31.970  21.951  -2.224  0.00  0.00    -0.293 OA
BRANCH  16  18
HETATM   18  C   UNK N   1      30.273  23.312  -3.049  0.00  0.00     0.051 C 
HETATM   19  C   UNK N   1      29.950  24.194  -4.001  0.00  0.00     0.015 C 
BRANCH  19  20
HETATM   20  C   UNK N   1      28.796  25.089  -3.895  0.00  0.00    -0.033 A 
HETATM   21  C   UNK N   1      28.956  26.437  -4.218  0.00  0.00     0.051 A 
HETATM   22  C   UNK N   1      27.884  27.330  -4.132  0.00  0.00     0.102 A 
HETATM   23  C   UNK N   1      26.619  26.842  -3.708  0.00  0.00     0.099 A 
HETATM   24  C   UNK N   1      26.467  25.491  -3.386  0.00  0.00     0.040 A 
HETATM   25  C   UNK N   1      27.547  24.617  -3.478  0.00  0.00     0.014 A 
BRANCH  22  26
HETATM   26  O   UNK N   1      28.116  28.627  -4.462  0.00  0.00    -0.353 OA
HETATM   27  C   UNK N   1      28.167  29.126  -5.743  0.00  0.00     0.210 C 
ENDBRANCH  22  26
BRANCH  23  28
HETATM   28  O   UNK N   1      25.552  27.651  -3.606  0.00  0.00    -0.358 OA
HETATM   29  H   UNK N   1      25.587  28.520  -3.954  0.00  0.00     0.217 HD
ENDBRANCH  23  28
ENDBRANCH  19  20
ENDBRANCH  16  18
ENDBRANCH   1  16
TORSDOF 10
ENDMDL
MODEL 3
REMARK VINA RESULT:      -7.1     14.834     17.063
REMARK  10 active torsions:
REMARK  status: ('A' for Active; 'I' for Inactive)
REMARK    1  A    between atoms: C_2  and  O_7 
REMARK    2  A    between atoms: C_3  and  O_8 
REMARK    3  A    between atoms: C_5  and  C_9 
REMARK    4  A    between atoms: C_10  and  C_11 
REMARK    5  A    between atoms: C_11  and  C_12 
REMARK    6  A    between atoms: C_12  and  C_14 
REMARK    7  A    between atoms: C_14  and  C_15 
REMARK    8  A    between atoms: C_17  and  C_18 
REMARK    9  A    between atoms: C_20  and  O_24 
REMARK   10  A    between atoms: C_21  and  O_25 
ROOT
HETATM    1  C   UNK N   1      26.175  23.885  -9.130  0.00  0.00     0.165 C 
ENDROOT
BRANCH   1   2
HETATM    2  C   UNK N   1      25.763  25.316  -9.340  0.00  0.00     0.156 C 
HETATM    3  O   UNK N   1      25.576  25.769 -10.458  0.00  0.00    -0.293 OA
BRANCH   2   4
HETATM    4  C   UNK N   1      25.583  26.184  -8.168  0.00  0.00     0.051 C 
HETATM    5  C   UNK N   1      26.644  26.635  -7.490  0.00  0.00     0.015 C 
BRANCH   5   6
HETATM    6  C   UNK N   1      26.524  27.501  -6.316  0.00  0.00    -0.033 A 
HETATM    7  C   UNK N   1      27.340  28.630  -6.226  0.00  0.00     0.051 A 
HETATM    8  C   UNK N   1      27.263  29.489  -5.124  0.00  0.00     0.102 A 
HETATM    9  C   UNK N   1      26.334  29.191  -4.090  0.00  0.00     0.099 A 
HETATM   10  C   UNK N   1      25.521  28.059  -4.188  0.00  0.00     0.040 A 
HETATM   11  C   UNK N   1      25.614  27.217  -5.294  0.00  0.00     0.014 A 
BRANCH   8  12
HETATM   12  O   UNK N   1      28.088  30.567  -5.105  0.00  0.00    -0.353 OA
HETATM   13  C   UNK N   1      29.050  30.850  -6.047  0.00  0.00     0.210 C 
ENDBRANCH   8  12
BRANCH   9  14
HETATM   14  O   UNK N   1      26.214  29.978  -3.008  0.00  0.00    -0.358 OA
HETATM   15  H   UNK N   1      26.384  30.896  -3.074  0.00  0.00     0.217 HD
ENDBRANCH   9  14
ENDBRANCH   5   6
ENDBRANCH   2   4
ENDBRANCH   1   2
BRANCH   1  16
HETATM   16  C   UNK N   1      25.538  23.096  -8.018  0.00  0.00     0.156 C 
HETATM   17  O   UNK N   1      24.448  22.565  -8.156  0.00  0.00    -0.293 OA
BRANCH  16  18
HETATM   18  C   UNK N   1      26.251  22.965  -6.741  0.00  0.00     0.051 C 
HETATM   19  C   UNK N   1      27.496  23.435  -6.609  0.00  0.00     0.015 C 
BRANCH  19  20
HETATM   20  C   UNK N   1      28.254  23.333  -5.360  0.00  0.00    -0.033 A 
HETATM   21  C   UNK N   1      29.451  22.615  -5.356  0.00  0.00     0.051 A 
HETATM   22  C   UNK N   1      30.210  22.490  -4.188  0.00  0.00     0.102 A 
HETATM   23  C   UNK N   1      29.742  23.108  -2.998  0.00  0.00     0.099 A 
HETATM   24  C   UNK N   1      28.543  23.825  -3.011  0.00  0.00     0.040 A 
HETATM   25  C   UNK N   1      27.801  23.939  -4.184  0.00  0.00     0.014 A 
BRANCH  22  26
HETATM   26  O   UNK N   1      31.364  21.776  -4.260  0.00  0.00    -0.353 OA
HETATM   27  C   UNK N   1      31.454  20.404  -4.248  0.00  0.00     0.210 C 
ENDBRANCH  22  26
BRANCH  23  28
HETATM   28  O   UNK N   1      30.427  23.023  -1.846  0.00  0.00    -0.358 OA
HETATM   29  H   UNK N   1      31.250  23.463  -1.756  0.00  0.00     0.217 HD
ENDBRANCH  23  28
ENDBRANCH  19  20
ENDBRANCH  16  18
ENDBRANCH   1  16
TORSDOF 10
ENDMDL
MODEL 4
REMARK VINA RESULT:      -7.0     14.846     16.993
REMARK  10 active torsions:
REMARK  status: ('A' for Active; 'I' for Inactive)
REMARK    1  A    between atoms: C_2  and  O_7 
REMARK    2  A    between atoms: C_3  and  O_8 
REMARK    3  A    between atoms: C_5  and  C_9 
REMARK    4  A    between atoms: C_10  and  C_11 
REMARK    5  A    between atoms: C_11  and  C_12 
REMARK    6  A    between atoms: C_12  and  C_14 
REMARK    7  A    between atoms: C_14  and  C_15 
REMARK    8  A    between atoms: C_17  and  C_18 
REMARK    9  A    between atoms: C_20  and  O_24 
REMARK   10  A    between atoms: C_21  and  O_25 
ROOT
HETATM    1  C   UNK N   1      31.540  20.526  -4.062  0.00  0.00     0.165 C 
ENDROOT
BRANCH   1   2
HETATM    2  C   UNK N   1      31.408  21.627  -3.045  0.00  0.00     0.156 C 
HETATM    3  O   UNK N   1      32.276  21.836  -2.213  0.00  0.00    -0.293 OA
BRANCH   2   4
HETATM    4  C   UNK N   1      30.201  22.466  -3.060  0.00  0.00     0.051 C 
HETATM    5  C   UNK N   1      30.229  23.682  -3.615  0.00  0.00     0.015 C 
BRANCH   5   6
HETATM    6  C   UNK N   1      29.057  24.560  -3.657  0.00  0.00    -0.033 A 
HETATM    7  C   UNK N   1      29.222  25.881  -4.076  0.00  0.00     0.051 A 
HETATM    8  C   UNK N   1      28.133  26.759  -4.134  0.00  0.00     0.102 A 
HETATM    9  C   UNK N   1      26.850  26.280  -3.757  0.00  0.00     0.099 A 
HETATM   10  C   UNK N   1      26.694  24.956  -3.339  0.00  0.00     0.040 A 
HETATM   11  C   UNK N   1      27.790  24.099  -3.289  0.00  0.00     0.014 A 
BRANCH   8  12
HETATM   12  O   UNK N   1      28.369  28.029  -4.551  0.00  0.00    -0.353 OA
HETATM   13  C   UNK N   1      28.859  28.383  -5.787  0.00  0.00     0.210 C 
ENDBRANCH   8  12
BRANCH   9  14
HETATM   14  O   UNK N   1      25.767  27.075  -3.792  0.00  0.00    -0.358 OA
HETATM   15  H   UNK N   1      25.717  27.773  -4.414  0.00  0.00     0.217 HD
ENDBRANCH   9  14
ENDBRANCH   5   6
ENDBRANCH   2   4
ENDBRANCH   1   2
BRANCH   1  16
HETATM   16  C   UNK N   1      31.297  20.837  -5.513  0.00  0.00     0.156 C 
HETATM   17  O   UNK N   1      32.218  21.076  -6.277  0.00  0.00    -0.293 OA
BRANCH  16  18
HETATM   18  C   UNK N   1      29.918  20.851  -6.016  0.00  0.00     0.051 C 
HETATM   19  C   UNK N   1      29.392  21.974  -6.517  0.00  0.00     0.015 C 
BRANCH  19  20
HETATM   20  C   UNK N   1      28.023  22.047  -7.032  0.00  0.00    -0.033 A 
HETATM   21  C   UNK N   1      27.254  23.176  -6.744  0.00  0.00     0.051 A 
HETATM   22  C   UNK N   1      25.942  23.291  -7.214  0.00  0.00     0.102 A 
HETATM   23  C   UNK N   1      25.399  22.236  -7.995  0.00  0.00     0.099 A 
HETATM   24  C   UNK N   1      26.175  21.110  -8.278  0.00  0.00     0.040 A 
HETATM   25  C   UNK N   1      27.480  21.013  -7.802  0.00  0.00     0.014 A 
BRANCH  22  26
HETATM   26  O   UNK N   1      25.255  24.418  -6.893  0.00  0.00    -0.353 OA
HETATM   27  C   UNK N   1      25.683  25.705  -7.121  0.00  0.00     0.210 C 
ENDBRANCH  22  26
BRANCH  23  28
HETATM   28  O   UNK N   1      24.145  22.290  -8.473  0.00  0.00    -0.358 OA
HETATM   29  H   UNK N   1      23.440  22.548  -7.913  0.00  0.00     0.217 HD
ENDBRANCH  23  28
ENDBRANCH  19  20
ENDBRANCH  16  18
ENDBRANCH   1  16
TORSDOF 10
ENDMDL
MODEL 5
REMARK VINA RESULT:      -7.0     14.150     17.954
REMARK  10 active torsions:
REMARK  status: ('A' for Active; 'I' for Inactive)
REMARK    1  A    between atoms: C_2  and  O_7 
REMARK    2  A    between atoms: C_3  and  O_8 
REMARK    3  A    between atoms: C_5  and  C_9 
REMARK    4  A    between atoms: C_10  and  C_11 
REMARK    5  A    between atoms: C_11  and  C_12 
REMARK    6  A    between atoms: C_12  and  C_14 
REMARK    7  A    between atoms: C_14  and  C_15 
REMARK    8  A    between atoms: C_17  and  C_18 
REMARK    9  A    between atoms: C_20  and  O_24 
REMARK   10  A    between atoms: C_21  and  O_25 
ROOT
HETATM    1  C   UNK N   1      27.090  23.196  -8.735  0.00  0.00     0.165 C 
ENDROOT
BRANCH   1   2
HETATM    2  C   UNK N   1      27.653  21.930  -8.149  0.00  0.00     0.156 C 
HETATM    3  O   UNK N   1      27.448  20.843  -8.663  0.00  0.00    -0.293 OA
BRANCH   2   4
HETATM    4  C   UNK N   1      28.468  22.012  -6.929  0.00  0.00     0.051 C 
HETATM    5  C   UNK N   1      29.450  21.132  -6.711  0.00  0.00     0.015 C 
BRANCH   5   6
HETATM    6  C   UNK N   1      30.293  21.167  -5.513  0.00  0.00    -0.033 A 
HETATM    7  C   UNK N   1      29.885  21.940  -4.425  0.00  0.00     0.051 A 
HETATM    8  C   UNK N   1      30.655  22.005  -3.259  0.00  0.00     0.102 A 
HETATM    9  C   UNK N   1      31.869  21.268  -3.200  0.00  0.00     0.099 A 
HETATM   10  C   UNK N   1      32.270  20.497  -4.294  0.00  0.00     0.040 A 
HETATM   11  C   UNK N   1      31.488  20.445  -5.445  0.00  0.00     0.014 A 
BRANCH   8  12
HETATM   12  O   UNK N   1      30.195  22.777  -2.242  0.00  0.00    -0.353 OA
HETATM   13  C   UNK N   1      28.872  23.064  -1.996  0.00  0.00     0.210 C 
ENDBRANCH   8  12
BRANCH   9  14
HETATM   14  O   UNK N   1      32.651  21.291  -2.108  0.00  0.00    -0.358 OA
HETATM   15  H   UNK N   1      32.271  21.419  -1.262  0.00  0.00     0.217 HD
ENDBRANCH   9  14
ENDBRANCH   5   6
ENDBRANCH   2   4
ENDBRANCH   1   2
BRANCH   1  16
HETATM   16  C   UNK N   1      25.839  23.784  -8.141  0.00  0.00     0.156 C 
HETATM   17  O   UNK N   1      24.732  23.467  -8.545  0.00  0.00    -0.293 OA
BRANCH  16  18
HETATM   18  C   UNK N   1      25.960  24.762  -7.052  0.00  0.00     0.051 C 
HETATM   19  C   UNK N   1      26.015  26.071  -7.321  0.00  0.00     0.015 C 
BRANCH  19  20
HETATM   20  C   UNK N   1      26.136  27.090  -6.276  0.00  0.00    -0.033 A 
HETATM   21  C   UNK N   1      27.130  28.063  -6.396  0.00  0.00     0.051 A 
HETATM   22  C   UNK N   1      27.284  29.057  -5.424  0.00  0.00     0.102 A 
HETATM   23  C   UNK N   1      26.407  29.062  -4.306  0.00  0.00     0.099 A 
HETATM   24  C   UNK N   1      25.415  28.085  -4.194  0.00  0.00     0.040 A 
HETATM   25  C   UNK N   1      25.277  27.103  -5.172  0.00  0.00     0.014 A 
BRANCH  22  26
HETATM   26  O   UNK N   1      28.273  29.969  -5.608  0.00  0.00    -0.353 OA
HETATM   27  C   UNK N   1      29.616  29.736  -5.427  0.00  0.00     0.210 C 
ENDBRANCH  22  26
BRANCH  23  28
HETATM   28  O   UNK N   1      26.506  29.991  -3.341  0.00  0.00    -0.358 OA
HETATM   29  H   UNK N   1      27.059  30.738  -3.464  0.00  0.00     0.217 HD
ENDBRANCH  23  28
ENDBRANCH  19  20
ENDBRANCH  16  18
ENDBRANCH   1  16
TORSDOF 10
ENDMDL
MODEL 6
REMARK VINA RESULT:      -7.0     14.007     16.178
REMARK  10 active torsions:
REMARK  status: ('A' for Active; 'I' for Inactive)
REMARK    1  A    between atoms: C_2  and  O_7 
REMARK    2  A    between atoms: C_3  and  O_8 
REMARK    3  A    between atoms: C_5  and  C_9 
REMARK    4  A    between atoms: C_10  and  C_11 
REMARK    5  A    between atoms: C_11  and  C_12 
REMARK    6  A    between atoms: C_12  and  C_14 
REMARK    7  A    between atoms: C_14  and  C_15 
REMARK    8  A    between atoms: C_17  and  C_18 
REMARK    9  A    between atoms: C_20  and  O_24 
REMARK   10  A    between atoms: C_21  and  O_25 
ROOT
HETATM    1  C   UNK N   1      26.372  21.016  -8.132  0.00  0.00     0.165 C 
ENDROOT
BRANCH   1   2
HETATM    2  C   UNK N   1      25.477  22.184  -7.822  0.00  0.00     0.156 C 
HETATM    3  O   UNK N   1      24.277  22.146  -8.041  0.00  0.00    -0.293 OA
BRANCH   2   4
HETATM    4  C   UNK N   1      26.068  23.397  -7.241  0.00  0.00     0.051 C 
HETATM    5  C   UNK N   1      25.904  23.676  -5.943  0.00  0.00     0.015 C 
BRANCH   5   6
HETATM    6  C   UNK N   1      26.471  24.870  -5.311  0.00  0.00    -0.033 A 
HETATM    7  C   UNK N   1      27.858  25.014  -5.268  0.00  0.00     0.051 A 
HETATM    8  C   UNK N   1      28.447  26.137  -4.675  0.00  0.00     0.102 A 
HETATM    9  C   UNK N   1      27.604  27.134  -4.115  0.00  0.00     0.099 A 
HETATM   10  C   UNK N   1      26.216  26.981  -4.162  0.00  0.00     0.040 A 
HETATM   11  C   UNK N   1      25.650  25.856  -4.757  0.00  0.00     0.014 A 
BRANCH   8  12
HETATM   12  O   UNK N   1      29.803  26.208  -4.670  0.00  0.00    -0.353 OA
HETATM   13  C   UNK N   1      30.614  25.870  -3.612  0.00  0.00     0.210 C 
ENDBRANCH   8  12
BRANCH   9  14
HETATM   14  O   UNK N   1      28.111  28.233  -3.532  0.00  0.00    -0.358 OA
HETATM   15  H   UNK N   1      28.553  28.167  -2.709  0.00  0.00     0.217 HD
ENDBRANCH   9  14
ENDBRANCH   5   6
ENDBRANCH   2   4
ENDBRANCH   1   2
BRANCH   1  16
HETATM   16  C   UNK N   1      27.852  21.246  -8.279  0.00  0.00     0.156 C 
HETATM   17  O   UNK N   1      28.333  21.658  -9.322  0.00  0.00    -0.293 OA
BRANCH  16  18
HETATM   18  C   UNK N   1      28.731  20.966  -7.136  0.00  0.00     0.051 C 
HETATM   19  C   UNK N   1      29.373  21.961  -6.516  0.00  0.00     0.015 C 
BRANCH  19  20
HETATM   20  C   UNK N   1      30.261  21.742  -5.373  0.00  0.00    -0.033 A 
HETATM   21  C   UNK N   1      29.951  22.344  -4.153  0.00  0.00     0.051 A 
HETATM   22  C   UNK N   1      30.769  22.164  -3.033  0.00  0.00     0.102 A 
HETATM   23  C   UNK N   1      31.929  21.354  -3.157  0.00  0.00     0.099 A 
HETATM   24  C   UNK N   1      32.233  20.755  -4.382  0.00  0.00     0.040 A 
HETATM   25  C   UNK N   1      31.406  20.946  -5.486  0.00  0.00     0.014 A 
BRANCH  22  26
HETATM   26  O   UNK N   1      30.403  22.782  -1.880  0.00  0.00    -0.353 OA
HETATM   27  C   UNK N   1      29.115  23.094  -1.517  0.00  0.00     0.210 C 
ENDBRANCH  22  26
BRANCH  23  28
HETATM   28  O   UNK N   1      32.753  21.144  -2.117  0.00  0.00    -0.358 OA
HETATM   29  H   UNK N   1      33.216  20.333  -2.041  0.00  0.00     0.217 HD
ENDBRANCH  23  28
ENDBRANCH  19  20
ENDBRANCH  16  18
ENDBRANCH   1  16
TORSDOF 10
ENDMDL
MODEL 7
REMARK VINA RESULT:      -6.9     14.949     18.168
REMARK  10 active torsions:
REMARK  status: ('A' for Active; 'I' for Inactive)
REMARK    1  A    between atoms: C_2  and  O_7 
REMARK    2  A    between atoms: C_3  and  O_8 
REMARK    3  A    between atoms: C_5  and  C_9 
REMARK    4  A    between atoms: C_10  and  C_11 
REMARK    5  A    between atoms: C_11  and  C_12 
REMARK    6  A    between atoms: C_12  and  C_14 
REMARK    7  A    between atoms: C_14  and  C_15 
REMARK    8  A    between atoms: C_17  and  C_18 
REMARK    9  A    between atoms: C_20  and  O_24 
REMARK   10  A    between atoms: C_21  and  O_25 
ROOT
HETATM    1  C   UNK N   1      26.595  23.561  -9.272  0.00  0.00     0.165 C 
ENDROOT
BRANCH   1   2
HETATM    2  C   UNK N   1      26.248  22.432  -8.341  0.00  0.00     0.156 C 
HETATM    3  O   UNK N   1      25.484  21.541  -8.674  0.00  0.00    -0.293 OA
BRANCH   2   4
HETATM    4  C   UNK N   1      26.847  22.408  -6.999  0.00  0.00     0.051 C 
HETATM    5  C   UNK N   1      27.998  23.046  -6.760  0.00  0.00     0.015 C 
BRANCH   5   6
HETATM    6  C   UNK N   1      28.640  23.055  -5.443  0.00  0.00    -0.033 A 
HETATM    7  C   UNK N   1      29.734  22.218  -5.223  0.00  0.00     0.051 A 
HETATM    8  C   UNK N   1      30.381  22.191  -3.982  0.00  0.00     0.102 A 
HETATM    9  C   UNK N   1      29.903  23.035  -2.944  0.00  0.00     0.099 A 
HETATM   10  C   UNK N   1      28.807  23.871  -3.174  0.00  0.00     0.040 A 
HETATM   11  C   UNK N   1      28.177  23.882  -4.416  0.00  0.00     0.014 A 
BRANCH   8  12
HETATM   12  O   UNK N   1      31.439  21.352  -3.841  0.00  0.00    -0.353 OA
HETATM   13  C   UNK N   1      31.604  20.160  -4.508  0.00  0.00     0.210 C 
ENDBRANCH   8  12
BRANCH   9  14
HETATM   14  O   UNK N   1      30.482  23.054  -1.732  0.00  0.00    -0.358 OA
HETATM   15  H   UNK N   1      31.160  23.673  -1.546  0.00  0.00     0.217 HD
ENDBRANCH   9  14
ENDBRANCH   5   6
ENDBRANCH   2   4
ENDBRANCH   1   2
BRANCH   1  16
HETATM   16  C   UNK N   1      25.710  24.777  -9.310  0.00  0.00     0.156 C 
HETATM   17  O   UNK N   1      24.741  24.838 -10.049  0.00  0.00    -0.293 OA
BRANCH  16  18
HETATM   18  C   UNK N   1      26.026  25.913  -8.435  0.00  0.00     0.051 C 
HETATM   19  C   UNK N   1      25.710  25.876  -7.137  0.00  0.00     0.015 C 
BRANCH  19  20
HETATM   20  C   UNK N   1      26.000  26.978  -6.218  0.00  0.00    -0.033 A 
HETATM   21  C   UNK N   1      27.041  27.856  -6.525  0.00  0.00     0.051 A 
HETATM   22  C   UNK N   1      27.355  28.923  -5.678  0.00  0.00     0.102 A 
HETATM   23  C   UNK N   1      26.594  29.103  -4.491  0.00  0.00     0.099 A 
HETATM   24  C   UNK N   1      25.554  28.220  -4.192  0.00  0.00     0.040 A 
HETATM   25  C   UNK N   1      25.255  27.163  -5.048  0.00  0.00     0.014 A 
BRANCH  22  26
HETATM   26  O   UNK N   1      28.382  29.735  -6.042  0.00  0.00    -0.353 OA
HETATM   27  C   UNK N   1      29.078  29.657  -7.224  0.00  0.00     0.210 C 
ENDBRANCH  22  26
BRANCH  23  28
HETATM   28  O   UNK N   1      26.849  30.109  -3.640  0.00  0.00    -0.358 OA
HETATM   29  H   UNK N   1      27.044  29.926  -2.742  0.00  0.00     0.217 HD
ENDBRANCH  23  28
ENDBRANCH  19  20
ENDBRANCH  16  18
ENDBRANCH   1  16
TORSDOF 10
ENDMDL
MODEL 8
REMARK VINA RESULT:      -6.8      3.141      7.735
REMARK  10 active torsions:
REMARK  status: ('A' for Active; 'I' for Inactive)
REMARK    1  A    between atoms: C_2  and  O_7 
REMARK    2  A    between atoms: C_3  and  O_8 
REMARK    3  A    between atoms: C_5  and  C_9 
REMARK    4  A    between atoms: C_10  and  C_11 
REMARK    5  A    between atoms: C_11  and  C_12 
REMARK    6  A    between atoms: C_12  and  C_14 
REMARK    7  A    between atoms: C_14  and  C_15 
REMARK    8  A    between atoms: C_17  and  C_18 
REMARK    9  A    between atoms: C_20  and  O_24 
REMARK   10  A    between atoms: C_21  and  O_25 
ROOT
HETATM    1  C   UNK N   1      22.135  19.529   2.822  0.00  0.00     0.165 C 
ENDROOT
BRANCH   1   2
HETATM    2  C   UNK N   1      21.074  19.507   3.888  0.00  0.00     0.156 C 
HETATM    3  O   UNK N   1      20.380  20.484   4.118  0.00  0.00    -0.293 OA
BRANCH   2   4
HETATM    4  C   UNK N   1      20.874  18.277   4.666  0.00  0.00     0.051 C 
HETATM    5  C   UNK N   1      21.312  18.194   5.927  0.00  0.00     0.015 C 
BRANCH   5   6
HETATM    6  C   UNK N   1      21.140  16.994   6.748  0.00  0.00    -0.033 A 
HETATM    7  C   UNK N   1      20.044  16.919   7.609  0.00  0.00     0.051 A 
HETATM    8  C   UNK N   1      19.836  15.793   8.415  0.00  0.00     0.102 A 
HETATM    9  C   UNK N   1      20.765  14.721   8.341  0.00  0.00     0.099 A 
HETATM   10  C   UNK N   1      21.860  14.804   7.476  0.00  0.00     0.040 A 
HETATM   11  C   UNK N   1      22.048  15.933   6.683  0.00  0.00     0.014 A 
BRANCH   8  12
HETATM   12  O   UNK N   1      18.749  15.792   9.227  0.00  0.00    -0.353 OA
HETATM   13  C   UNK N   1      17.893  16.852   9.414  0.00  0.00     0.210 C 
ENDBRANCH   8  12
BRANCH   9  14
HETATM   14  O   UNK N   1      20.620  13.614   9.088  0.00  0.00    -0.358 OA
HETATM   15  H   UNK N   1      20.641  13.673  10.023  0.00  0.00     0.217 HD
ENDBRANCH   9  14
ENDBRANCH   5   6
ENDBRANCH   2   4
ENDBRANCH   1   2
BRANCH   1  16
HETATM   16  C   UNK N   1      23.432  20.241   3.094  0.00  0.00     0.156 C 
HETATM   17  O   UNK N   1      23.542  21.446   2.940  0.00  0.00    -0.293 OA
BRANCH  16  18
HETATM   18  C   UNK N   1      24.588  19.461   3.556  0.00  0.00     0.051 C 
HETATM   19  C   UNK N   1      25.559  20.046   4.265  0.00  0.00     0.015 C 
BRANCH  19  20
HETATM   20  C   UNK N   1      26.734  19.320   4.751  0.00  0.00    -0.033 A 
HETATM   21  C   UNK N   1      27.144  19.508   6.072  0.00  0.00     0.051 A 
HETATM   22  C   UNK N   1      28.259  18.837   6.582  0.00  0.00     0.102 A 
HETATM   23  C   UNK N   1      28.975  17.954   5.729  0.00  0.00     0.099 A 
HETATM   24  C   UNK N   1      28.558  17.771   4.408  0.00  0.00     0.040 A 
HETATM   25  C   UNK N   1      27.445  18.449   3.919  0.00  0.00     0.014 A 
BRANCH  22  26
HETATM   26  O   UNK N   1      28.598  19.069   7.876  0.00  0.00    -0.353 OA
HETATM   27  C   UNK N   1      28.239  18.286   8.947  0.00  0.00     0.210 C 
ENDBRANCH  22  26
BRANCH  23  28
HETATM   28  O   UNK N   1      30.054  17.281   6.162  0.00  0.00    -0.358 OA
HETATM   29  H   UNK N   1      30.045  16.345   6.186  0.00  0.00     0.217 HD
ENDBRANCH  23  28
ENDBRANCH  19  20
ENDBRANCH  16  18
ENDBRANCH   1  16
TORSDOF 10
ENDMDL
MODEL 9
REMARK VINA RESULT:      -6.8      9.595     12.208
REMARK  10 active torsions:
REMARK  status: ('A' for Active; 'I' for Inactive)
REMARK    1  A    between atoms: C_2  and  O_7 
REMARK    2  A    between atoms: C_3  and  O_8 
REMARK    3  A    between atoms: C_5  and  C_9 
REMARK    4  A    between atoms: C_10  and  C_11 
REMARK    5  A    between atoms: C_11  and  C_12 
REMARK    6  A    between atoms: C_12  and  C_14 
REMARK    7  A    between atoms: C_14  and  C_15 
REMARK    8  A    between atoms: C_17  and  C_18 
REMARK    9  A    between atoms: C_20  and  O_24 
REMARK   10  A    between atoms: C_21  and  O_25 
ROOT
HETATM    1  C   UNK N   1      34.050  16.215   9.146  0.00  0.00     0.165 C 
ENDROOT
BRANCH   1   2
HETATM    2  C   UNK N   1      33.947  16.681   7.719  0.00  0.00     0.156 C 
HETATM    3  O   UNK N   1      34.874  16.550   6.936  0.00  0.00    -0.293 OA
BRANCH   2   4
HETATM    4  C   UNK N   1      32.699  17.310   7.265  0.00  0.00     0.051 C 
HETATM    5  C   UNK N   1      31.521  16.899   7.744  0.00  0.00     0.015 C 
BRANCH   5   6
HETATM    6  C   UNK N   1      30.247  17.489   7.327  0.00  0.00    -0.033 A 
HETATM    7  C   UNK N   1      29.871  17.399   5.986  0.00  0.00     0.051 A 
HETATM    8  C   UNK N   1      28.664  17.947   5.538  0.00  0.00     0.102 A 
HETATM    9  C   UNK N   1      27.821  18.600   6.477  0.00  0.00     0.099 A 
HETATM   10  C   UNK N   1      28.204  18.685   7.818  0.00  0.00     0.040 A 
HETATM   11  C   UNK N   1      29.410  18.133   8.243  0.00  0.00     0.014 A 
BRANCH   8  12
HETATM   12  O   UNK N   1      28.365  17.822   4.220  0.00  0.00    -0.353 OA
HETATM   13  C   UNK N   1      27.748  16.736   3.643  0.00  0.00     0.210 C 
ENDBRANCH   8  12
BRANCH   9  14
HETATM   14  O   UNK N   1      26.649  19.145   6.108  0.00  0.00    -0.358 OA
HETATM   15  H   UNK N   1      26.499  19.371   5.211  0.00  0.00     0.217 HD
ENDBRANCH   9  14
ENDBRANCH   5   6
ENDBRANCH   2   4
ENDBRANCH   1   2
BRANCH   1  16
HETATM   16  C   UNK N   1      35.111  16.804  10.035  0.00  0.00     0.156 C 
HETATM   17  O   UNK N   1      35.585  17.907   9.817  0.00  0.00    -0.293 OA
BRANCH  16  18
HETATM   18  C   UNK N   1      35.582  16.028  11.189  0.00  0.00     0.051 C 
HETATM   19  C   UNK N   1      34.978  14.884  11.528  0.00  0.00     0.015 C 
BRANCH  19  20
HETATM   20  C   UNK N   1      35.404  14.069  12.667  0.00  0.00    -0.033 A 
HETATM   21  C   UNK N   1      36.276  14.625  13.605  0.00  0.00     0.051 A 
HETATM   22  C   UNK N   1      36.711  13.886  14.709  0.00  0.00     0.102 A 
HETATM   23  C   UNK N   1      36.249  12.551  14.865  0.00  0.00     0.099 A 
HETATM   24  C   UNK N   1      35.377  12.002  13.921  0.00  0.00     0.040 A 
HETATM   25  C   UNK N   1      34.955  12.754  12.828  0.00  0.00     0.014 A 
BRANCH  22  26
HETATM   26  O   UNK N   1      37.559  14.493  15.580  0.00  0.00    -0.353 OA
HETATM   27  C   UNK N   1      37.206  15.460  16.491  0.00  0.00     0.210 C 
ENDBRANCH  22  26
BRANCH  23  28
HETATM   28  O   UNK N   1      36.632  11.792  15.904  0.00  0.00    -0.358 OA
HETATM   29  H   UNK N   1      36.086  11.727  16.663  0.00  0.00     0.217 HD
ENDBRANCH  23  28
ENDBRANCH  19  20
ENDBRANCH  16  18
ENDBRANCH   1  16
TORSDOF 10
ENDMDL
