MODEL 1
REMARK VINA RESULT:      -8.3      0.000      0.000
REMARK  5 active torsions:
REMARK  status: ('A' for Active; 'I' for Inactive)
REMARK    1  A    between atoms: C_1  and  C_7 
REMARK    2  A    between atoms: C_7  and  O_8 
REMARK    3  A    between atoms: O_8  and  C_9 
REMARK    4  A    between atoms: N_12  and  C_15 
REMARK    5  A    between atoms: C_17  and  C_26 
REMARK       I    between atoms: C_26  and  N_28 
ROOT
HETATM    1  C   UNK N   1      21.274  14.841   6.504  0.00  0.00     0.093 C 
HETATM    2  C   UNK N   1      21.227  16.135   6.996  0.00  0.00     0.112 C 
HETATM    3  C   UNK N   1      21.805  17.175   6.269  0.00  0.00     0.272 C 
HETATM    4  N   UNK N   1      22.450  16.927   5.050  0.00  0.00    -0.281 N 
HETATM    5  C   UNK N   1      22.617  15.612   4.647  0.00  0.00     0.019 C 
HETATM    6  C   UNK N   1      22.012  14.572   5.354  0.00  0.00     0.063 C 
HETATM    7 Br   UNK N   1      20.278  16.506   8.627  0.00  0.00    -0.042 Br
HETATM    8  O   UNK N   1      21.680  18.310   6.696  0.00  0.00    -0.266 OA
HETATM    9  C   UNK N   1      23.488  15.218   3.498  0.00  0.00     0.069 C 
ENDROOT
BRANCH   4  10
HETATM   10  C   UNK N   1      22.857  18.076   4.227  0.00  0.00     0.049 A 
HETATM   11  C   UNK N   1      24.154  18.608   4.376  0.00  0.00     0.047 A 
HETATM   12  C   UNK N   1      24.530  19.821   3.798  0.00  0.00     0.034 A 
HETATM   13  C   UNK N   1      23.612  20.521   3.017  0.00  0.00     0.017 A 
HETATM   14  C   UNK N   1      22.325  20.027   2.841  0.00  0.00     0.010 A 
HETATM   15  C   UNK N   1      21.923  18.837   3.452  0.00  0.00    -0.035 A 
HETATM   16  C   UNK N   1      20.464  18.538   3.385  0.00  0.00     0.050 C 
BRANCH  12  17
HETATM   17  C   UNK N   1      25.838  20.422   4.133  0.00  0.00     0.251 C 
HETATM   18  O   UNK N   1      26.649  20.650   3.245  0.00  0.00    -0.268 OA
HETATM   19  N   UNK N   1      26.166  20.643   5.429  0.00  0.00    -0.361 N 
HETATM   20  C   UNK N   1      27.466  21.130   5.815  0.00  0.00     0.149 C 
HETATM   21  H   UNK N   1      25.496  20.464   6.129  0.00  0.00     0.162 HD
ENDBRANCH  12  17
ENDBRANCH   4  10
BRANCH   1  22
HETATM   22  O   UNK N   1      20.574  13.882   7.144  0.00  0.00    -0.345 OA
BRANCH  22  23
HETATM   23  C   UNK N   1      20.996  12.579   7.275  0.00  0.00     0.217 C 
BRANCH  23  24
HETATM   24  C   UNK N   1      21.955  12.481   8.403  0.00  0.00     0.005 A 
HETATM   25  C   UNK N   1      21.540  12.773   9.708  0.00  0.00     0.127 A 
HETATM   26  C   UNK N   1      22.447  12.655  10.765  0.00  0.00     0.085 A 
HETATM   27  F   UNK N   1      20.266  13.171   9.955  0.00  0.00    -0.205 F 
HETATM   28  C   UNK N   1      23.762  12.247  10.518  0.00  0.00     0.119 A 
HETATM   29  C   UNK N   1      24.178  11.967   9.215  0.00  0.00     0.043 A 
HETATM   30  F   UNK N   1      24.635  12.119  11.543  0.00  0.00    -0.206 F 
HETATM   31  C   UNK N   1      23.277  12.088   8.159  0.00  0.00     0.015 A 
ENDBRANCH  23  24
ENDBRANCH  22  23
ENDBRANCH   1  22
TORSDOF 5
ENDMDL
MODEL 2
REMARK VINA RESULT:      -7.9      1.539      1.973
REMARK  5 active torsions:
REMARK  status: ('A' for Active; 'I' for Inactive)
REMARK    1  A    between atoms: C_1  and  C_7 
REMARK    2  A    between atoms: C_7  and  O_8 
REMARK    3  A    between atoms: O_8  and  C_9 
REMARK    4  A    between atoms: N_12  and  C_15 
REMARK    5  A    between atoms: C_17  and  C_26 
REMARK       I    between atoms: C_26  and  N_28 
ROOT
HETATM    1  C   UNK N   1      21.457  14.657   6.227  0.00  0.00     0.093 C 
HETATM    2  C   UNK N   1      21.849  14.550   4.903  0.00  0.00     0.112 C 
HETATM    3  C   UNK N   1      22.164  15.698   4.178  0.00  0.00     0.272 C 
HETATM    4  N   UNK N   1      22.072  16.966   4.766  0.00  0.00    -0.281 N 
HETATM    5  C   UNK N   1      21.537  17.066   6.040  0.00  0.00     0.019 C 
HETATM    6  C   UNK N   1      21.252  15.918   6.781  0.00  0.00     0.063 C 
HETATM    7 Br   UNK N   1      22.057  12.814   4.103  0.00  0.00    -0.042 Br
HETATM    8  O   UNK N   1      22.577  15.561   3.039  0.00  0.00    -0.266 OA
HETATM    9  C   UNK N   1      21.173  18.372   6.670  0.00  0.00     0.069 C 
ENDROOT
BRANCH   4  10
HETATM   10  C   UNK N   1      22.611  18.121   4.030  0.00  0.00     0.049 A 
HETATM   11  C   UNK N   1      23.944  18.521   4.251  0.00  0.00     0.047 A 
HETATM   12  C   UNK N   1      24.449  19.727   3.763  0.00  0.00     0.034 A 
HETATM   13  C   UNK N   1      23.626  20.554   2.999  0.00  0.00     0.017 A 
HETATM   14  C   UNK N   1      22.307  20.192   2.754  0.00  0.00     0.010 A 
HETATM   15  C   UNK N   1      21.777  19.009   3.276  0.00  0.00    -0.035 A 
HETATM   16  C   UNK N   1      20.300  18.851   3.146  0.00  0.00     0.050 C 
BRANCH  12  17
HETATM   17  C   UNK N   1      25.792  20.183   4.175  0.00  0.00     0.251 C 
HETATM   18  O   UNK N   1      26.708  20.193   3.363  0.00  0.00    -0.268 OA
HETATM   19  N   UNK N   1      26.025  20.512   5.469  0.00  0.00    -0.361 N 
HETATM   20  C   UNK N   1      27.340  20.864   5.942  0.00  0.00     0.149 C 
HETATM   21  H   UNK N   1      25.273  20.509   6.106  0.00  0.00     0.162 HD
ENDBRANCH  12  17
ENDBRANCH   4  10
BRANCH   1  22
HETATM   22  O   UNK N   1      21.311  13.528   6.951  0.00  0.00    -0.345 OA
BRANCH  22  23
HETATM   23  C   UNK N   1      20.818  13.494   8.234  0.00  0.00     0.217 C 
BRANCH  23  24
HETATM   24  C   UNK N   1      21.884  13.040   9.161  0.00  0.00     0.005 A 
HETATM   25  C   UNK N   1      21.567  12.668  10.473  0.00  0.00     0.127 A 
HETATM   26  C   UNK N   1      22.577  12.220  11.329  0.00  0.00     0.085 A 
HETATM   27  F   UNK N   1      20.288  12.742  10.921  0.00  0.00    -0.205 F 
HETATM   28  C   UNK N   1      23.898  12.143  10.875  0.00  0.00     0.119 A 
HETATM   29  C   UNK N   1      24.215  12.524   9.570  0.00  0.00     0.043 A 
HETATM   30  F   UNK N   1      24.872  11.696  11.699  0.00  0.00    -0.206 F 
HETATM   31  C   UNK N   1      23.211  12.975   8.716  0.00  0.00     0.015 A 
ENDBRANCH  23  24
ENDBRANCH  22  23
ENDBRANCH   1  22
TORSDOF 5
ENDMDL
MODEL 3
REMARK VINA RESULT:      -7.7      5.032      8.106
REMARK  5 active torsions:
REMARK  status: ('A' for Active; 'I' for Inactive)
REMARK    1  A    between atoms: C_1  and  C_7 
REMARK    2  A    between atoms: C_7  and  O_8 
REMARK    3  A    between atoms: O_8  and  C_9 
REMARK    4  A    between atoms: N_12  and  C_15 
REMARK    5  A    between atoms: C_17  and  C_26 
REMARK       I    between atoms: C_26  and  N_28 
ROOT
HETATM    1  C   UNK N   1      28.893  17.486   4.536  0.00  0.00     0.093 C 
HETATM    2  C   UNK N   1      27.972  16.843   3.726  0.00  0.00     0.112 C 
HETATM    3  C   UNK N   1      26.663  17.319   3.651  0.00  0.00     0.272 C 
HETATM    4  N   UNK N   1      26.260  18.433   4.399  0.00  0.00    -0.281 N 
HETATM    5  C   UNK N   1      27.151  18.971   5.313  0.00  0.00     0.019 C 
HETATM    6  C   UNK N   1      28.470  18.520   5.367  0.00  0.00     0.063 C 
HETATM    7 Br   UNK N   1      28.526  15.361   2.633  0.00  0.00    -0.042 Br
HETATM    8  O   UNK N   1      25.900  16.773   2.872  0.00  0.00    -0.266 OA
HETATM    9  C   UNK N   1      26.756  19.999   6.324  0.00  0.00     0.069 C 
ENDROOT
BRANCH   4  10
HETATM   10  C   UNK N   1      24.937  19.017   4.128  0.00  0.00     0.049 A 
HETATM   11  C   UNK N   1      23.780  18.329   4.544  0.00  0.00     0.047 A 
HETATM   12  C   UNK N   1      22.501  18.706   4.130  0.00  0.00     0.034 A 
HETATM   13  C   UNK N   1      22.351  19.820   3.305  0.00  0.00     0.017 A 
HETATM   14  C   UNK N   1      23.467  20.527   2.877  0.00  0.00     0.010 A 
HETATM   15  C   UNK N   1      24.755  20.132   3.247  0.00  0.00    -0.035 A 
HETATM   16  C   UNK N   1      25.871  20.820   2.538  0.00  0.00     0.050 C 
BRANCH  12  17
HETATM   17  C   UNK N   1      21.342  17.848   4.445  0.00  0.00     0.251 C 
HETATM   18  O   UNK N   1      20.382  17.817   3.687  0.00  0.00    -0.268 OA
HETATM   19  N   UNK N   1      21.309  17.161   5.614  0.00  0.00    -0.361 N 
HETATM   20  C   UNK N   1      20.159  16.392   6.015  0.00  0.00     0.149 C 
HETATM   21  H   UNK N   1      22.096  17.188   6.206  0.00  0.00     0.162 HD
ENDBRANCH  12  17
ENDBRANCH   4  10
BRANCH   1  22
HETATM   22  O   UNK N   1      30.186  17.106   4.471  0.00  0.00    -0.345 OA
BRANCH  22  23
HETATM   23  C   UNK N   1      30.763  16.193   5.322  0.00  0.00     0.217 C 
BRANCH  23  24
HETATM   24  C   UNK N   1      31.787  16.872   6.154  0.00  0.00     0.005 A 
HETATM   25  C   UNK N   1      31.459  17.339   7.433  0.00  0.00     0.127 A 
HETATM   26  C   UNK N   1      32.438  17.956   8.216  0.00  0.00     0.085 A 
HETATM   27  F   UNK N   1      30.199  17.199   7.917  0.00  0.00    -0.205 F 
HETATM   28  C   UNK N   1      33.739  18.106   7.723  0.00  0.00     0.119 A 
HETATM   29  C   UNK N   1      34.062  17.650   6.444  0.00  0.00     0.043 A 
HETATM   30  F   UNK N   1      34.689  18.692   8.488  0.00  0.00    -0.206 F 
HETATM   31  C   UNK N   1      33.086  17.038   5.660  0.00  0.00     0.015 A 
ENDBRANCH  23  24
ENDBRANCH  22  23
ENDBRANCH   1  22
TORSDOF 5
ENDMDL
MODEL 4
REMARK VINA RESULT:      -7.6      4.970      7.684
REMARK  5 active torsions:
REMARK  status: ('A' for Active; 'I' for Inactive)
REMARK    1  A    between atoms: C_1  and  C_7 
REMARK    2  A    between atoms: C_7  and  O_8 
REMARK    3  A    between atoms: O_8  and  C_9 
REMARK    4  A    between atoms: N_12  and  C_15 
REMARK    5  A    between atoms: C_17  and  C_26 
REMARK       I    between atoms: C_26  and  N_28 
ROOT
HETATM    1  C   UNK N   1      28.187  17.082   5.993  0.00  0.00     0.093 C 
HETATM    2  C   UNK N   1      27.793  18.328   6.450  0.00  0.00     0.112 C 
HETATM    3  C   UNK N   1      26.725  18.985   5.840  0.00  0.00     0.272 C 
HETATM    4  N   UNK N   1      26.053  18.408   4.755  0.00  0.00    -0.281 N 
HETATM    5  C   UNK N   1      26.552  17.233   4.218  0.00  0.00     0.019 C 
HETATM    6  C   UNK N   1      27.599  16.556   4.845  0.00  0.00     0.063 C 
HETATM    7 Br   UNK N   1      28.653  19.101   7.987  0.00  0.00    -0.042 Br
HETATM    8  O   UNK N   1      26.359  20.047   6.315  0.00  0.00    -0.266 OA
HETATM    9  C   UNK N   1      26.066  16.657   2.927  0.00  0.00     0.069 C 
ENDROOT
BRANCH   4  10
HETATM   10  C   UNK N   1      24.811  19.041   4.284  0.00  0.00     0.049 A 
HETATM   11  C   UNK N   1      23.574  18.424   4.558  0.00  0.00     0.047 A 
HETATM   12  C   UNK N   1      22.385  18.844   3.958  0.00  0.00     0.034 A 
HETATM   13  C   UNK N   1      22.406  19.929   3.084  0.00  0.00     0.017 A 
HETATM   14  C   UNK N   1      23.605  20.568   2.793  0.00  0.00     0.010 A 
HETATM   15  C   UNK N   1      24.808  20.129   3.351  0.00  0.00    -0.035 A 
HETATM   16  C   UNK N   1      26.044  20.737   2.782  0.00  0.00     0.050 C 
BRANCH  12  17
HETATM   17  C   UNK N   1      21.151  18.052   4.137  0.00  0.00     0.251 C 
HETATM   18  O   UNK N   1      20.163  18.302   3.459  0.00  0.00    -0.268 OA
HETATM   19  N   UNK N   1      21.090  17.107   5.107  0.00  0.00    -0.361 N 
HETATM   20  C   UNK N   1      19.879  16.380   5.390  0.00  0.00     0.149 C 
HETATM   21  H   UNK N   1      21.899  16.912   5.635  0.00  0.00     0.162 HD
ENDBRANCH  12  17
ENDBRANCH   4  10
BRANCH   1  22
HETATM   22  O   UNK N   1      29.114  16.399   6.697  0.00  0.00    -0.345 OA
BRANCH  22  23
HETATM   23  C   UNK N   1      30.243  15.842   6.144  0.00  0.00     0.217 C 
BRANCH  23  24
HETATM   24  C   UNK N   1      31.440  16.582   6.616  0.00  0.00     0.005 A 
HETATM   25  C   UNK N   1      31.619  16.835   7.981  0.00  0.00     0.127 A 
HETATM   26  C   UNK N   1      32.763  17.513   8.415  0.00  0.00     0.085 A 
HETATM   27  F   UNK N   1      30.693  16.430   8.886  0.00  0.00    -0.205 F 
HETATM   28  C   UNK N   1      33.722  17.935   7.488  0.00  0.00     0.119 A 
HETATM   29  C   UNK N   1      33.536  17.692   6.126  0.00  0.00     0.043 A 
HETATM   30  F   UNK N   1      34.834  18.578   7.910  0.00  0.00    -0.206 F 
HETATM   31  C   UNK N   1      32.396  17.020   5.691  0.00  0.00     0.015 A 
ENDBRANCH  23  24
ENDBRANCH  22  23
ENDBRANCH   1  22
TORSDOF 5
ENDMDL
MODEL 5
REMARK VINA RESULT:      -7.5     10.366     13.215
REMARK  5 active torsions:
REMARK  status: ('A' for Active; 'I' for Inactive)
REMARK    1  A    between atoms: C_1  and  C_7 
REMARK    2  A    between atoms: C_7  and  O_8 
REMARK    3  A    between atoms: O_8  and  C_9 
REMARK    4  A    between atoms: N_12  and  C_15 
REMARK    5  A    between atoms: C_17  and  C_26 
REMARK       I    between atoms: C_26  and  N_28 
ROOT
HETATM    1  C   UNK N   1      32.678  15.651   7.443  0.00  0.00     0.093 C 
HETATM    2  C   UNK N   1      33.508  16.406   8.255  0.00  0.00     0.112 C 
HETATM    3  C   UNK N   1      34.318  15.774   9.198  0.00  0.00     0.272 C 
HETATM    4  N   UNK N   1      34.291  14.382   9.349  0.00  0.00    -0.281 N 
HETATM    5  C   UNK N   1      33.350  13.658   8.635  0.00  0.00     0.019 C 
HETATM    6  C   UNK N   1      32.562  14.281   7.667  0.00  0.00     0.063 C 
HETATM    7 Br   UNK N   1      33.616  18.310   8.008  0.00  0.00    -0.042 Br
HETATM    8  O   UNK N   1      35.089  16.463   9.843  0.00  0.00    -0.266 OA
HETATM    9  C   UNK N   1      33.072  12.211   8.891  0.00  0.00     0.069 C 
ENDROOT
BRANCH   4  10
HETATM   10  C   UNK N   1      35.308  13.751  10.206  0.00  0.00     0.049 A 
HETATM   11  C   UNK N   1      35.188  13.848  11.607  0.00  0.00     0.047 A 
HETATM   12  C   UNK N   1      36.219  13.472  12.469  0.00  0.00     0.034 A 
HETATM   13  C   UNK N   1      37.397  12.950  11.938  0.00  0.00     0.017 A 
HETATM   14  C   UNK N   1      37.552  12.834  10.562  0.00  0.00     0.010 A 
HETATM   15  C   UNK N   1      36.545  13.249   9.688  0.00  0.00    -0.035 A 
HETATM   16  C   UNK N   1      36.921  13.295   8.246  0.00  0.00     0.050 C 
BRANCH  12  17
HETATM   17  C   UNK N   1      36.114  13.762  13.913  0.00  0.00     0.251 C 
HETATM   18  O   UNK N   1      35.098  13.456  14.524  0.00  0.00    -0.268 OA
HETATM   19  N   UNK N   1      37.107  14.441  14.539  0.00  0.00    -0.361 N 
HETATM   20  C   UNK N   1      37.007  14.838  15.921  0.00  0.00     0.149 C 
HETATM   21  H   UNK N   1      37.921  14.669  14.034  0.00  0.00     0.162 HD
ENDBRANCH  12  17
ENDBRANCH   4  10
BRANCH   1  22
HETATM   22  O   UNK N   1      32.025  16.267   6.436  0.00  0.00    -0.345 OA
BRANCH  22  23
HETATM   23  C   UNK N   1      30.742  15.959   6.048  0.00  0.00     0.217 C 
BRANCH  23  24
HETATM   24  C   UNK N   1      29.835  17.076   6.411  0.00  0.00     0.005 A 
HETATM   25  C   UNK N   1      29.105  17.743   5.419  0.00  0.00     0.127 A 
HETATM   26  C   UNK N   1      28.237  18.778   5.777  0.00  0.00     0.085 A 
HETATM   27  F   UNK N   1      29.236  17.394   4.115  0.00  0.00    -0.205 F 
HETATM   28  C   UNK N   1      28.098  19.145   7.120  0.00  0.00     0.119 A 
HETATM   29  C   UNK N   1      28.834  18.487   8.107  0.00  0.00     0.043 A 
HETATM   30  F   UNK N   1      27.247  20.137   7.467  0.00  0.00    -0.206 F 
HETATM   31  C   UNK N   1      29.704  17.457   7.753  0.00  0.00     0.015 A 
ENDBRANCH  23  24
ENDBRANCH  22  23
ENDBRANCH   1  22
TORSDOF 5
ENDMDL
MODEL 6
REMARK VINA RESULT:      -7.5      8.318     11.358
REMARK  5 active torsions:
REMARK  status: ('A' for Active; 'I' for Inactive)
REMARK    1  A    between atoms: C_1  and  C_7 
REMARK    2  A    between atoms: C_7  and  O_8 
REMARK    3  A    between atoms: O_8  and  C_9 
REMARK    4  A    between atoms: N_12  and  C_15 
REMARK    5  A    between atoms: C_17  and  C_26 
REMARK       I    between atoms: C_26  and  N_28 
ROOT
HETATM    1  C   UNK N   1      29.692  16.604   6.443  0.00  0.00     0.093 C 
HETATM    2  C   UNK N   1      30.074  15.352   5.993  0.00  0.00     0.112 C 
HETATM    3  C   UNK N   1      31.314  14.830   6.361  0.00  0.00     0.272 C 
HETATM    4  N   UNK N   1      32.190  15.566   7.170  0.00  0.00    -0.281 N 
HETATM    5  C   UNK N   1      31.856  16.872   7.488  0.00  0.00     0.019 C 
HETATM    6  C   UNK N   1      30.603  17.385   7.150  0.00  0.00     0.063 C 
HETATM    7 Br   UNK N   1      28.853  14.295   4.948  0.00  0.00    -0.042 Br
HETATM    8  O   UNK N   1      31.585  13.696   6.007  0.00  0.00    -0.266 OA
HETATM    9  C   UNK N   1      32.812  17.821   8.137  0.00  0.00     0.069 C 
ENDROOT
BRANCH   4  10
HETATM   10  C   UNK N   1      33.388  14.893   7.697  0.00  0.00     0.049 A 
HETATM   11  C   UNK N   1      33.397  14.446   9.034  0.00  0.00     0.047 A 
HETATM   12  C   UNK N   1      34.563  14.006   9.662  0.00  0.00     0.034 A 
HETATM   13  C   UNK N   1      35.756  13.969   8.942  0.00  0.00     0.017 A 
HETATM   14  C   UNK N   1      35.787  14.396   7.620  0.00  0.00     0.010 A 
HETATM   15  C   UNK N   1      34.636  14.882   6.994  0.00  0.00    -0.035 A 
HETATM   16  C   UNK N   1      34.847  15.527   5.667  0.00  0.00     0.050 C 
BRANCH  12  17
HETATM   17  C   UNK N   1      34.556  13.722  11.111  0.00  0.00     0.251 C 
HETATM   18  O   UNK N   1      34.470  14.643  11.913  0.00  0.00    -0.268 OA
HETATM   19  N   UNK N   1      34.727  12.451  11.551  0.00  0.00    -0.361 N 
HETATM   20  C   UNK N   1      34.830  12.135  12.953  0.00  0.00     0.149 C 
HETATM   21  H   UNK N   1      34.783  11.721  10.891  0.00  0.00     0.162 HD
ENDBRANCH  12  17
ENDBRANCH   4  10
BRANCH   1  22
HETATM   22  O   UNK N   1      28.430  17.018   6.206  0.00  0.00    -0.345 OA
BRANCH  22  23
HETATM   23  C   UNK N   1      27.951  18.262   6.546  0.00  0.00     0.217 C 
BRANCH  23  24
HETATM   24  C   UNK N   1      27.183  18.823   5.408  0.00  0.00     0.005 A 
HETATM   25  C   UNK N   1      27.232  20.196   5.133  0.00  0.00     0.127 A 
HETATM   26  C   UNK N   1      26.522  20.709   4.044  0.00  0.00     0.085 A 
HETATM   27  F   UNK N   1      27.961  21.030   5.916  0.00  0.00    -0.205 F 
HETATM   28  C   UNK N   1      25.767  19.854   3.233  0.00  0.00     0.119 A 
HETATM   29  C   UNK N   1      25.710  18.488   3.515  0.00  0.00     0.043 A 
HETATM   30  F   UNK N   1      25.092  20.349   2.171  0.00  0.00    -0.206 F 
HETATM   31  C   UNK N   1      26.413  17.975   4.603  0.00  0.00     0.015 A 
ENDBRANCH  23  24
ENDBRANCH  22  23
ENDBRANCH   1  22
TORSDOF 5
ENDMDL
MODEL 7
REMARK VINA RESULT:      -7.5     10.679     12.902
REMARK  5 active torsions:
REMARK  status: ('A' for Active; 'I' for Inactive)
REMARK    1  A    between atoms: C_1  and  C_7 
REMARK    2  A    between atoms: C_7  and  O_8 
REMARK    3  A    between atoms: O_8  and  C_9 
REMARK    4  A    between atoms: N_12  and  C_15 
REMARK    5  A    between atoms: C_17  and  C_26 
REMARK       I    between atoms: C_26  and  N_28 
ROOT
HETATM    1  C   UNK N   1      35.406  13.122  10.788  0.00  0.00     0.093 C 
HETATM    2  C   UNK N   1      34.353  12.683  10.003  0.00  0.00     0.112 C 
HETATM    3  C   UNK N   1      33.664  13.588   9.197  0.00  0.00     0.272 C 
HETATM    4  N   UNK N   1      34.012  14.945   9.182  0.00  0.00    -0.281 N 
HETATM    5  C   UNK N   1      34.966  15.392  10.082  0.00  0.00     0.019 C 
HETATM    6  C   UNK N   1      35.681  14.486  10.865  0.00  0.00     0.063 C 
HETATM    7 Br   UNK N   1      33.913  10.812   9.950  0.00  0.00    -0.042 Br
HETATM    8  O   UNK N   1      32.792  13.153   8.464  0.00  0.00    -0.266 OA
HETATM    9  C   UNK N   1      35.244  16.842  10.319  0.00  0.00     0.069 C 
ENDROOT
BRANCH   4  10
HETATM   10  C   UNK N   1      33.396  15.815   8.167  0.00  0.00     0.049 A 
HETATM   11  C   UNK N   1      32.106  16.335   8.394  0.00  0.00     0.047 A 
HETATM   12  C   UNK N   1      31.377  16.976   7.391  0.00  0.00     0.034 A 
HETATM   13  C   UNK N   1      31.948  17.143   6.131  0.00  0.00     0.017 A 
HETATM   14  C   UNK N   1      33.220  16.649   5.869  0.00  0.00     0.010 A 
HETATM   15  C   UNK N   1      33.941  15.965   6.851  0.00  0.00    -0.035 A 
HETATM   16  C   UNK N   1      35.180  15.282   6.383  0.00  0.00     0.050 C 
BRANCH  12  17
HETATM   17  C   UNK N   1      29.965  17.341   7.626  0.00  0.00     0.251 C 
HETATM   18  O   UNK N   1      29.249  17.648   6.682  0.00  0.00    -0.268 OA
HETATM   19  N   UNK N   1      29.489  17.413   8.894  0.00  0.00    -0.361 N 
HETATM   20  C   UNK N   1      28.151  17.862   9.182  0.00  0.00     0.149 C 
HETATM   21  H   UNK N   1      30.076  17.151   9.640  0.00  0.00     0.162 HD
ENDBRANCH  12  17
ENDBRANCH   4  10
BRANCH   1  22
HETATM   22  O   UNK N   1      36.155  12.206  11.435  0.00  0.00    -0.345 OA
BRANCH  22  23
HETATM   23  C   UNK N   1      37.184  12.519  12.292  0.00  0.00     0.217 C 
BRANCH  23  24
HETATM   24  C   UNK N   1      36.712  12.402  13.694  0.00  0.00     0.005 A 
HETATM   25  C   UNK N   1      36.503  13.553  14.465  0.00  0.00     0.127 A 
HETATM   26  C   UNK N   1      36.036  13.431  15.777  0.00  0.00     0.085 A 
HETATM   27  F   UNK N   1      36.751  14.783  13.950  0.00  0.00    -0.205 F 
HETATM   28  C   UNK N   1      35.779  12.165  16.315  0.00  0.00     0.119 A 
HETATM   29  C   UNK N   1      35.999  11.018  15.549  0.00  0.00     0.043 A 
HETATM   30  F   UNK N   1      35.314  12.049  17.580  0.00  0.00    -0.206 F 
HETATM   31  C   UNK N   1      36.468  11.137  14.243  0.00  0.00     0.015 A 
ENDBRANCH  23  24
ENDBRANCH  22  23
ENDBRANCH   1  22
TORSDOF 5
ENDMDL
MODEL 8
REMARK VINA RESULT:      -7.4      4.906      7.619
REMARK  5 active torsions:
REMARK  status: ('A' for Active; 'I' for Inactive)
REMARK    1  A    between atoms: C_1  and  C_7 
REMARK    2  A    between atoms: C_7  and  O_8 
REMARK    3  A    between atoms: O_8  and  C_9 
REMARK    4  A    between atoms: N_12  and  C_15 
REMARK    5  A    between atoms: C_17  and  C_26 
REMARK       I    between atoms: C_26  and  N_28 
ROOT
HETATM    1  C   UNK N   1      28.068  17.510   4.683  0.00  0.00     0.093 C 
HETATM    2  C   UNK N   1      27.333  18.547   5.232  0.00  0.00     0.112 C 
HETATM    3  C   UNK N   1      25.952  18.592   5.049  0.00  0.00     0.272 C 
HETATM    4  N   UNK N   1      25.295  17.607   4.299  0.00  0.00    -0.281 N 
HETATM    5  C   UNK N   1      26.060  16.662   3.635  0.00  0.00     0.019 C 
HETATM    6  C   UNK N   1      27.438  16.594   3.843  0.00  0.00     0.063 C 
HETATM    7 Br   UNK N   1      28.206  19.864   6.329  0.00  0.00    -0.042 Br
HETATM    8  O   UNK N   1      25.329  19.478   5.608  0.00  0.00    -0.266 OA
HETATM    9  C   UNK N   1      25.491  15.718   2.626  0.00  0.00     0.069 C 
ENDROOT
BRANCH   4  10
HETATM   10  C   UNK N   1      23.824  17.584   4.310  0.00  0.00     0.049 A 
HETATM   11  C   UNK N   1      23.112  18.581   3.613  0.00  0.00     0.047 A 
HETATM   12  C   UNK N   1      21.735  18.752   3.761  0.00  0.00     0.034 A 
HETATM   13  C   UNK N   1      21.025  17.892   4.597  0.00  0.00     0.017 A 
HETATM   14  C   UNK N   1      21.689  16.892   5.297  0.00  0.00     0.010 A 
HETATM   15  C   UNK N   1      23.074  16.741   5.192  0.00  0.00    -0.035 A 
HETATM   16  C   UNK N   1      23.695  15.798   6.166  0.00  0.00     0.050 C 
BRANCH  12  17
HETATM   17  C   UNK N   1      21.068  19.921   3.152  0.00  0.00     0.251 C 
HETATM   18  O   UNK N   1      20.320  20.617   3.827  0.00  0.00    -0.268 OA
HETATM   19  N   UNK N   1      21.222  20.172   1.829  0.00  0.00    -0.361 N 
HETATM   20  C   UNK N   1      20.513  21.237   1.167  0.00  0.00     0.149 C 
HETATM   21  H   UNK N   1      21.837  19.609   1.304  0.00  0.00     0.162 HD
ENDBRANCH  12  17
ENDBRANCH   4  10
BRANCH   1  22
HETATM   22  O   UNK N   1      29.373  17.402   5.005  0.00  0.00    -0.345 OA
BRANCH  22  23
HETATM   23  C   UNK N   1      29.864  16.529   5.948  0.00  0.00     0.217 C 
BRANCH  23  24
HETATM   24  C   UNK N   1      31.159  17.038   6.465  0.00  0.00     0.005 A 
HETATM   25  C   UNK N   1      31.280  17.422   7.806  0.00  0.00     0.127 A 
HETATM   26  C   UNK N   1      32.511  17.877   8.287  0.00  0.00     0.085 A 
HETATM   27  F   UNK N   1      30.213  17.358   8.641  0.00  0.00    -0.205 F 
HETATM   28  C   UNK N   1      33.615  17.948   7.430  0.00  0.00     0.119 A 
HETATM   29  C   UNK N   1      33.491  17.575   6.091  0.00  0.00     0.043 A 
HETATM   30  F   UNK N   1      34.810  18.376   7.900  0.00  0.00    -0.206 F 
HETATM   31  C   UNK N   1      32.264  17.125   5.609  0.00  0.00     0.015 A 
ENDBRANCH  23  24
ENDBRANCH  22  23
ENDBRANCH   1  22
TORSDOF 5
ENDMDL
MODEL 9
REMARK VINA RESULT:      -7.4      5.134      8.265
REMARK  5 active torsions:
REMARK  status: ('A' for Active; 'I' for Inactive)
REMARK    1  A    between atoms: C_1  and  C_7 
REMARK    2  A    between atoms: C_7  and  O_8 
REMARK    3  A    between atoms: O_8  and  C_9 
REMARK    4  A    between atoms: N_12  and  C_15 
REMARK    5  A    between atoms: C_17  and  C_26 
REMARK       I    between atoms: C_26  and  N_28 
ROOT
HETATM    1  C   UNK N   1      25.551  17.337   4.716  0.00  0.00     0.093 C 
HETATM    2  C   UNK N   1      26.277  16.215   5.078  0.00  0.00     0.112 C 
HETATM    3  C   UNK N   1      27.553  16.359   5.620  0.00  0.00     0.272 C 
HETATM    4  N   UNK N   1      28.123  17.628   5.787  0.00  0.00    -0.281 N 
HETATM    5  C   UNK N   1      27.446  18.727   5.284  0.00  0.00     0.019 C 
HETATM    6  C   UNK N   1      26.155  18.591   4.772  0.00  0.00     0.063 C 
HETATM    7 Br   UNK N   1      25.481  14.470   4.929  0.00  0.00    -0.042 Br
HETATM    8  O   UNK N   1      28.133  15.354   5.995  0.00  0.00    -0.266 OA
HETATM    9  C   UNK N   1      28.059  20.088   5.193  0.00  0.00     0.069 C 
ENDROOT
BRANCH   4  10
HETATM   10  C   UNK N   1      29.377  17.738   6.548  0.00  0.00     0.049 A 
HETATM   11  C   UNK N   1      30.601  17.458   5.908  0.00  0.00     0.047 A 
HETATM   12  C   UNK N   1      31.797  17.325   6.616  0.00  0.00     0.034 A 
HETATM   13  C   UNK N   1      31.798  17.507   7.998  0.00  0.00     0.017 A 
HETATM   14  C   UNK N   1      30.612  17.790   8.665  0.00  0.00     0.010 A 
HETATM   15  C   UNK N   1      29.402  17.880   7.974  0.00  0.00    -0.035 A 
HETATM   16  C   UNK N   1      28.178  17.949   8.822  0.00  0.00     0.050 C 
BRANCH  12  17
HETATM   17  C   UNK N   1      33.013  16.853   5.924  0.00  0.00     0.251 C 
HETATM   18  O   UNK N   1      34.006  17.568   5.880  0.00  0.00    -0.268 OA
HETATM   19  N   UNK N   1      33.000  15.666   5.269  0.00  0.00    -0.361 N 
HETATM   20  C   UNK N   1      34.125  15.209   4.494  0.00  0.00     0.149 C 
HETATM   21  H   UNK N   1      32.196  15.099   5.324  0.00  0.00     0.162 HD
ENDBRANCH  12  17
ENDBRANCH   4  10
BRANCH   1  22
HETATM   22  O   UNK N   1      24.263  17.181   4.345  0.00  0.00    -0.345 OA
BRANCH  22  23
HETATM   23  C   UNK N   1      23.201  17.781   4.980  0.00  0.00     0.217 C 
BRANCH  23  24
HETATM   24  C   UNK N   1      22.409  18.556   3.992  0.00  0.00     0.005 A 
HETATM   25  C   UNK N   1      21.130  18.124   3.620  0.00  0.00     0.127 A 
HETATM   26  C   UNK N   1      20.385  18.875   2.706  0.00  0.00     0.085 A 
HETATM   27  F   UNK N   1      20.610  16.983   4.136  0.00  0.00    -0.205 F 
HETATM   28  C   UNK N   1      20.917  20.053   2.168  0.00  0.00     0.119 A 
HETATM   29  C   UNK N   1      22.196  20.476   2.532  0.00  0.00     0.043 A 
HETATM   30  F   UNK N   1      20.189  20.787   1.295  0.00  0.00    -0.206 F 
HETATM   31  C   UNK N   1      22.942  19.727   3.439  0.00  0.00     0.015 A 
ENDBRANCH  23  24
ENDBRANCH  22  23
ENDBRANCH   1  22
TORSDOF 5
ENDMDL
