MODEL 1
REMARK VINA RESULT:      -4.5      0.000      0.000
REMARK  4 active torsions:
REMARK  status: ('A' for Active; 'I' for Inactive)
REMARK    1  A    between atoms: N_1  and  C_2 
REMARK    2  A    between atoms: C_2  and  C_3 
REMARK    3  A    between atoms: C_3  and  C_4 
REMARK    4  A    between atoms: C_7  and  O_8 
ROOT
HETATM    1  C   UNK N   1      35.704  12.481  16.375  0.00  0.00    -0.057 A 
HETATM    2  C   UNK N   1      35.510  13.765  16.895  0.00  0.00     0.010 A 
HETATM    3  C   UNK N   1      35.250  13.940  18.259  0.00  0.00     0.037 A 
HETATM    4  C   UNK N   1      35.185  12.831  19.106  0.00  0.00     0.065 A 
HETATM    5  C   UNK N   1      35.378  11.547  18.594  0.00  0.00     0.037 A 
HETATM    6  C   UNK N   1      35.637  11.372  17.234  0.00  0.00     0.010 A 
ENDROOT
BRANCH   1   7
HETATM    7  C   UNK N   1      35.981  12.323  14.907  0.00  0.00     0.057 C 
BRANCH   7   8
HETATM    8  C   UNK N   1      35.668  13.576  14.100  0.00  0.00     0.115 C 
BRANCH   8   9
HETATM    9  N   UNK N   1      36.835  13.978  13.340  0.00  0.00    -0.430 N 
HETATM   10  H   UNK N   1      37.751  14.005  13.788  0.00  0.00     0.149 HD
HETATM   11  H   UNK N   1      36.742  14.233  12.357  0.00  0.00     0.149 HD
ENDBRANCH   8   9
ENDBRANCH   7   8
ENDBRANCH   1   7
BRANCH   4  12
HETATM   12  O   UNK N   1      34.936  12.997  20.415  0.00  0.00    -0.361 OA
HETATM   13  H   UNK N   1      34.627  13.822  20.733  0.00  0.00     0.217 HD
ENDBRANCH   4  12
TORSDOF 4
ENDMDL
MODEL 2
REMARK VINA RESULT:      -4.5     11.191     12.079
REMARK  4 active torsions:
REMARK  status: ('A' for Active; 'I' for Inactive)
REMARK    1  A    between atoms: N_1  and  C_2 
REMARK    2  A    between atoms: C_2  and  C_3 
REMARK    3  A    between atoms: C_3  and  C_4 
REMARK    4  A    between atoms: C_7  and  O_8 
ROOT
HETATM    1  C   UNK N   1      30.510  17.351   7.409  0.00  0.00    -0.057 A 
HETATM    2  C   UNK N   1      31.326  17.806   8.451  0.00  0.00     0.010 A 
HETATM    3  C   UNK N   1      32.700  17.982   8.244  0.00  0.00     0.037 A 
HETATM    4  C   UNK N   1      33.260  17.703   6.994  0.00  0.00     0.065 A 
HETATM    5  C   UNK N   1      32.452  17.249   5.950  0.00  0.00     0.037 A 
HETATM    6  C   UNK N   1      31.082  17.073   6.156  0.00  0.00     0.010 A 
ENDROOT
BRANCH   1   7
HETATM    7  C   UNK N   1      29.040  17.171   7.659  0.00  0.00     0.057 C 
BRANCH   7   8
HETATM    8  C   UNK N   1      28.625  17.539   9.078  0.00  0.00     0.115 C 
BRANCH   8   9
HETATM    9  N   UNK N   1      27.624  18.587   9.043  0.00  0.00    -0.430 N 
HETATM   10  H   UNK N   1      27.785  19.462   9.542  0.00  0.00     0.149 HD
HETATM   11  H   UNK N   1      26.759  18.450   8.521  0.00  0.00     0.149 HD
ENDBRANCH   8   9
ENDBRANCH   7   8
ENDBRANCH   1   7
BRANCH   4  12
HETATM   12  O   UNK N   1      34.577  17.871   6.794  0.00  0.00    -0.361 OA
HETATM   13  H   UNK N   1      35.171  17.820   7.516  0.00  0.00     0.217 HD
ENDBRANCH   4  12
TORSDOF 4
ENDMDL
MODEL 3
REMARK VINA RESULT:      -4.5     26.528     27.596
REMARK  4 active torsions:
REMARK  status: ('A' for Active; 'I' for Inactive)
REMARK    1  A    between atoms: N_1  and  C_2 
REMARK    2  A    between atoms: C_2  and  C_3 
REMARK    3  A    between atoms: C_3  and  C_4 
REMARK    4  A    between atoms: C_7  and  O_8 
ROOT
HETATM    1  C   UNK N   1      25.854  25.122  -5.241  0.00  0.00    -0.057 A 
HETATM    2  C   UNK N   1      26.435  25.299  -3.980  0.00  0.00     0.010 A 
HETATM    3  C   UNK N   1      26.336  26.533  -3.327  0.00  0.00     0.037 A 
HETATM    4  C   UNK N   1      25.654  27.592  -3.932  0.00  0.00     0.065 A 
HETATM    5  C   UNK N   1      25.071  27.422  -5.190  0.00  0.00     0.037 A 
HETATM    6  C   UNK N   1      25.171  26.192  -5.842  0.00  0.00     0.010 A 
ENDROOT
BRANCH   1   7
HETATM    7  C   UNK N   1      25.976  23.787  -5.919  0.00  0.00     0.057 C 
BRANCH   7   8
HETATM    8  C   UNK N   1      25.987  23.887  -7.439  0.00  0.00     0.115 C 
BRANCH   8   9
HETATM    9  N   UNK N   1      24.871  23.146  -7.991  0.00  0.00    -0.430 N 
HETATM   10  H   UNK N   1      25.037  22.406  -8.672  0.00  0.00     0.149 HD
HETATM   11  H   UNK N   1      23.918  23.364  -7.698  0.00  0.00     0.149 HD
ENDBRANCH   8   9
ENDBRANCH   7   8
ENDBRANCH   1   7
BRANCH   4  12
HETATM   12  O   UNK N   1      25.558  28.776  -3.307  0.00  0.00    -0.361 OA
HETATM   13  H   UNK N   1      26.044  28.933  -2.521  0.00  0.00     0.217 HD
ENDBRANCH   4  12
TORSDOF 4
ENDMDL
MODEL 4
REMARK VINA RESULT:      -4.4     10.340     11.400
REMARK  4 active torsions:
REMARK  status: ('A' for Active; 'I' for Inactive)
REMARK    1  A    between atoms: N_1  and  C_2 
REMARK    2  A    between atoms: C_2  and  C_3 
REMARK    3  A    between atoms: C_3  and  C_4 
REMARK    4  A    between atoms: C_7  and  O_8 
ROOT
HETATM    1  C   UNK N   1      31.216  17.649   7.895  0.00  0.00    -0.057 A 
HETATM    2  C   UNK N   1      30.136  17.092   7.201  0.00  0.00     0.010 A 
HETATM    3  C   UNK N   1      28.830  17.270   7.672  0.00  0.00     0.037 A 
HETATM    4  C   UNK N   1      28.601  18.006   8.838  0.00  0.00     0.065 A 
HETATM    5  C   UNK N   1      29.674  18.565   9.535  0.00  0.00     0.037 A 
HETATM    6  C   UNK N   1      30.977  18.388   9.066  0.00  0.00     0.010 A 
ENDROOT
BRANCH   1   7
HETATM    7  C   UNK N   1      32.607  17.443   7.367  0.00  0.00     0.057 C 
BRANCH   7   8
HETATM    8  C   UNK N   1      33.668  17.441   8.460  0.00  0.00     0.115 C 
BRANCH   8   9
HETATM    9  N   UNK N   1      34.503  18.620   8.338  0.00  0.00    -0.430 N 
HETATM   10  H   UNK N   1      35.200  18.827   9.054  0.00  0.00     0.149 HD
HETATM   11  H   UNK N   1      34.395  19.242   7.537  0.00  0.00     0.149 HD
ENDBRANCH   8   9
ENDBRANCH   7   8
ENDBRANCH   1   7
BRANCH   4  12
HETATM   12  O   UNK N   1      27.349  18.178   9.291  0.00  0.00    -0.361 OA
HETATM   13  H   UNK N   1      26.636  18.244   8.686  0.00  0.00     0.217 HD
ENDBRANCH   4  12
TORSDOF 4
ENDMDL
MODEL 5
REMARK VINA RESULT:      -4.1     10.518     12.592
REMARK  4 active torsions:
REMARK  status: ('A' for Active; 'I' for Inactive)
REMARK    1  A    between atoms: N_1  and  C_2 
REMARK    2  A    between atoms: C_2  and  C_3 
REMARK    3  A    between atoms: C_3  and  C_4 
REMARK    4  A    between atoms: C_7  and  O_8 
ROOT
HETATM    1  C   UNK N   1      32.514  17.348   7.022  0.00  0.00    -0.057 A 
HETATM    2  C   UNK N   1      33.516  17.508   6.059  0.00  0.00     0.010 A 
HETATM    3  C   UNK N   1      33.191  17.514   4.698  0.00  0.00     0.037 A 
HETATM    4  C   UNK N   1      31.861  17.359   4.296  0.00  0.00     0.065 A 
HETATM    5  C   UNK N   1      30.855  17.199   5.251  0.00  0.00     0.037 A 
HETATM    6  C   UNK N   1      31.180  17.193   6.609  0.00  0.00     0.010 A 
ENDROOT
BRANCH   1   7
HETATM    7  C   UNK N   1      32.892  17.346   8.476  0.00  0.00     0.057 C 
BRANCH   7   8
HETATM    8  C   UNK N   1      34.397  17.276   8.703  0.00  0.00     0.115 C 
BRANCH   8   9
HETATM    9  N   UNK N   1      34.677  17.181  10.121  0.00  0.00    -0.430 N 
HETATM   10  H   UNK N   1      33.920  17.277  10.799  0.00  0.00     0.149 HD
HETATM   11  H   UNK N   1      35.631  17.017  10.444  0.00  0.00     0.149 HD
ENDBRANCH   8   9
ENDBRANCH   7   8
ENDBRANCH   1   7
BRANCH   4  12
HETATM   12  O   UNK N   1      31.547  17.365   2.991  0.00  0.00    -0.361 OA
HETATM   13  H   UNK N   1      31.035  18.064   2.634  0.00  0.00     0.217 HD
ENDBRANCH   4  12
TORSDOF 4
ENDMDL
MODEL 6
REMARK VINA RESULT:      -4.1      1.449      2.182
REMARK  4 active torsions:
REMARK  status: ('A' for Active; 'I' for Inactive)
REMARK    1  A    between atoms: N_1  and  C_2 
REMARK    2  A    between atoms: C_2  and  C_3 
REMARK    3  A    between atoms: C_3  and  C_4 
REMARK    4  A    between atoms: C_7  and  O_8 
ROOT
HETATM    1  C   UNK N   1      35.225  12.425  16.910  0.00  0.00    -0.057 A 
HETATM    2  C   UNK N   1      35.564  11.100  17.203  0.00  0.00     0.010 A 
HETATM    3  C   UNK N   1      35.741  10.695  18.531  0.00  0.00     0.037 A 
HETATM    4  C   UNK N   1      35.578  11.616  19.570  0.00  0.00     0.065 A 
HETATM    5  C   UNK N   1      35.239  12.940  19.285  0.00  0.00     0.037 A 
HETATM    6  C   UNK N   1      35.063  13.344  17.960  0.00  0.00     0.010 A 
ENDROOT
BRANCH   1   7
HETATM    7  C   UNK N   1      35.041  12.832  15.475  0.00  0.00     0.057 C 
BRANCH   7   8
HETATM    8  C   UNK N   1      34.311  11.784  14.645  0.00  0.00     0.115 C 
BRANCH   8   9
HETATM    9  N   UNK N   1      34.470  12.075  13.234  0.00  0.00    -0.430 N 
HETATM   10  H   UNK N   1      34.789  11.345  12.596  0.00  0.00     0.149 HD
HETATM   11  H   UNK N   1      34.264  13.008  12.878  0.00  0.00     0.149 HD
ENDBRANCH   8   9
ENDBRANCH   7   8
ENDBRANCH   1   7
BRANCH   4  12
HETATM   12  O   UNK N   1      35.747  11.230  20.845  0.00  0.00    -0.361 OA
HETATM   13  H   UNK N   1      36.583  11.324  21.256  0.00  0.00     0.217 HD
ENDBRANCH   4  12
TORSDOF 4
ENDMDL
MODEL 7
REMARK VINA RESULT:      -3.9     10.721     12.201
REMARK  4 active torsions:
REMARK  status: ('A' for Active; 'I' for Inactive)
REMARK    1  A    between atoms: N_1  and  C_2 
REMARK    2  A    between atoms: C_2  and  C_3 
REMARK    3  A    between atoms: C_3  and  C_4 
REMARK    4  A    between atoms: C_7  and  O_8 
ROOT
HETATM    1  C   UNK N   1      32.371  17.350   5.602  0.00  0.00    -0.057 A 
HETATM    2  C   UNK N   1      31.443  17.237   6.643  0.00  0.00     0.010 A 
HETATM    3  C   UNK N   1      31.876  17.237   7.975  0.00  0.00     0.037 A 
HETATM    4  C   UNK N   1      33.238  17.350   8.267  0.00  0.00     0.065 A 
HETATM    5  C   UNK N   1      34.169  17.463   7.233  0.00  0.00     0.037 A 
HETATM    6  C   UNK N   1      33.738  17.462   5.906  0.00  0.00     0.010 A 
ENDROOT
BRANCH   1   7
HETATM    7  C   UNK N   1      31.879  17.347   4.183  0.00  0.00     0.057 C 
BRANCH   7   8
HETATM    8  C   UNK N   1      30.618  16.514   3.988  0.00  0.00     0.115 C 
BRANCH   8   9
HETATM    9  N   UNK N   1      30.033  16.801   2.694  0.00  0.00    -0.430 N 
HETATM   10  H   UNK N   1      30.295  17.650   2.192  0.00  0.00     0.149 HD
HETATM   11  H   UNK N   1      29.358  16.155   2.283  0.00  0.00     0.149 HD
ENDBRANCH   8   9
ENDBRANCH   7   8
ENDBRANCH   1   7
BRANCH   4  12
HETATM   12  O   UNK N   1      33.654  17.350   9.544  0.00  0.00    -0.361 OA
HETATM   13  H   UNK N   1      33.179  16.869  10.192  0.00  0.00     0.217 HD
ENDBRANCH   4  12
TORSDOF 4
ENDMDL
MODEL 8
REMARK VINA RESULT:      -3.9     11.680     12.395
REMARK  4 active torsions:
REMARK  status: ('A' for Active; 'I' for Inactive)
REMARK    1  A    between atoms: N_1  and  C_2 
REMARK    2  A    between atoms: C_2  and  C_3 
REMARK    3  A    between atoms: C_3  and  C_4 
REMARK    4  A    between atoms: C_7  and  O_8 
ROOT
HETATM    1  C   UNK N   1      30.350  16.805   6.769  0.00  0.00    -0.057 A 
HETATM    2  C   UNK N   1      30.731  17.451   7.950  0.00  0.00     0.010 A 
HETATM    3  C   UNK N   1      29.760  17.950   8.825  0.00  0.00     0.037 A 
HETATM    4  C   UNK N   1      28.403  17.804   8.521  0.00  0.00     0.065 A 
HETATM    5  C   UNK N   1      28.015  17.161   7.344  0.00  0.00     0.037 A 
HETATM    6  C   UNK N   1      28.984  16.663   6.471  0.00  0.00     0.010 A 
ENDROOT
BRANCH   1   7
HETATM    7  C   UNK N   1      31.413  16.278   5.848  0.00  0.00     0.057 C 
BRANCH   7   8
HETATM    8  C   UNK N   1      32.206  17.381   5.157  0.00  0.00     0.115 C 
BRANCH   8   9
HETATM    9  N   UNK N   1      31.450  17.902   4.035  0.00  0.00    -0.430 N 
HETATM   10  H   UNK N   1      30.939  18.780   4.129  0.00  0.00     0.149 HD
HETATM   11  H   UNK N   1      31.430  17.392   3.152  0.00  0.00     0.149 HD
ENDBRANCH   8   9
ENDBRANCH   7   8
ENDBRANCH   1   7
BRANCH   4  12
HETATM   12  O   UNK N   1      27.470  18.283   9.359  0.00  0.00    -0.361 OA
HETATM   13  H   UNK N   1      27.641  18.320  10.280  0.00  0.00     0.217 HD
ENDBRANCH   4  12
TORSDOF 4
ENDMDL
MODEL 9
REMARK VINA RESULT:      -3.9      3.522      4.589
REMARK  4 active torsions:
REMARK  status: ('A' for Active; 'I' for Inactive)
REMARK    1  A    between atoms: N_1  and  C_2 
REMARK    2  A    between atoms: C_2  and  C_3 
REMARK    3  A    between atoms: C_3  and  C_4 
REMARK    4  A    between atoms: C_7  and  O_8 
ROOT
HETATM    1  C   UNK N   1      35.749  12.763  16.726  0.00  0.00    -0.057 A 
HETATM    2  C   UNK N   1      36.161  13.765  15.841  0.00  0.00     0.010 A 
HETATM    3  C   UNK N   1      36.893  13.435  14.695  0.00  0.00     0.037 A 
HETATM    4  C   UNK N   1      37.216  12.101  14.432  0.00  0.00     0.065 A 
HETATM    5  C   UNK N   1      36.809  11.096  15.311  0.00  0.00     0.037 A 
HETATM    6  C   UNK N   1      36.078  11.425  16.454  0.00  0.00     0.010 A 
ENDROOT
BRANCH   1   7
HETATM    7  C   UNK N   1      34.964  13.146  17.949  0.00  0.00     0.057 C 
BRANCH   7   8
HETATM    8  C   UNK N   1      35.311  12.305  19.170  0.00  0.00     0.115 C 
BRANCH   8   9
HETATM    9  N   UNK N   1      34.989  13.035  20.380  0.00  0.00    -0.430 N 
HETATM   10  H   UNK N   1      35.552  13.841  20.654  0.00  0.00     0.149 HD
HETATM   11  H   UNK N   1      34.200  12.745  20.957  0.00  0.00     0.149 HD
ENDBRANCH   8   9
ENDBRANCH   7   8
ENDBRANCH   1   7
BRANCH   4  12
HETATM   12  O   UNK N   1      37.919  11.782  13.333  0.00  0.00    -0.361 OA
HETATM   13  H   UNK N   1      38.598  12.351  13.029  0.00  0.00     0.217 HD
ENDBRANCH   4  12
TORSDOF 4
ENDMDL
