REMARK  5 active torsions:
REMARK  status: ('A' for Active; 'I' for Inactive)
REMARK    1  A    between atoms: C_5  and  C_8 
REMARK    2  A    between atoms: C_11  and  O_24 
REMARK    3  A    between atoms: O_17  and  C_18 
REMARK    4  A    between atoms: O_24  and  C_25 
REMARK    5  A    between atoms: C_25  and  C_26 
ROOT
HETATM    1  N   UNK N   1       0.542  -2.029  -0.167  0.00  0.00    -0.290 N 
ATOM      2  HN  UNK N   1       0.353  -1.076  -0.478  1.00  0.00     0.187 HD
HETATM    3  N   UNK N   1      -1.467  -4.804   0.453  0.00  0.00    -0.283 N 
ATOM      4  HN  UNK N   1      -1.618  -5.769   0.746  1.00  0.00     0.188 HD
HETATM    5  C   UNK N   1       1.824  -2.434   0.099  0.00  0.00     0.059 A 
HETATM    6  C   UNK N   1       2.052  -3.773   0.504  0.00  0.00     0.036 A 
HETATM    7  C   UNK N   1      -0.289  -4.156   0.395  0.00  0.00     0.143 A 
HETATM    8  C   UNK N   1      -1.769  -2.775  -0.235  0.00  0.00     0.144 A 
HETATM    9  N   UNK N   1      -0.453  -2.900  -0.013  0.00  0.00    -0.222 N 
HETATM   10  N   UNK N   1      -2.400  -3.937   0.053  0.00  0.00    -0.284 N 
ATOM     11  HN  UNK N   1      -3.401  -4.117  -0.023  1.00  0.00     0.188 HD
HETATM   12  C   UNK N   1       0.974  -4.657   0.662  0.00  0.00     0.054 A 
ENDROOT
BRANCH   8  13
HETATM   13  C   UNK N   1      -2.416  -1.585  -0.855  0.00  0.00     0.255 C 
BRANCH  13  14
HETATM   14  O   UNK N   1      -3.349  -0.960  -0.055  0.00  0.00    -0.343 OA
BRANCH  14  15
HETATM   15  C   UNK N   1      -3.455   0.396  -0.049  0.00  0.00     0.083 A 
HETATM   16  C   UNK N   1      -2.326   1.250  -0.078  0.00  0.00     0.024 A 
HETATM   17  C   UNK N   1      -2.520   2.648  -0.156  0.00  0.00     0.047 A 
HETATM   18  C   UNK N   1      -1.021   0.746  -0.024  0.00  0.00     0.019 A 
HETATM   19  C   UNK N   1      -1.415   3.505  -0.204  0.00  0.00     0.067 A 
HETATM   20  N   UNK N   1      -3.779   3.160  -0.189  0.00  0.00    -0.365 N 
HETATM   21  C   UNK N   1      -0.108   2.983  -0.159  0.00  0.00     0.070 A 
HETATM   22  C   UNK N   1       0.074   1.604  -0.061  0.00  0.00     0.038 A 
HETATM   23  C   UNK N   1      -4.874   2.356  -0.130  0.00  0.00     0.091 A 
ATOM     24  HN  UNK N   1      -3.904   4.169  -0.259  1.00  0.00     0.165 HD
HETATM   25  C   UNK N   1      -4.730   0.968  -0.056  0.00  0.00     0.054 A 
BRANCH  21  26
HETATM   26  O   UNK N   1       0.984   3.780  -0.211  0.00  0.00    -0.356 OA
HETATM   27  C   UNK N   1       0.916   5.147  -0.339  0.00  0.00     0.210 C 
ENDBRANCH  21  26
ENDBRANCH  14  15
ENDBRANCH  13  14
ENDBRANCH   8  13
BRANCH   5  28
HETATM   28  C   UNK N   1       2.949  -1.474   0.018  0.00  0.00    -0.008 A 
HETATM   29  C   UNK N   1       2.700  -0.107  -0.167  0.00  0.00     0.014 A 
HETATM   30  C   UNK N   1       3.755   0.811  -0.183  0.00  0.00     0.001 A 
HETATM   31  C   UNK N   1       5.070   0.367  -0.026  0.00  0.00     0.000 A 
HETATM   32  C   UNK N   1       5.331  -0.995   0.148  0.00  0.00     0.001 A 
HETATM   33  C   UNK N   1       4.274  -1.910   0.179  0.00  0.00     0.014 A 
ENDBRANCH   5  28
TORSDOF 5
