MODEL 1
REMARK VINA RESULT:      -8.4      0.000      0.000
REMARK  5 active torsions:
REMARK  status: ('A' for Active; 'I' for Inactive)
REMARK    1  A    between atoms: C_5  and  C_8 
REMARK    2  A    between atoms: C_11  and  O_24 
REMARK    3  A    between atoms: O_17  and  C_18 
REMARK    4  A    between atoms: O_24  and  C_25 
REMARK    5  A    between atoms: C_25  and  C_26 
ROOT
HETATM    1  N   UNK N   1      22.457  18.240   3.795  0.00  0.00    -0.290 N 
ATOM      2  HN  UNK N   1      23.001  17.532   4.288  1.00  0.00     0.187 HD
HETATM    3  N   UNK N   1      19.176  18.384   2.640  0.00  0.00    -0.283 N 
ATOM      4  HN  UNK N   1      18.400  18.843   2.162  1.00  0.00     0.188 HD
HETATM    5  C   UNK N   1      23.022  19.440   3.453  0.00  0.00     0.059 A 
HETATM    6  C   UNK N   1      22.229  20.410   2.791  0.00  0.00     0.036 A 
HETATM    7  C   UNK N   1      20.413  18.880   2.824  0.00  0.00     0.143 A 
HETATM    8  C   UNK N   1      20.395  16.957   3.715  0.00  0.00     0.144 A 
HETATM    9  N   UNK N   1      21.185  18.012   3.472  0.00  0.00    -0.222 N 
HETATM   10  N   UNK N   1      19.161  17.175   3.204  0.00  0.00    -0.284 N 
ATOM     11  HN  UNK N   1      18.368  16.534   3.243  1.00  0.00     0.188 HD
HETATM   12  C   UNK N   1      20.894  20.127   2.462  0.00  0.00     0.054 A 
ENDROOT
BRANCH   8  13
HETATM   13  C   UNK N   1      20.774  15.789   4.559  0.00  0.00     0.255 C 
BRANCH  13  14
HETATM   14  O   UNK N   1      21.381  16.119   5.752  0.00  0.00    -0.343 OA
BRANCH  14  15
HETATM   15  C   UNK N   1      20.759  15.867   6.935  0.00  0.00     0.083 A 
HETATM   16  C   UNK N   1      21.152  14.812   7.795  0.00  0.00     0.024 A 
HETATM   17  C   UNK N   1      20.512  14.668   9.047  0.00  0.00     0.047 A 
HETATM   18  C   UNK N   1      22.154  13.903   7.433  0.00  0.00     0.019 A 
HETATM   19  C   UNK N   1      20.901  13.642   9.915  0.00  0.00     0.067 A 
HETATM   20  N   UNK N   1      19.523  15.527   9.409  0.00  0.00    -0.365 N 
HETATM   21  C   UNK N   1      21.917  12.741   9.542  0.00  0.00     0.070 A 
HETATM   22  C   UNK N   1      22.528  12.879   8.297  0.00  0.00     0.038 A 
HETATM   23  C   UNK N   1      19.112  16.526   8.583  0.00  0.00     0.091 A 
ATOM     24  HN  UNK N   1      19.080  15.419  10.320  1.00  0.00     0.165 HD
HETATM   25  C   UNK N   1      19.719  16.709   7.337  0.00  0.00     0.054 A 
BRANCH  21  26
HETATM   26  O   UNK N   1      22.324  11.743  10.359  0.00  0.00    -0.356 OA
HETATM   27  C   UNK N   1      23.029  11.956  11.520  0.00  0.00     0.210 C 
ENDBRANCH  21  26
ENDBRANCH  14  15
ENDBRANCH  13  14
ENDBRANCH   8  13
BRANCH   5  28
HETATM   28  C   UNK N   1      24.455  19.701   3.722  0.00  0.00    -0.008 A 
HETATM   29  C   UNK N   1      25.078  19.139   4.844  0.00  0.00     0.014 A 
HETATM   30  C   UNK N   1      26.445  19.332   5.069  0.00  0.00     0.001 A 
HETATM   31  C   UNK N   1      27.198  20.100   4.178  0.00  0.00     0.000 A 
HETATM   32  C   UNK N   1      26.585  20.675   3.062  0.00  0.00     0.001 A 
HETATM   33  C   UNK N   1      25.222  20.469   2.830  0.00  0.00     0.014 A 
ENDBRANCH   5  28
TORSDOF 5
ENDMDL
MODEL 2
REMARK VINA RESULT:      -8.4      1.449      2.085
REMARK  5 active torsions:
REMARK  status: ('A' for Active; 'I' for Inactive)
REMARK    1  A    between atoms: C_5  and  C_8 
REMARK    2  A    between atoms: C_11  and  O_24 
REMARK    3  A    between atoms: O_17  and  C_18 
REMARK    4  A    between atoms: O_24  and  C_25 
REMARK    5  A    between atoms: C_25  and  C_26 
ROOT
HETATM    1  N   UNK N   1      22.431  18.007   4.016  0.00  0.00    -0.290 N 
ATOM      2  HN  UNK N   1      23.024  17.357   4.532  1.00  0.00     0.187 HD
HETATM    3  N   UNK N   1      19.110  17.928   2.973  0.00  0.00    -0.283 N 
ATOM      4  HN  UNK N   1      18.298  18.320   2.497  1.00  0.00     0.188 HD
HETATM    5  C   UNK N   1      22.926  19.210   3.583  0.00  0.00     0.059 A 
HETATM    6  C   UNK N   1      22.065  20.099   2.892  0.00  0.00     0.036 A 
HETATM    7  C   UNK N   1      20.327  18.491   3.082  0.00  0.00     0.143 A 
HETATM    8  C   UNK N   1      20.432  16.628   4.088  0.00  0.00     0.144 A 
HETATM    9  N   UNK N   1      21.162  17.702   3.754  0.00  0.00    -0.222 N 
HETATM   10  N   UNK N   1      19.173  16.756   3.609  0.00  0.00    -0.284 N 
ATOM     11  HN  UNK N   1      18.414  16.084   3.716  1.00  0.00     0.188 HD
HETATM   12  C   UNK N   1      20.736  19.735   2.629  0.00  0.00     0.054 A 
ENDROOT
BRANCH   8  13
HETATM   13  C   UNK N   1      20.895  15.534   4.987  0.00  0.00     0.255 C 
BRANCH  13  14
HETATM   14  O   UNK N   1      21.456  15.964   6.170  0.00  0.00    -0.343 OA
BRANCH  14  15
HETATM   15  C   UNK N   1      22.497  15.288   6.726  0.00  0.00     0.083 A 
HETATM   16  C   UNK N   1      22.361  14.514   7.904  0.00  0.00     0.024 A 
HETATM   17  C   UNK N   1      23.469  13.771   8.373  0.00  0.00     0.047 A 
HETATM   18  C   UNK N   1      21.160  14.470   8.622  0.00  0.00     0.019 A 
HETATM   19  C   UNK N   1      23.347  12.986   9.525  0.00  0.00     0.067 A 
HETATM   20  N   UNK N   1      24.651  13.814   7.703  0.00  0.00    -0.365 N 
HETATM   21  C   UNK N   1      22.129  12.944  10.231  0.00  0.00     0.070 A 
HETATM   22  C   UNK N   1      21.048  13.697   9.773  0.00  0.00     0.038 A 
HETATM   23  C   UNK N   1      24.807  14.577   6.588  0.00  0.00     0.091 A 
ATOM     24  HN  UNK N   1      25.437  13.263   8.044  1.00  0.00     0.165 HD
HETATM   25  C   UNK N   1      23.738  15.325   6.087  0.00  0.00     0.054 A 
BRANCH  21  26
HETATM   26  O   UNK N   1      21.971  12.192  11.344  0.00  0.00    -0.356 OA
HETATM   27  C   UNK N   1      22.992  11.922  12.224  0.00  0.00     0.210 C 
ENDBRANCH  21  26
ENDBRANCH  14  15
ENDBRANCH  13  14
ENDBRANCH   8  13
BRANCH   5  28
HETATM   28  C   UNK N   1      24.352  19.553   3.783  0.00  0.00    -0.008 A 
HETATM   29  C   UNK N   1      25.064  19.015   4.865  0.00  0.00     0.014 A 
HETATM   30  C   UNK N   1      26.426  19.287   5.025  0.00  0.00     0.001 A 
HETATM   31  C   UNK N   1      27.086  20.110   4.109  0.00  0.00     0.000 A 
HETATM   32  C   UNK N   1      26.385  20.660   3.033  0.00  0.00     0.001 A 
HETATM   33  C   UNK N   1      25.026  20.375   2.866  0.00  0.00     0.014 A 
ENDBRANCH   5  28
TORSDOF 5
ENDMDL
MODEL 3
REMARK VINA RESULT:      -8.1      2.826      4.605
REMARK  5 active torsions:
REMARK  status: ('A' for Active; 'I' for Inactive)
REMARK    1  A    between atoms: C_5  and  C_8 
REMARK    2  A    between atoms: C_11  and  O_24 
REMARK    3  A    between atoms: O_17  and  C_18 
REMARK    4  A    between atoms: O_24  and  C_25 
REMARK    5  A    between atoms: C_25  and  C_26 
ROOT
HETATM    1  N   UNK N   1      22.457  18.317   3.630  0.00  0.00    -0.290 N 
ATOM      2  HN  UNK N   1      23.020  17.598   4.086  1.00  0.00     0.187 HD
HETATM    3  N   UNK N   1      19.190  18.418   2.431  0.00  0.00    -0.283 N 
ATOM      4  HN  UNK N   1      18.405  18.878   1.970  1.00  0.00     0.188 HD
HETATM    5  C   UNK N   1      22.982  19.557   3.376  0.00  0.00     0.059 A 
HETATM    6  C   UNK N   1      22.163  20.539   2.764  0.00  0.00     0.036 A 
HETATM    7  C   UNK N   1      20.405  18.945   2.668  0.00  0.00     0.143 A 
HETATM    8  C   UNK N   1      20.446  16.968   3.433  0.00  0.00     0.144 A 
HETATM    9  N   UNK N   1      21.200  18.065   3.272  0.00  0.00    -0.222 N 
HETATM   10  N   UNK N   1      19.212  17.174   2.915  0.00  0.00    -0.284 N 
ATOM     11  HN  UNK N   1      18.443  16.504   2.900  1.00  0.00     0.188 HD
HETATM   12  C   UNK N   1      20.845  20.229   2.395  0.00  0.00     0.054 A 
ENDROOT
BRANCH   8  13
HETATM   13  C   UNK N   1      20.855  15.763   4.206  0.00  0.00     0.255 C 
BRANCH  13  14
HETATM   14  O   UNK N   1      22.095  15.262   3.869  0.00  0.00    -0.343 OA
BRANCH  14  15
HETATM   15  C   UNK N   1      23.107  15.256   4.777  0.00  0.00     0.083 A 
HETATM   16  C   UNK N   1      24.425  15.658   4.454  0.00  0.00     0.024 A 
HETATM   17  C   UNK N   1      25.402  15.705   5.474  0.00  0.00     0.047 A 
HETATM   18  C   UNK N   1      24.789  16.004   3.147  0.00  0.00     0.019 A 
HETATM   19  C   UNK N   1      26.705  16.119   5.175  0.00  0.00     0.067 A 
HETATM   20  N   UNK N   1      25.076  15.354   6.746  0.00  0.00    -0.365 N 
HETATM   21  C   UNK N   1      27.054  16.473   3.858  0.00  0.00     0.070 A 
HETATM   22  C   UNK N   1      26.089  16.404   2.854  0.00  0.00     0.038 A 
HETATM   23  C   UNK N   1      23.823  14.935   7.068  0.00  0.00     0.091 A 
ATOM     24  HN  UNK N   1      25.787  15.406   7.475  1.00  0.00     0.165 HD
HETATM   25  C   UNK N   1      22.824  14.876   6.092  0.00  0.00     0.054 A 
BRANCH  21  26
HETATM   26  O   UNK N   1      28.301  16.885   3.533  0.00  0.00    -0.356 OA
HETATM   27  C   UNK N   1      29.195  16.108   2.836  0.00  0.00     0.210 C 
ENDBRANCH  21  26
ENDBRANCH  14  15
ENDBRANCH  13  14
ENDBRANCH   8  13
BRANCH   5  28
HETATM   28  C   UNK N   1      24.400  19.851   3.685  0.00  0.00    -0.008 A 
HETATM   29  C   UNK N   1      24.941  19.499   4.930  0.00  0.00     0.014 A 
HETATM   30  C   UNK N   1      26.294  19.720   5.204  0.00  0.00     0.001 A 
HETATM   31  C   UNK N   1      27.116  20.306   4.239  0.00  0.00     0.000 A 
HETATM   32  C   UNK N   1      26.586  20.671   2.998  0.00  0.00     0.001 A 
HETATM   33  C   UNK N   1      25.236  20.436   2.720  0.00  0.00     0.014 A 
ENDBRANCH   5  28
TORSDOF 5
ENDMDL
MODEL 4
REMARK VINA RESULT:      -8.0      3.884      5.294
REMARK  5 active torsions:
REMARK  status: ('A' for Active; 'I' for Inactive)
REMARK    1  A    between atoms: C_5  and  C_8 
REMARK    2  A    between atoms: C_11  and  O_24 
REMARK    3  A    between atoms: O_17  and  C_18 
REMARK    4  A    between atoms: O_24  and  C_25 
REMARK    5  A    between atoms: C_25  and  C_26 
ROOT
HETATM    1  N   UNK N   1      22.268  18.617   3.521  0.00  0.00    -0.290 N 
ATOM      2  HN  UNK N   1      22.706  17.805   3.957  1.00  0.00     0.187 HD
HETATM    3  N   UNK N   1      19.089  19.247   2.249  0.00  0.00    -0.283 N 
ATOM      4  HN  UNK N   1      18.394  19.837   1.792  1.00  0.00     0.188 HD
HETATM    5  C   UNK N   1      22.977  19.775   3.336  0.00  0.00     0.059 A 
HETATM    6  C   UNK N   1      22.329  20.891   2.750  0.00  0.00     0.036 A 
HETATM    7  C   UNK N   1      20.360  19.580   2.539  0.00  0.00     0.143 A 
HETATM    8  C   UNK N   1      20.088  17.589   3.215  0.00  0.00     0.144 A 
HETATM    9  N   UNK N   1      20.999  18.568   3.121  0.00  0.00    -0.222 N 
HETATM   10  N   UNK N   1      18.915  17.995   2.678  0.00  0.00    -0.284 N 
ATOM     11  HN  UNK N   1      18.057  17.447   2.613  1.00  0.00     0.188 HD
HETATM   12  C   UNK N   1      20.992  20.795   2.336  0.00  0.00     0.054 A 
ENDROOT
BRANCH   8  13
HETATM   13  C   UNK N   1      20.294  16.305   3.941  0.00  0.00     0.255 C 
BRANCH  13  14
HETATM   14  O   UNK N   1      21.602  15.871   3.976  0.00  0.00    -0.343 OA
BRANCH  14  15
HETATM   15  C   UNK N   1      22.155  15.260   2.894  0.00  0.00     0.083 A 
HETATM   16  C   UNK N   1      23.550  15.252   2.653  0.00  0.00     0.024 A 
HETATM   17  C   UNK N   1      24.056  14.523   1.552  0.00  0.00     0.047 A 
HETATM   18  C   UNK N   1      24.443  15.955   3.471  0.00  0.00     0.019 A 
HETATM   19  C   UNK N   1      25.434  14.490   1.310  0.00  0.00     0.067 A 
HETATM   20  N   UNK N   1      23.205  13.850   0.732  0.00  0.00    -0.365 N 
HETATM   21  C   UNK N   1      26.320  15.193   2.148  0.00  0.00     0.070 A 
HETATM   22  C   UNK N   1      25.811  15.927   3.218  0.00  0.00     0.038 A 
HETATM   23  C   UNK N   1      21.861  13.873   0.932  0.00  0.00     0.091 A 
ATOM     24  HN  UNK N   1      23.585  13.317  -0.049  1.00  0.00     0.165 HD
HETATM   25  C   UNK N   1      21.316  14.577   2.009  0.00  0.00     0.054 A 
BRANCH  21  26
HETATM   26  O   UNK N   1      27.658  15.178   1.949  0.00  0.00    -0.356 OA
HETATM   27  C   UNK N   1      28.398  14.022   1.875  0.00  0.00     0.210 C 
ENDBRANCH  21  26
ENDBRANCH  14  15
ENDBRANCH  13  14
ENDBRANCH   8  13
BRANCH   5  28
HETATM   28  C   UNK N   1      24.413  19.845   3.692  0.00  0.00    -0.008 A 
HETATM   29  C   UNK N   1      24.882  19.230   4.861  0.00  0.00     0.014 A 
HETATM   30  C   UNK N   1      26.245  19.240   5.171  0.00  0.00     0.001 A 
HETATM   31  C   UNK N   1      27.151  19.876   4.318  0.00  0.00     0.000 A 
HETATM   32  C   UNK N   1      26.693  20.502   3.155  0.00  0.00     0.001 A 
HETATM   33  C   UNK N   1      25.331  20.478   2.839  0.00  0.00     0.014 A 
ENDBRANCH   5  28
TORSDOF 5
ENDMDL
MODEL 5
REMARK VINA RESULT:      -8.0      5.268      8.448
REMARK  5 active torsions:
REMARK  status: ('A' for Active; 'I' for Inactive)
REMARK    1  A    between atoms: C_5  and  C_8 
REMARK    2  A    between atoms: C_11  and  O_24 
REMARK    3  A    between atoms: O_17  and  C_18 
REMARK    4  A    between atoms: O_24  and  C_25 
REMARK    5  A    between atoms: C_25  and  C_26 
ROOT
HETATM    1  N   UNK N   1      24.884  18.851   4.388  0.00  0.00    -0.290 N 
ATOM      2  HN  UNK N   1      24.437  18.149   4.978  1.00  0.00     0.187 HD
HETATM    3  N   UNK N   1      28.148  20.026   4.094  0.00  0.00    -0.283 N 
ATOM      4  HN  UNK N   1      28.861  20.636   3.695  1.00  0.00     0.188 HD
HETATM    5  C   UNK N   1      24.152  19.559   3.470  0.00  0.00     0.059 A 
HETATM    6  C   UNK N   1      24.811  20.508   2.650  0.00  0.00     0.036 A 
HETATM    7  C   UNK N   1      26.841  20.000   3.772  0.00  0.00     0.143 A 
HETATM    8  C   UNK N   1      27.122  18.532   5.276  0.00  0.00     0.144 A 
HETATM    9  N   UNK N   1      26.187  19.096   4.498  0.00  0.00    -0.222 N 
HETATM   10  N   UNK N   1      28.327  19.100   5.038  0.00  0.00    -0.284 N 
ATOM     11  HN  UNK N   1      29.209  18.863   5.494  1.00  0.00     0.188 HD
HETATM   12  C   UNK N   1      26.186  20.742   2.804  0.00  0.00     0.054 A 
ENDROOT
BRANCH   8  13
HETATM   13  C   UNK N   1      26.896  17.351   6.155  0.00  0.00     0.255 C 
BRANCH  13  14
HETATM   14  O   UNK N   1      28.037  16.643   6.466  0.00  0.00    -0.343 OA
BRANCH  14  15
HETATM   15  C   UNK N   1      28.902  17.108   7.407  0.00  0.00     0.083 A 
HETATM   16  C   UNK N   1      30.308  17.044   7.249  0.00  0.00     0.024 A 
HETATM   17  C   UNK N   1      31.140  17.626   8.233  0.00  0.00     0.047 A 
HETATM   18  C   UNK N   1      30.896  16.413   6.147  0.00  0.00     0.019 A 
HETATM   19  C   UNK N   1      32.530  17.588   8.083  0.00  0.00     0.067 A 
HETATM   20  N   UNK N   1      30.590  18.227   9.321  0.00  0.00    -0.365 N 
HETATM   21  C   UNK N   1      33.108  16.958   6.965  0.00  0.00     0.070 A 
HETATM   22  C   UNK N   1      32.281  16.368   6.010  0.00  0.00     0.038 A 
HETATM   23  C   UNK N   1      29.243  18.270   9.504  0.00  0.00     0.091 A 
ATOM     24  HN  UNK N   1      31.201  18.655  10.016  1.00  0.00     0.165 HD
HETATM   25  C   UNK N   1      28.382  17.710   8.556  0.00  0.00     0.054 A 
BRANCH  21  26
HETATM   26  O   UNK N   1      34.448  16.908   6.783  0.00  0.00    -0.356 OA
HETATM   27  C   UNK N   1      35.119  15.764   6.423  0.00  0.00     0.210 C 
ENDBRANCH  21  26
ENDBRANCH  14  15
ENDBRANCH  13  14
ENDBRANCH   8  13
BRANCH   5  28
HETATM   28  C   UNK N   1      22.686  19.374   3.373  0.00  0.00    -0.008 A 
HETATM   29  C   UNK N   1      21.885  20.366   2.790  0.00  0.00     0.014 A 
HETATM   30  C   UNK N   1      20.509  20.171   2.640  0.00  0.00     0.001 A 
HETATM   31  C   UNK N   1      19.919  18.985   3.083  0.00  0.00     0.000 A 
HETATM   32  C   UNK N   1      20.705  17.993   3.676  0.00  0.00     0.001 A 
HETATM   33  C   UNK N   1      22.084  18.184   3.812  0.00  0.00     0.014 A 
ENDBRANCH   5  28
TORSDOF 5
ENDMDL
MODEL 6
REMARK VINA RESULT:      -7.8      7.265     10.265
REMARK  5 active torsions:
REMARK  status: ('A' for Active; 'I' for Inactive)
REMARK    1  A    between atoms: C_5  and  C_8 
REMARK    2  A    between atoms: C_11  and  O_24 
REMARK    3  A    between atoms: O_17  and  C_18 
REMARK    4  A    between atoms: O_24  and  C_25 
REMARK    5  A    between atoms: C_25  and  C_26 
ROOT
HETATM    1  N   UNK N   1      29.841  17.546   6.581  0.00  0.00    -0.290 N 
ATOM      2  HN  UNK N   1      29.992  17.172   5.644  1.00  0.00     0.187 HD
HETATM    3  N   UNK N   1      27.359  19.519   8.018  0.00  0.00    -0.283 N 
ATOM      4  HN  UNK N   1      26.941  20.030   8.795  1.00  0.00     0.188 HD
HETATM    5  C   UNK N   1      30.737  17.289   7.586  0.00  0.00     0.059 A 
HETATM    6  C   UNK N   1      30.482  17.802   8.882  0.00  0.00     0.036 A 
HETATM    7  C   UNK N   1      28.508  18.820   8.041  0.00  0.00     0.143 A 
HETATM    8  C   UNK N   1      27.742  18.657   6.071  0.00  0.00     0.144 A 
HETATM    9  N   UNK N   1      28.771  18.291   6.848  0.00  0.00    -0.222 N 
HETATM   10  N   UNK N   1      26.873  19.414   6.779  0.00  0.00    -0.284 N 
ATOM     11  HN  UNK N   1      26.007  19.827   6.431  1.00  0.00     0.188 HD
HETATM   12  C   UNK N   1      29.346  18.590   9.119  0.00  0.00     0.054 A 
ENDROOT
BRANCH   8  13
HETATM   13  C   UNK N   1      27.513  18.170   4.682  0.00  0.00     0.255 C 
BRANCH  13  14
HETATM   14  O   UNK N   1      28.664  17.950   3.956  0.00  0.00    -0.343 OA
BRANCH  14  15
HETATM   15  C   UNK N   1      28.987  16.696   3.537  0.00  0.00     0.083 A 
HETATM   16  C   UNK N   1      30.325  16.241   3.452  0.00  0.00     0.024 A 
HETATM   17  C   UNK N   1      30.575  14.897   3.090  0.00  0.00     0.047 A 
HETATM   18  C   UNK N   1      31.408  17.089   3.710  0.00  0.00     0.019 A 
HETATM   19  C   UNK N   1      31.890  14.426   3.019  0.00  0.00     0.067 A 
HETATM   20  N   UNK N   1      29.538  14.062   2.816  0.00  0.00    -0.365 N 
HETATM   21  C   UNK N   1      32.970  15.288   3.292  0.00  0.00     0.070 A 
HETATM   22  C   UNK N   1      32.715  16.617   3.627  0.00  0.00     0.038 A 
HETATM   23  C   UNK N   1      28.249  14.492   2.862  0.00  0.00     0.091 A 
ATOM     24  HN  UNK N   1      29.732  13.092   2.569  1.00  0.00     0.165 HD
HETATM   25  C   UNK N   1      27.954  15.810   3.218  0.00  0.00     0.054 A 
BRANCH  21  26
HETATM   26  O   UNK N   1      34.254  14.866   3.240  0.00  0.00    -0.356 OA
HETATM   27  C   UNK N   1      34.612  13.541   3.170  0.00  0.00     0.210 C 
ENDBRANCH  21  26
ENDBRANCH  14  15
ENDBRANCH  13  14
ENDBRANCH   8  13
BRANCH   5  28
HETATM   28  C   UNK N   1      31.980  16.532   7.311  0.00  0.00    -0.008 A 
HETATM   29  C   UNK N   1      33.216  17.193   7.271  0.00  0.00     0.014 A 
HETATM   30  C   UNK N   1      34.399  16.474   7.073  0.00  0.00     0.001 A 
HETATM   31  C   UNK N   1      34.355  15.089   6.901  0.00  0.00     0.000 A 
HETATM   32  C   UNK N   1      33.128  14.421   6.927  0.00  0.00     0.001 A 
HETATM   33  C   UNK N   1      31.947  15.139   7.141  0.00  0.00     0.014 A 
ENDBRANCH   5  28
TORSDOF 5
ENDMDL
MODEL 7
REMARK VINA RESULT:      -7.7     13.416     16.935
REMARK  5 active torsions:
REMARK  status: ('A' for Active; 'I' for Inactive)
REMARK    1  A    between atoms: C_5  and  C_8 
REMARK    2  A    between atoms: C_11  and  O_24 
REMARK    3  A    between atoms: O_17  and  C_18 
REMARK    4  A    between atoms: O_24  and  C_25 
REMARK    5  A    between atoms: C_25  and  C_26 
ROOT
HETATM    1  N   UNK N   1      35.067  12.689  14.441  0.00  0.00    -0.290 N 
ATOM      2  HN  UNK N   1      35.395  13.621  14.695  1.00  0.00     0.187 HD
HETATM    3  N   UNK N   1      34.198  11.179  11.427  0.00  0.00    -0.283 N 
ATOM      4  HN  UNK N   1      33.861  10.396  10.867  1.00  0.00     0.188 HD
HETATM    5  C   UNK N   1      34.887  11.728  15.401  0.00  0.00     0.059 A 
HETATM    6  C   UNK N   1      34.454  10.436  15.009  0.00  0.00     0.036 A 
HETATM    7  C   UNK N   1      34.369  11.198  12.762  0.00  0.00     0.143 A 
HETATM    8  C   UNK N   1      34.930  13.116  12.053  0.00  0.00     0.144 A 
HETATM    9  N   UNK N   1      34.806  12.386  13.171  0.00  0.00    -0.222 N 
HETATM   10  N   UNK N   1      34.554  12.384  10.979  0.00  0.00    -0.284 N 
ATOM     11  HN  UNK N   1      34.547  12.696  10.007  1.00  0.00     0.188 HD
HETATM   12  C   UNK N   1      34.183  10.161  13.660  0.00  0.00     0.054 A 
ENDROOT
BRANCH   8  13
HETATM   13  C   UNK N   1      35.540  14.473  11.989  0.00  0.00     0.255 C 
BRANCH  13  14
HETATM   14  O   UNK N   1      36.249  14.728  10.834  0.00  0.00    -0.343 OA
BRANCH  14  15
HETATM   15  C   UNK N   1      35.675  15.412   9.809  0.00  0.00     0.083 A 
HETATM   16  C   UNK N   1      35.702  14.948   8.471  0.00  0.00     0.024 A 
HETATM   17  C   UNK N   1      35.010  15.672   7.475  0.00  0.00     0.047 A 
HETATM   18  C   UNK N   1      36.404  13.792   8.108  0.00  0.00     0.019 A 
HETATM   19  C   UNK N   1      35.011  15.217   6.152  0.00  0.00     0.067 A 
HETATM   20  N   UNK N   1      34.339  16.809   7.802  0.00  0.00    -0.365 N 
HETATM   21  C   UNK N   1      35.713  14.047   5.803  0.00  0.00     0.070 A 
HETATM   22  C   UNK N   1      36.411  13.350   6.789  0.00  0.00     0.038 A 
HETATM   23  C   UNK N   1      34.329  17.286   9.075  0.00  0.00     0.091 A 
ATOM     24  HN  UNK N   1      33.833  17.314   7.076  1.00  0.00     0.165 HD
HETATM   25  C   UNK N   1      34.997  16.600  10.093  0.00  0.00     0.054 A 
BRANCH  21  26
HETATM   26  O   UNK N   1      35.731  13.573   4.536  0.00  0.00    -0.356 OA
HETATM   27  C   UNK N   1      34.728  13.810   3.627  0.00  0.00     0.210 C 
ENDBRANCH  21  26
ENDBRANCH  14  15
ENDBRANCH  13  14
ENDBRANCH   8  13
BRANCH   5  28
HETATM   28  C   UNK N   1      35.087  12.048  16.834  0.00  0.00    -0.008 A 
HETATM   29  C   UNK N   1      35.035  13.377  17.275  0.00  0.00     0.014 A 
HETATM   30  C   UNK N   1      35.163  13.679  18.635  0.00  0.00     0.001 A 
HETATM   31  C   UNK N   1      35.357  12.653  19.563  0.00  0.00     0.000 A 
HETATM   32  C   UNK N   1      35.422  11.325  19.133  0.00  0.00     0.001 A 
HETATM   33  C   UNK N   1      35.279  11.024  17.775  0.00  0.00     0.014 A 
ENDBRANCH   5  28
TORSDOF 5
ENDMDL
MODEL 8
REMARK VINA RESULT:      -7.7      2.559      4.092
REMARK  5 active torsions:
REMARK  status: ('A' for Active; 'I' for Inactive)
REMARK    1  A    between atoms: C_5  and  C_8 
REMARK    2  A    between atoms: C_11  and  O_24 
REMARK    3  A    between atoms: O_17  and  C_18 
REMARK    4  A    between atoms: O_24  and  C_25 
REMARK    5  A    between atoms: C_25  and  C_26 
ROOT
HETATM    1  N   UNK N   1      25.936  18.656   5.593  0.00  0.00    -0.290 N 
ATOM      2  HN  UNK N   1      25.602  17.964   6.264  1.00  0.00     0.187 HD
HETATM    3  N   UNK N   1      24.444  20.368   2.954  0.00  0.00    -0.283 N 
ATOM      4  HN  UNK N   1      24.459  21.020   2.170  1.00  0.00     0.188 HD
HETATM    5  C   UNK N   1      27.235  19.091   5.629  0.00  0.00     0.059 A 
HETATM    6  C   UNK N   1      27.657  20.072   4.697  0.00  0.00     0.036 A 
HETATM    7  C   UNK N   1      25.478  20.048   3.754  0.00  0.00     0.143 A 
HETATM    8  C   UNK N   1      23.815  18.926   4.439  0.00  0.00     0.144 A 
HETATM    9  N   UNK N   1      25.117  19.150   4.667  0.00  0.00    -0.222 N 
HETATM   10  N   UNK N   1      23.395  19.666   3.386  0.00  0.00    -0.284 N 
ATOM     11  HN  UNK N   1      22.452  19.684   2.998  1.00  0.00     0.188 HD
HETATM   12  C   UNK N   1      26.764  20.562   3.732  0.00  0.00     0.054 A 
ENDROOT
BRANCH   8  13
HETATM   13  C   UNK N   1      22.929  18.106   5.312  0.00  0.00     0.255 C 
BRANCH  13  14
HETATM   14  O   UNK N   1      23.314  16.788   5.439  0.00  0.00    -0.343 OA
BRANCH  14  15
HETATM   15  C   UNK N   1      22.503  15.890   6.060  0.00  0.00     0.083 A 
HETATM   16  C   UNK N   1      23.000  14.881   6.921  0.00  0.00     0.024 A 
HETATM   17  C   UNK N   1      22.087  14.040   7.597  0.00  0.00     0.047 A 
HETATM   18  C   UNK N   1      24.373  14.691   7.116  0.00  0.00     0.019 A 
HETATM   19  C   UNK N   1      22.560  13.050   8.466  0.00  0.00     0.067 A 
HETATM   20  N   UNK N   1      20.750  14.194   7.407  0.00  0.00    -0.365 N 
HETATM   21  C   UNK N   1      23.944  12.877   8.660  0.00  0.00     0.070 A 
HETATM   22  C   UNK N   1      24.838  13.699   7.973  0.00  0.00     0.038 A 
HETATM   23  C   UNK N   1      20.257  15.136   6.559  0.00  0.00     0.091 A 
ATOM     24  HN  UNK N   1      20.103  13.589   7.910  1.00  0.00     0.165 HD
HETATM   25  C   UNK N   1      21.122  15.992   5.873  0.00  0.00     0.054 A 
BRANCH  21  26
HETATM   26  O   UNK N   1      24.439  11.937   9.497  0.00  0.00    -0.356 OA
HETATM   27  C   UNK N   1      24.683  12.167  10.830  0.00  0.00     0.210 C 
ENDBRANCH  21  26
ENDBRANCH  14  15
ENDBRANCH  13  14
ENDBRANCH   8  13
BRANCH   5  28
HETATM   28  C   UNK N   1      28.199  18.507   6.590  0.00  0.00    -0.008 A 
HETATM   29  C   UNK N   1      29.171  17.597   6.152  0.00  0.00     0.014 A 
HETATM   30  C   UNK N   1      30.121  17.090   7.044  0.00  0.00     0.001 A 
HETATM   31  C   UNK N   1      30.099  17.479   8.385  0.00  0.00     0.000 A 
HETATM   32  C   UNK N   1      29.127  18.377   8.835  0.00  0.00     0.001 A 
HETATM   33  C   UNK N   1      28.187  18.896   7.939  0.00  0.00     0.014 A 
ENDBRANCH   5  28
TORSDOF 5
ENDMDL
MODEL 9
REMARK VINA RESULT:      -7.6      3.257      5.013
REMARK  5 active torsions:
REMARK  status: ('A' for Active; 'I' for Inactive)
REMARK    1  A    between atoms: C_5  and  C_8 
REMARK    2  A    between atoms: C_11  and  O_24 
REMARK    3  A    between atoms: O_17  and  C_18 
REMARK    4  A    between atoms: O_24  and  C_25 
REMARK    5  A    between atoms: C_25  and  C_26 
ROOT
HETATM    1  N   UNK N   1      26.659  18.309   5.827  0.00  0.00    -0.290 N 
ATOM      2  HN  UNK N   1      26.597  17.303   5.982  1.00  0.00     0.187 HD
HETATM    3  N   UNK N   1      24.924  20.547   3.801  0.00  0.00    -0.283 N 
ATOM      4  HN  UNK N   1      24.742  21.476   3.422  1.00  0.00     0.188 HD
HETATM    5  C   UNK N   1      27.584  19.062   6.501  0.00  0.00     0.059 A 
HETATM    6  C   UNK N   1      27.625  20.462   6.281  0.00  0.00     0.036 A 
HETATM    7  C   UNK N   1      25.865  20.218   4.705  0.00  0.00     0.143 A 
HETATM    8  C   UNK N   1      24.842  18.426   4.219  0.00  0.00     0.144 A 
HETATM    9  N   UNK N   1      25.842  18.913   4.967  0.00  0.00    -0.222 N 
HETATM   10  N   UNK N   1      24.276  19.420   3.496  0.00  0.00    -0.284 N 
ATOM     11  HN  UNK N   1      23.499  19.327   2.842  1.00  0.00     0.188 HD
HETATM   12  C   UNK N   1      26.751  21.058   5.359  0.00  0.00     0.054 A 
ENDROOT
BRANCH   8  13
HETATM   13  C   UNK N   1      24.330  17.029   4.292  0.00  0.00     0.255 C 
BRANCH  13  14
HETATM   14  O   UNK N   1      23.786  16.682   5.510  0.00  0.00    -0.343 OA
BRANCH  14  15
HETATM   15  C   UNK N   1      24.132  15.513   6.113  0.00  0.00     0.083 A 
HETATM   16  C   UNK N   1      23.258  14.813   6.979  0.00  0.00     0.024 A 
HETATM   17  C   UNK N   1      23.659  13.561   7.500  0.00  0.00     0.047 A 
HETATM   18  C   UNK N   1      22.009  15.331   7.340  0.00  0.00     0.019 A 
HETATM   19  C   UNK N   1      22.799  12.848   8.343  0.00  0.00     0.067 A 
HETATM   20  N   UNK N   1      24.876  13.048   7.179  0.00  0.00    -0.365 N 
HETATM   21  C   UNK N   1      21.541  13.377   8.688  0.00  0.00     0.070 A 
HETATM   22  C   UNK N   1      21.163  14.622   8.187  0.00  0.00     0.038 A 
HETATM   23  C   UNK N   1      25.741  13.722   6.374  0.00  0.00     0.091 A 
ATOM     24  HN  UNK N   1      25.147  12.139   7.551  1.00  0.00     0.165 HD
HETATM   25  C   UNK N   1      25.385  14.961   5.834  0.00  0.00     0.054 A 
BRANCH  21  26
HETATM   26  O   UNK N   1      20.681  12.713   9.494  0.00  0.00    -0.356 OA
HETATM   27  C   UNK N   1      20.862  12.585  10.851  0.00  0.00     0.210 C 
ENDBRANCH  21  26
ENDBRANCH  14  15
ENDBRANCH  13  14
ENDBRANCH   8  13
BRANCH   5  28
HETATM   28  C   UNK N   1      28.565  18.418   7.406  0.00  0.00    -0.008 A 
HETATM   29  C   UNK N   1      28.497  18.633   8.789  0.00  0.00     0.014 A 
HETATM   30  C   UNK N   1      29.382  17.979   9.653  0.00  0.00     0.001 A 
HETATM   31  C   UNK N   1      30.350  17.113   9.138  0.00  0.00     0.000 A 
HETATM   32  C   UNK N   1      30.433  16.900   7.759  0.00  0.00     0.001 A 
HETATM   33  C   UNK N   1      29.538  17.543   6.898  0.00  0.00     0.014 A 
ENDBRANCH   5  28
TORSDOF 5
ENDMDL
