MODEL 1
REMARK VINA RESULT:      -8.4      0.000      0.000
REMARK  2 active torsions:
REMARK  status: ('A' for Active; 'I' for Inactive)
REMARK    1  A    between atoms: C_9  and  C_17 
REMARK    2  A    between atoms: C_19  and  O_27 
ROOT
HETATM    1  C   UNK N   1      28.474  25.255  -6.928  0.00  0.00    -0.032 C 
HETATM    2  C   UNK N   1      29.138  24.077  -6.088  0.00  0.00    -0.032 C 
HETATM    3  C   UNK N   1      31.344  23.521  -4.710  0.00  0.00    -0.035 C 
HETATM    4  C   UNK N   1      28.356  26.600  -6.094  0.00  0.00    -0.000 C 
HETATM    5  C   UNK N   1      30.425  24.605  -5.386  0.00  0.00     0.003 C 
HETATM    6  C   UNK N   1      31.176  22.128  -5.389  0.00  0.00     0.004 C 
HETATM    7  C   UNK N   1      26.936  27.185  -5.795  0.00  0.00     0.006 C 
HETATM    8  C   UNK N   1      32.331  21.142  -5.021  0.00  0.00    -0.017 C 
HETATM    9  C   UNK N   1      26.568  27.763  -4.436  0.00  0.00     0.018 C 
HETATM   10  C   UNK N   1      25.787  26.229  -6.032  0.00  0.00    -0.039 C 
HETATM   11  C   UNK N   1      29.477  22.906  -7.062  0.00  0.00     0.011 C 
HETATM   12  C   UNK N   1      27.132  24.768  -7.559  0.00  0.00     0.011 C 
HETATM   13  C   UNK N   1      29.497  26.940  -5.130  0.00  0.00     0.006 C 
HETATM   14  C   UNK N   1      31.071  23.269  -3.199  0.00  0.00     0.012 C 
HETATM   15  C   UNK N   1      30.090  25.742  -4.410  0.00  0.00     0.006 C 
HETATM   16  C   UNK N   1      30.852  22.233  -6.873  0.00  0.00     0.007 C 
HETATM   17  C   UNK N   1      25.061  28.031  -4.586  0.00  0.00     0.010 C 
HETATM   18  C   UNK N   1      32.810  21.431  -3.577  0.00  0.00     0.126 C 
HETATM   19  C   UNK N   1      25.907  25.699  -7.452  0.00  0.00     0.010 C 
HETATM   20  C   UNK N   1      24.592  27.131  -5.751  0.00  0.00     0.010 C 
HETATM   21  C   UNK N   1      31.722  21.968  -2.640  0.00  0.00     0.033 C 
HETATM   22  C   UNK N   1      29.386  25.538  -8.138  0.00  0.00     0.016 C 
HETATM   23  C   UNK N   1      28.194  23.526  -5.021  0.00  0.00     0.016 C 
HETATM   24  C   UNK N   1      32.775  24.072  -4.823  0.00  0.00     0.016 C 
HETATM   25  C   UNK N   1      33.535  21.314  -5.940  0.00  0.00     0.018 C 
HETATM   26  C   UNK N   1      31.836  19.707  -5.172  0.00  0.00     0.018 C 
HETATM   27  C   UNK N   1      25.700  25.070  -5.036  0.00  0.00     0.015 C 
ENDROOT
BRANCH   9  28
HETATM   28  C   UNK N   1      27.342  28.976  -4.009  0.00  0.00    -0.089 C 
HETATM   29  C   UNK N   1      27.778  29.060  -2.756  0.00  0.00     0.014 C 
HETATM   30  C   UNK N   1      27.616  30.095  -4.959  0.00  0.00     0.043 C 
ENDBRANCH   9  28
BRANCH  18  31
HETATM   31  O   UNK N   1      33.542  20.380  -3.016  0.00  0.00    -0.395 OA
HETATM   32  H   UNK N   1      33.874  20.393  -2.104  0.00  0.00     0.210 HD
ENDBRANCH  18  31
TORSDOF 2
ENDMDL
MODEL 2
REMARK VINA RESULT:      -7.8     12.990     15.961
REMARK  2 active torsions:
REMARK  status: ('A' for Active; 'I' for Inactive)
REMARK    1  A    between atoms: C_9  and  C_17 
REMARK    2  A    between atoms: C_19  and  O_27 
ROOT
HETATM    1  C   UNK N   1      32.379  16.527   5.581  0.00  0.00    -0.032 C 
HETATM    2  C   UNK N   1      33.056  15.259   6.264  0.00  0.00    -0.032 C 
HETATM    3  C   UNK N   1      34.322  14.550   8.493  0.00  0.00    -0.035 C 
HETATM    4  C   UNK N   1      31.249  17.172   6.491  0.00  0.00    -0.000 C 
HETATM    5  C   UNK N   1      33.426  15.600   7.738  0.00  0.00     0.003 C 
HETATM    6  C   UNK N   1      35.192  13.724   7.498  0.00  0.00     0.004 C 
HETATM    7  C   UNK N   1      29.775  17.193   5.969  0.00  0.00     0.006 C 
HETATM    8  C   UNK N   1      36.357  12.966   8.212  0.00  0.00    -0.017 C 
HETATM    9  C   UNK N   1      28.591  16.876   6.871  0.00  0.00     0.018 C 
HETATM   10  C   UNK N   1      29.500  16.283   4.790  0.00  0.00    -0.039 C 
HETATM   11  C   UNK N   1      34.329  14.878   5.446  0.00  0.00     0.011 C 
HETATM   12  C   UNK N   1      31.916  16.170   4.135  0.00  0.00     0.011 C 
HETATM   13  C   UNK N   1      31.481  17.190   8.005  0.00  0.00     0.006 C 
HETATM   14  C   UNK N   1      33.543  13.490   9.325  0.00  0.00     0.012 C 
HETATM   15  C   UNK N   1      32.171  15.953   8.551  0.00  0.00     0.006 C 
HETATM   16  C   UNK N   1      35.588  14.520   6.263  0.00  0.00     0.007 C 
HETATM   17  C   UNK N   1      27.414  16.852   5.881  0.00  0.00     0.010 C 
HETATM   18  C   UNK N   1      35.902  12.548   9.632  0.00  0.00     0.126 C 
HETATM   19  C   UNK N   1      30.506  16.618   3.699  0.00  0.00     0.010 C 
HETATM   20  C   UNK N   1      28.046  16.623   4.490  0.00  0.00     0.010 C 
HETATM   21  C   UNK N   1      34.401  12.265   9.763  0.00  0.00     0.033 C 
HETATM   22  C   UNK N   1      33.476  17.592   5.381  0.00  0.00     0.016 C 
HETATM   23  C   UNK N   1      32.132  14.042   6.264  0.00  0.00     0.016 C 
HETATM   24  C   UNK N   1      35.164  15.370   9.485  0.00  0.00     0.016 C 
HETATM   25  C   UNK N   1      37.589  13.848   8.373  0.00  0.00     0.018 C 
HETATM   26  C   UNK N   1      36.761  11.757   7.374  0.00  0.00     0.018 C 
HETATM   27  C   UNK N   1      29.541  14.787   5.110  0.00  0.00     0.015 C 
ENDROOT
BRANCH   9  28
HETATM   28  C   UNK N   1      28.374  17.816   8.021  0.00  0.00    -0.089 C 
HETATM   29  C   UNK N   1      28.307  19.123   7.788  0.00  0.00     0.014 C 
HETATM   30  C   UNK N   1      28.250  17.313   9.421  0.00  0.00     0.043 C 
ENDBRANCH   9  28
BRANCH  18  31
HETATM   31  O   UNK N   1      36.696  11.545  10.196  0.00  0.00    -0.395 OA
HETATM   32  H   UNK N   1      37.192  10.901   9.665  0.00  0.00     0.210 HD
ENDBRANCH  18  31
TORSDOF 2
ENDMDL
MODEL 3
REMARK VINA RESULT:      -7.8     10.740     13.491
REMARK  2 active torsions:
REMARK  status: ('A' for Active; 'I' for Inactive)
REMARK    1  A    between atoms: C_9  and  C_17 
REMARK    2  A    between atoms: C_19  and  O_27 
ROOT
HETATM    1  C   UNK N   1      27.943  15.761   3.697  0.00  0.00    -0.032 C 
HETATM    2  C   UNK N   1      28.891  15.567   4.961  0.00  0.00    -0.032 C 
HETATM    3  C   UNK N   1      31.067  16.607   6.081  0.00  0.00    -0.035 C 
HETATM    4  C   UNK N   1      27.353  17.232   3.605  0.00  0.00    -0.000 C 
HETATM    5  C   UNK N   1      29.897  16.754   5.040  0.00  0.00     0.003 C 
HETATM    6  C   UNK N   1      31.393  15.109   6.365  0.00  0.00     0.004 C 
HETATM    7  C   UNK N   1      25.805  17.435   3.704  0.00  0.00     0.006 C 
HETATM    8  C   UNK N   1      32.774  14.922   7.070  0.00  0.00    -0.017 C 
HETATM    9  C   UNK N   1      25.187  18.567   4.513  0.00  0.00     0.018 C 
HETATM   10  C   UNK N   1      25.035  16.242   4.228  0.00  0.00    -0.039 C 
HETATM   11  C   UNK N   1      29.644  14.209   4.809  0.00  0.00     0.011 C 
HETATM   12  C   UNK N   1      26.867  14.632   3.659  0.00  0.00     0.011 C 
HETATM   13  C   UNK N   1      28.263  18.390   4.023  0.00  0.00     0.006 C 
HETATM   14  C   UNK N   1      30.793  17.233   7.479  0.00  0.00     0.012 C 
HETATM   15  C   UNK N   1      29.158  18.089   5.212  0.00  0.00     0.006 C 
HETATM   16  C   UNK N   1      31.147  14.215   5.158  0.00  0.00     0.007 C 
HETATM   17  C   UNK N   1      23.685  18.241   4.448  0.00  0.00     0.010 C 
HETATM   18  C   UNK N   1      33.044  16.134   7.997  0.00  0.00     0.126 C 
HETATM   19  C   UNK N   1      25.407  15.038   3.377  0.00  0.00     0.010 C 
HETATM   20  C   UNK N   1      23.601  16.739   4.098  0.00  0.00     0.010 C 
HETATM   21  C   UNK N   1      31.785  16.776   8.590  0.00  0.00     0.033 C 
HETATM   22  C   UNK N   1      28.793  15.523   2.433  0.00  0.00     0.016 C 
HETATM   23  C   UNK N   1      28.104  15.510   6.269  0.00  0.00     0.016 C 
HETATM   24  C   UNK N   1      32.254  17.371   5.472  0.00  0.00     0.016 C 
HETATM   25  C   UNK N   1      33.917  14.858   6.065  0.00  0.00     0.018 C 
HETATM   26  C   UNK N   1      32.770  13.611   7.849  0.00  0.00     0.018 C 
HETATM   27  C   UNK N   1      25.256  15.935   5.711  0.00  0.00     0.015 C 
ENDROOT
BRANCH   9  28
HETATM   28  C   UNK N   1      25.508  19.956   4.046  0.00  0.00    -0.089 C 
HETATM   29  C   UNK N   1      26.030  20.827   4.905  0.00  0.00     0.014 C 
HETATM   30  C   UNK N   1      25.238  20.384   2.641  0.00  0.00     0.043 C 
ENDBRANCH   9  28
BRANCH  18  31
HETATM   31  O   UNK N   1      34.034  15.889   8.954  0.00  0.00    -0.395 OA
HETATM   32  H   UNK N   1      34.894  15.494   8.738  0.00  0.00     0.210 HD
ENDBRANCH  18  31
TORSDOF 2
ENDMDL
MODEL 4
REMARK VINA RESULT:      -7.5     11.935     14.921
REMARK  2 active torsions:
REMARK  status: ('A' for Active; 'I' for Inactive)
REMARK    1  A    between atoms: C_9  and  C_17 
REMARK    2  A    between atoms: C_19  and  O_27 
ROOT
HETATM    1  C   UNK N   1      27.793  17.926   5.291  0.00  0.00    -0.032 C 
HETATM    2  C   UNK N   1      26.823  16.686   5.058  0.00  0.00    -0.032 C 
HETATM    3  C   UNK N   1      26.592  14.506   3.553  0.00  0.00    -0.035 C 
HETATM    4  C   UNK N   1      29.280  17.477   5.621  0.00  0.00    -0.000 C 
HETATM    5  C   UNK N   1      27.501  15.673   4.089  0.00  0.00     0.003 C 
HETATM    6  C   UNK N   1      25.088  14.912   3.548  0.00  0.00     0.004 C 
HETATM    7  C   UNK N   1      29.894  17.849   7.011  0.00  0.00     0.006 C 
HETATM    8  C   UNK N   1      24.215  13.955   2.674  0.00  0.00    -0.017 C 
HETATM    9  C   UNK N   1      30.733  16.867   7.815  0.00  0.00     0.018 C 
HETATM   10  C   UNK N   1      28.893  18.305   8.051  0.00  0.00    -0.039 C 
HETATM   11  C   UNK N   1      25.481  17.214   4.461  0.00  0.00     0.011 C 
HETATM   12  C   UNK N   1      27.169  18.903   6.335  0.00  0.00     0.011 C 
HETATM   13  C   UNK N   1      29.826  16.244   4.895  0.00  0.00     0.006 C 
HETATM   14  C   UNK N   1      26.652  13.188   4.377  0.00  0.00     0.012 C 
HETATM   15  C   UNK N   1      28.810  15.135   4.685  0.00  0.00     0.006 C 
HETATM   16  C   UNK N   1      24.881  16.399   3.297  0.00  0.00     0.007 C 
HETATM   17  C   UNK N   1      30.943  17.617   9.142  0.00  0.00     0.010 C 
HETATM   18  C   UNK N   1      24.801  12.522   2.742  0.00  0.00     0.126 C 
HETATM   19  C   UNK N   1      28.084  19.445   7.451  0.00  0.00     0.010 C 
HETATM   20  C   UNK N   1      29.817  18.672   9.205  0.00  0.00     0.010 C 
HETATM   21  C   UNK N   1      25.503  12.183   4.062  0.00  0.00     0.033 C 
HETATM   22  C   UNK N   1      27.835  18.740   3.982  0.00  0.00     0.016 C 
HETATM   23  C   UNK N   1      26.489  15.962   6.361  0.00  0.00     0.016 C 
HETATM   24  C   UNK N   1      27.129  14.183   2.149  0.00  0.00     0.016 C 
HETATM   25  C   UNK N   1      24.211  14.373   1.209  0.00  0.00     0.018 C 
HETATM   26  C   UNK N   1      22.772  13.995   3.170  0.00  0.00     0.018 C 
HETATM   27  C   UNK N   1      27.962  17.208   8.572  0.00  0.00     0.015 C 
ENDROOT
BRANCH   9  28
HETATM   28  C   UNK N   1      32.018  16.428   7.176  0.00  0.00    -0.089 C 
HETATM   29  C   UNK N   1      32.344  15.140   7.190  0.00  0.00     0.014 C 
HETATM   30  C   UNK N   1      32.944  17.413   6.542  0.00  0.00     0.043 C 
ENDBRANCH   9  28
BRANCH  18  31
HETATM   31  O   UNK N   1      23.898  11.535   2.336  0.00  0.00    -0.395 OA
HETATM   32  H   UNK N   1      23.223  11.159   2.924  0.00  0.00     0.210 HD
ENDBRANCH  18  31
TORSDOF 2
ENDMDL
MODEL 5
REMARK VINA RESULT:      -7.4     12.986     17.354
REMARK  2 active torsions:
REMARK  status: ('A' for Active; 'I' for Inactive)
REMARK    1  A    between atoms: C_9  and  C_17 
REMARK    2  A    between atoms: C_19  and  O_27 
ROOT
HETATM    1  C   UNK N   1      34.105  16.416   8.056  0.00  0.00    -0.032 C 
HETATM    2  C   UNK N   1      32.575  16.108   7.744  0.00  0.00    -0.032 C 
HETATM    3  C   UNK N   1      30.795  16.306   5.778  0.00  0.00    -0.035 C 
HETATM    4  C   UNK N   1      35.086  15.713   7.026  0.00  0.00    -0.000 C 
HETATM    5  C   UNK N   1      32.303  16.327   6.226  0.00  0.00     0.003 C 
HETATM    6  C   UNK N   1      29.848  16.714   6.946  0.00  0.00     0.004 C 
HETATM    7  C   UNK N   1      36.097  14.641   7.552  0.00  0.00     0.006 C 
HETATM    8  C   UNK N   1      28.413  17.082   6.450  0.00  0.00    -0.017 C 
HETATM    9  C   UNK N   1      36.370  13.347   6.799  0.00  0.00     0.018 C 
HETATM   10  C   UNK N   1      35.811  14.120   8.944  0.00  0.00    -0.039 C 
HETATM   11  C   UNK N   1      31.693  17.061   8.609  0.00  0.00     0.011 C 
HETATM   12  C   UNK N   1      34.415  16.108   9.554  0.00  0.00     0.011 C 
HETATM   13  C   UNK N   1      34.639  15.630   5.563  0.00  0.00     0.006 C 
HETATM   14  C   UNK N   1      30.267  14.925   5.293  0.00  0.00     0.012 C 
HETATM   15  C   UNK N   1      33.154  15.375   5.372  0.00  0.00     0.006 C 
HETATM   16  C   UNK N   1      30.488  17.712   7.900  0.00  0.00     0.007 C 
HETATM   17  C   UNK N   1      37.268  12.574   7.780  0.00  0.00     0.010 C 
HETATM   18  C   UNK N   1      28.061  16.217   5.214  0.00  0.00     0.126 C 
HETATM   19  C   UNK N   1      35.699  15.316   9.875  0.00  0.00     0.010 C 
HETATM   20  C   UNK N   1      37.008  13.205   9.166  0.00  0.00     0.010 C 
HETATM   21  C   UNK N   1      28.714  14.830   5.199  0.00  0.00     0.033 C 
HETATM   22  C   UNK N   1      34.312  17.939   7.927  0.00  0.00     0.016 C 
HETATM   23  C   UNK N   1      32.190  14.675   8.104  0.00  0.00     0.016 C 
HETATM   24  C   UNK N   1      30.712  17.265   4.579  0.00  0.00     0.016 C 
HETATM   25  C   UNK N   1      28.320  18.541   6.022  0.00  0.00     0.018 C 
HETATM   26  C   UNK N   1      27.416  16.869   7.586  0.00  0.00     0.018 C 
HETATM   27  C   UNK N   1      34.564  13.239   9.056  0.00  0.00     0.015 C 
ENDROOT
BRANCH   9  28
HETATM   28  C   UNK N   1      36.981  13.498   5.437  0.00  0.00    -0.089 C 
HETATM   29  C   UNK N   1      38.043  14.283   5.284  0.00  0.00     0.014 C 
HETATM   30  C   UNK N   1      36.408  12.798   4.248  0.00  0.00     0.043 C 
ENDBRANCH   9  28
BRANCH  18  31
HETATM   31  O   UNK N   1      26.690  16.177   4.939  0.00  0.00    -0.395 OA
HETATM   32  H   UNK N   1      26.316  15.697   4.183  0.00  0.00     0.210 HD
ENDBRANCH  18  31
TORSDOF 2
ENDMDL
MODEL 6
REMARK VINA RESULT:      -7.3     10.980     13.981
REMARK  2 active torsions:
REMARK  status: ('A' for Active; 'I' for Inactive)
REMARK    1  A    between atoms: C_9  and  C_17 
REMARK    2  A    between atoms: C_19  and  O_27 
ROOT
HETATM    1  C   UNK N   1      30.316  16.037   3.538  0.00  0.00    -0.032 C 
HETATM    2  C   UNK N   1      30.926  15.429   4.876  0.00  0.00    -0.032 C 
HETATM    3  C   UNK N   1      32.348  16.149   7.005  0.00  0.00    -0.035 C 
HETATM    4  C   UNK N   1      29.368  17.280   3.816  0.00  0.00    -0.000 C 
HETATM    5  C   UNK N   1      31.490  16.581   5.758  0.00  0.00     0.003 C 
HETATM    6  C   UNK N   1      33.010  14.756   6.785  0.00  0.00     0.004 C 
HETATM    7  C   UNK N   1      27.856  17.182   3.428  0.00  0.00     0.006 C 
HETATM    8  C   UNK N   1      34.159  14.474   7.805  0.00  0.00    -0.017 C 
HETATM    9  C   UNK N   1      26.752  17.710   4.333  0.00  0.00     0.018 C 
HETATM   10  C   UNK N   1      27.358  15.782   3.140  0.00  0.00    -0.039 C 
HETATM   11  C   UNK N   1      32.053  14.420   4.491  0.00  0.00     0.011 C 
HETATM   12  C   UNK N   1      29.661  14.905   2.688  0.00  0.00     0.011 C 
HETATM   13  C   UNK N   1      29.767  18.238   4.942  0.00  0.00     0.006 C 
HETATM   14  C   UNK N   1      31.557  16.015   8.339  0.00  0.00     0.012 C 
HETATM   15  C   UNK N   1      30.378  17.563   6.157  0.00  0.00     0.006 C 
HETATM   16  C   UNK N   1      33.349  14.489   5.325  0.00  0.00     0.007 C 
HETATM   17  C   UNK N   1      25.477  17.231   3.618  0.00  0.00     0.010 C 
HETATM   18  C   UNK N   1      33.822  15.151   9.157  0.00  0.00     0.126 C 
HETATM   19  C   UNK N   1      28.267  15.172   2.084  0.00  0.00     0.010 C 
HETATM   20  C   UNK N   1      25.924  16.063   2.712  0.00  0.00     0.010 C 
HETATM   21  C   UNK N   1      32.323  15.253   9.462  0.00  0.00     0.033 C 
HETATM   22  C   UNK N   1      31.491  16.535   2.672  0.00  0.00     0.016 C 
HETATM   23  C   UNK N   1      29.884  14.661   5.688  0.00  0.00     0.016 C 
HETATM   24  C   UNK N   1      33.376  17.275   7.203  0.00  0.00     0.016 C 
HETATM   25  C   UNK N   1      35.488  15.049   7.331  0.00  0.00     0.018 C 
HETATM   26  C   UNK N   1      34.337  12.967   7.961  0.00  0.00     0.018 C 
HETATM   27  C   UNK N   1      27.274  14.865   4.364  0.00  0.00     0.015 C 
ENDROOT
BRANCH   9  28
HETATM   28  C   UNK N   1      26.765  19.190   4.586  0.00  0.00    -0.089 C 
HETATM   29  C   UNK N   1      26.755  20.026   3.552  0.00  0.00     0.014 C 
HETATM   30  C   UNK N   1      26.804  19.739   5.974  0.00  0.00     0.043 C 
ENDBRANCH   9  28
BRANCH  18  31
HETATM   31  O   UNK N   1      34.563  14.645  10.229  0.00  0.00    -0.395 OA
HETATM   32  H   UNK N   1      34.813  13.710  10.307  0.00  0.00     0.210 HD
ENDBRANCH  18  31
TORSDOF 2
ENDMDL
MODEL 7
REMARK VINA RESULT:      -7.1     12.653     15.289
REMARK  2 active torsions:
REMARK  status: ('A' for Active; 'I' for Inactive)
REMARK    1  A    between atoms: C_9  and  C_17 
REMARK    2  A    between atoms: C_19  and  O_27 
ROOT
HETATM    1  C   UNK N   1      26.258  16.704   4.045  0.00  0.00    -0.032 C 
HETATM    2  C   UNK N   1      24.853  16.067   4.438  0.00  0.00    -0.032 C 
HETATM    3  C   UNK N   1      23.826  13.960   5.693  0.00  0.00    -0.035 C 
HETATM    4  C   UNK N   1      27.190  16.936   5.309  0.00  0.00    -0.000 C 
HETATM    5  C   UNK N   1      25.081  14.861   5.396  0.00  0.00     0.003 C 
HETATM    6  C   UNK N   1      22.791  14.023   4.530  0.00  0.00     0.004 C 
HETATM    7  C   UNK N   1      27.615  18.395   5.680  0.00  0.00     0.006 C 
HETATM    8  C   UNK N   1      21.742  12.867   4.601  0.00  0.00    -0.017 C 
HETATM    9  C   UNK N   1      27.638  18.891   7.118  0.00  0.00     0.018 C 
HETATM   10  C   UNK N   1      26.815  19.487   5.002  0.00  0.00    -0.039 C 
HETATM   11  C   UNK N   1      24.135  15.610   3.129  0.00  0.00     0.011 C 
HETATM   12  C   UNK N   1      26.040  17.973   3.163  0.00  0.00     0.011 C 
HETATM   13  C   UNK N   1      27.146  15.889   6.426  0.00  0.00     0.006 C 
HETATM   14  C   UNK N   1      23.023  14.344   6.970  0.00  0.00     0.012 C 
HETATM   15  C   UNK N   1      25.767  15.313   6.694  0.00  0.00     0.006 C 
HETATM   16  C   UNK N   1      23.445  14.231   3.172  0.00  0.00     0.007 C 
HETATM   17  C   UNK N   1      27.937  20.391   6.949  0.00  0.00     0.010 C 
HETATM   18  C   UNK N   1      21.467  12.515   6.085  0.00  0.00     0.126 C 
HETATM   19  C   UNK N   1      26.858  19.235   3.503  0.00  0.00     0.010 C 
HETATM   20  C   UNK N   1      27.541  20.732   5.495  0.00  0.00     0.010 C 
HETATM   21  C   UNK N   1      21.609  13.694   7.056  0.00  0.00     0.033 C 
HETATM   22  C   UNK N   1      26.979  15.709   3.114  0.00  0.00     0.016 C 
HETATM   23  C   UNK N   1      23.938  17.073   5.133  0.00  0.00     0.016 C 
HETATM   24  C   UNK N   1      24.383  12.545   5.922  0.00  0.00     0.016 C 
HETATM   25  C   UNK N   1      22.251  11.600   3.923  0.00  0.00     0.018 C 
HETATM   26  C   UNK N   1      20.468  13.296   3.881  0.00  0.00     0.018 C 
HETATM   27  C   UNK N   1      25.366  19.612   5.479  0.00  0.00     0.015 C 
ENDROOT
BRANCH   9  28
HETATM   28  C   UNK N   1      28.603  18.198   8.035  0.00  0.00    -0.089 C 
HETATM   29  C   UNK N   1      28.241  17.944   9.288  0.00  0.00     0.014 C 
HETATM   30  C   UNK N   1      29.966  17.804   7.570  0.00  0.00     0.043 C 
ENDBRANCH   9  28
BRANCH  18  31
HETATM   31  O   UNK N   1      20.285  11.793   6.273  0.00  0.00    -0.395 OA
HETATM   32  H   UNK N   1      19.720  11.502   5.540  0.00  0.00     0.210 HD
ENDBRANCH  18  31
TORSDOF 2
ENDMDL
MODEL 8
REMARK VINA RESULT:      -6.8     20.070     24.862
REMARK  2 active torsions:
REMARK  status: ('A' for Active; 'I' for Inactive)
REMARK    1  A    between atoms: C_9  and  C_17 
REMARK    2  A    between atoms: C_19  and  O_27 
ROOT
HETATM    1  C   UNK N   1      36.389  12.207  14.994  0.00  0.00    -0.032 C 
HETATM    2  C   UNK N   1      35.615  12.252  13.604  0.00  0.00    -0.032 C 
HETATM    3  C   UNK N   1      36.058  12.024  10.992  0.00  0.00    -0.035 C 
HETATM    4  C   UNK N   1      37.192  10.852  15.195  0.00  0.00    -0.000 C 
HETATM    5  C   UNK N   1      36.576  11.808  12.461  0.00  0.00     0.003 C 
HETATM    6  C   UNK N   1      35.022  13.186  10.917  0.00  0.00     0.004 C 
HETATM    7  C   UNK N   1      36.798   9.906  16.377  0.00  0.00     0.006 C 
HETATM    8  C   UNK N   1      34.787  13.683   9.455  0.00  0.00    -0.017 C 
HETATM    9  C   UNK N   1      36.722   8.395  16.214  0.00  0.00     0.018 C 
HETATM   10  C   UNK N   1      35.458  10.203  17.016  0.00  0.00    -0.039 C 
HETATM   11  C   UNK N   1      35.108  13.710  13.368  0.00  0.00     0.011 C 
HETATM   12  C   UNK N   1      35.413  12.557  16.159  0.00  0.00     0.011 C 
HETATM   13  C   UNK N   1      37.859  10.233  13.963  0.00  0.00     0.006 C 
HETATM   14  C   UNK N   1      35.337  10.799  10.357  0.00  0.00     0.012 C 
HETATM   15  C   UNK N   1      37.058  10.366  12.680  0.00  0.00     0.006 C 
HETATM   16  C   UNK N   1      35.288  14.276  11.945  0.00  0.00     0.007 C 
HETATM   17  C   UNK N   1      36.137   7.944  17.563  0.00  0.00     0.010 C 
HETATM   18  C   UNK N   1      34.930  12.488   8.479  0.00  0.00     0.126 C 
HETATM   19  C   UNK N   1      35.449  11.669  17.420  0.00  0.00     0.010 C 
HETATM   20  C   UNK N   1      35.446   9.192  18.155  0.00  0.00     0.010 C 
HETATM   21  C   UNK N   1      34.526  11.132   9.069  0.00  0.00     0.033 C 
HETATM   22  C   UNK N   1      37.416  13.358  14.995  0.00  0.00     0.016 C 
HETATM   23  C   UNK N   1      34.393  11.336  13.595  0.00  0.00     0.016 C 
HETATM   24  C   UNK N   1      37.317  12.290  10.150  0.00  0.00     0.016 C 
HETATM   25  C   UNK N   1      35.815  14.729   9.042  0.00  0.00     0.018 C 
HETATM   26  C   UNK N   1      33.407  14.326   9.356  0.00  0.00     0.018 C 
HETATM   27  C   UNK N   1      34.244   9.885  16.139  0.00  0.00     0.015 C 
ENDROOT
BRANCH   9  28
HETATM   28  C   UNK N   1      38.012   7.708  15.872  0.00  0.00    -0.089 C 
HETATM   29  C   UNK N   1      39.083   7.923  16.629  0.00  0.00     0.014 C 
HETATM   30  C   UNK N   1      38.118   6.801  14.690  0.00  0.00     0.043 C 
ENDBRANCH   9  28
BRANCH  18  31
HETATM   31  O   UNK N   1      34.362  12.727   7.224  0.00  0.00    -0.395 OA
HETATM   32  H   UNK N   1      33.427  12.560   7.025  0.00  0.00     0.210 HD
ENDBRANCH  18  31
TORSDOF 2
ENDMDL
MODEL 9
REMARK VINA RESULT:      -6.8     13.189     18.289
REMARK  2 active torsions:
REMARK  status: ('A' for Active; 'I' for Inactive)
REMARK    1  A    between atoms: C_9  and  C_17 
REMARK    2  A    between atoms: C_19  and  O_27 
ROOT
HETATM    1  C   UNK N   1      34.349  15.656   9.072  0.00  0.00    -0.032 C 
HETATM    2  C   UNK N   1      33.065  15.342   8.186  0.00  0.00    -0.032 C 
HETATM    3  C   UNK N   1      32.178  15.575   5.690  0.00  0.00    -0.035 C 
HETATM    4  C   UNK N   1      35.665  14.987   8.486  0.00  0.00    -0.000 C 
HETATM    5  C   UNK N   1      33.396  15.597   6.686  0.00  0.00     0.003 C 
HETATM    6  C   UNK N   1      30.846  15.944   6.409  0.00  0.00     0.004 C 
HETATM    7  C   UNK N   1      36.413  13.911   9.341  0.00  0.00     0.006 C 
HETATM    8  C   UNK N   1      29.707  16.312   5.405  0.00  0.00    -0.017 C 
HETATM    9  C   UNK N   1      36.978  12.639   8.726  0.00  0.00     0.018 C 
HETATM   10  C   UNK N   1      35.621  13.352  10.503  0.00  0.00    -0.039 C 
HETATM   11  C   UNK N   1      31.899  16.265   8.663  0.00  0.00     0.011 C 
HETATM   12  C   UNK N   1      34.063  15.313  10.567  0.00  0.00     0.011 C 
HETATM   13  C   UNK N   1      35.818  14.937   6.963  0.00  0.00     0.006 C 
HETATM   14  C   UNK N   1      31.903  14.201   5.011  0.00  0.00     0.012 C 
HETATM   15  C   UNK N   1      34.527  14.675   6.209  0.00  0.00     0.006 C 
HETATM   16  C   UNK N   1      31.050  16.924   7.556  0.00  0.00     0.007 C 
HETATM   17  C   UNK N   1      37.441  11.849   9.962  0.00  0.00     0.010 C 
HETATM   18  C   UNK N   1      29.875  15.476   4.111  0.00  0.00     0.126 C 
HETATM   19  C   UNK N   1      35.136  14.524  11.343  0.00  0.00     0.010 C 
HETATM   20  C   UNK N   1      36.656  12.443  11.153  0.00  0.00     0.010 C 
HETATM   21  C   UNK N   1      30.509  14.096   4.323  0.00  0.00     0.033 C 
HETATM   22  C   UNK N   1      34.562  17.183   9.063  0.00  0.00     0.016 C 
HETATM   23  C   UNK N   1      32.596  13.897   8.341  0.00  0.00     0.016 C 
HETATM   24  C   UNK N   1      32.547  16.563   4.571  0.00  0.00     0.016 C 
HETATM   25  C   UNK N   1      29.762  17.782   5.003  0.00  0.00     0.018 C 
HETATM   26  C   UNK N   1      28.354  16.062   6.063  0.00  0.00     0.018 C 
HETATM   27  C   UNK N   1      34.443  12.458  10.108  0.00  0.00     0.015 C 
ENDROOT
BRANCH   9  28
HETATM   28  C   UNK N   1      38.065  12.830   7.709  0.00  0.00    -0.089 C 
HETATM   29  C   UNK N   1      38.045  12.109   6.592  0.00  0.00     0.014 C 
HETATM   30  C   UNK N   1      39.176  13.802   7.935  0.00  0.00     0.043 C 
ENDBRANCH   9  28
BRANCH  18  31
HETATM   31  O   UNK N   1      28.718  15.431   3.327  0.00  0.00    -0.395 OA
HETATM   32  H   UNK N   1      28.734  15.285   2.368  0.00  0.00     0.210 HD
ENDBRANCH  18  31
TORSDOF 2
ENDMDL
