REMARK  2 active torsions:
REMARK  status: ('A' for Active; 'I' for Inactive)
REMARK    1  A    between atoms: C_9  and  C_17 
REMARK    2  A    between atoms: C_19  and  O_27 
ROOT
HETATM    1  C   UNK N   1      10.339 -13.930   0.801  0.00  0.00    -0.032 C 
HETATM    2  C   UNK N   1       9.050 -14.561   0.113  0.00  0.00    -0.032 C 
HETATM    3  C   UNK N   1       6.421 -14.763   0.460  0.00  0.00    -0.035 C 
HETATM    4  C   UNK N   1      10.196 -12.366   1.032  0.00  0.00    -0.000 C 
HETATM    5  C   UNK N   1       7.772 -14.055   0.846  0.00  0.00     0.003 C 
HETATM    6  C   UNK N   1       6.665 -16.211  -0.061  0.00  0.00     0.004 C 
HETATM    7  C   UNK N   1      11.184 -11.398   0.301  0.00  0.00     0.006 C 
HETATM    8  C   UNK N   1       5.358 -17.067  -0.079  0.00  0.00    -0.017 C 
HETATM    9  C   UNK N   1      10.719 -10.097  -0.337  0.00  0.00     0.018 C 
HETATM   10  C   UNK N   1      11.968 -12.021  -0.834  0.00  0.00    -0.039 C 
HETATM   11  C   UNK N   1       9.158 -16.116   0.194  0.00  0.00     0.011 C 
HETATM   12  C   UNK N   1      11.621 -14.351   0.018  0.00  0.00     0.011 C 
HETATM   13  C   UNK N   1       8.817 -11.830   1.428  0.00  0.00     0.006 C 
HETATM   14  C   UNK N   1       5.603 -14.062  -0.663  0.00  0.00     0.012 C 
HETATM   15  C   UNK N   1       7.652 -12.527   0.748  0.00  0.00     0.006 C 
HETATM   16  C   UNK N   1       7.873 -16.873   0.587  0.00  0.00     0.007 C 
HETATM   17  C   UNK N   1      11.986  -9.610  -1.061  0.00  0.00     0.010 C 
HETATM   18  C   UNK N   1       4.149 -16.149  -0.388  0.00  0.00     0.126 C 
HETATM   19  C   UNK N   1      12.665 -13.260  -0.294  0.00  0.00     0.010 C 
HETATM   20  C   UNK N   1      12.872 -10.863  -1.236  0.00  0.00     0.010 C 
HETATM   21  C   UNK N   1       4.475 -14.944  -1.278  0.00  0.00     0.033 C 
HETATM   22  C   UNK N   1      10.501 -14.590   2.185  0.00  0.00     0.016 C 
HETATM   23  C   UNK N   1       8.943 -14.187  -1.364  0.00  0.00     0.016 C 
HETATM   24  C   UNK N   1       5.561 -14.723   1.734  0.00  0.00     0.016 C 
HETATM   25  C   UNK N   1       5.094 -17.723   1.271  0.00  0.00     0.018 C 
HETATM   26  C   UNK N   1       5.497 -18.179  -1.114  0.00  0.00     0.018 C 
HETATM   27  C   UNK N   1      11.138 -12.374  -2.071  0.00  0.00     0.015 C 
ENDROOT
BRANCH   9  28
HETATM   28  C   UNK N   1      10.148  -9.075   0.602  0.00  0.00    -0.089 C 
HETATM   29  C   UNK N   1       8.916  -8.620   0.397  0.00  0.00     0.014 C 
HETATM   30  C   UNK N   1      10.943  -8.548   1.751  0.00  0.00     0.043 C 
ENDBRANCH   9  28
BRANCH  18  31
HETATM   31  O   UNK N   1       3.016 -16.850  -0.813  0.00  0.00    -0.395 OA
HETATM   32  H   UNK N   1       2.202 -16.412  -1.108  0.00  0.00     0.210 HD
ENDBRANCH  18  31
TORSDOF 2
