MODEL 1
REMARK VINA RESULT:      -6.6      0.000      0.000
REMARK  2 active torsions:
REMARK  status: ('A' for Active; 'I' for Inactive)
REMARK    1  A    between atoms: S_2  and  N_4 
REMARK    2  A    between atoms: S_2  and  C_11 
ROOT
HETATM    1  C   UNK N   1      21.420  13.584   9.466  0.00  0.00     0.086 A 
HETATM    2  C   UNK N   1      20.276  13.194  10.172  0.00  0.00     0.026 A 
HETATM    3  C   UNK N   1      20.372  12.412  11.325  0.00  0.00     0.002 A 
HETATM    4  C   UNK N   1      21.623  12.019  11.798  0.00  0.00     0.014 A 
HETATM    5  C   UNK N   1      22.775  12.396  11.112  0.00  0.00    -0.009 A 
HETATM    6  C   UNK N   1      22.690  13.181   9.934  0.00  0.00    -0.000 A 
HETATM    7  C   UNK N   1      23.867  13.552   9.282  0.00  0.00     0.031 A 
HETATM    8  C   UNK N   1      24.030  12.014  11.591  0.00  0.00     0.100 A 
HETATM    9  N   UNK N   1      25.155  12.385  10.930  0.00  0.00    -0.374 N 
ATOM     10  HN  UNK N   1      26.064  12.096  11.292  1.00  0.00     0.164 HD
HETATM   11  C   UNK N   1      25.100  13.137   9.795  0.00  0.00     0.088 A 
ENDROOT
BRANCH   1  12
HETATM   12  S   UNK N   1      21.179  14.711   8.072  0.00  0.00     0.244 S 
HETATM   13  O   UNK N   1      19.745  14.696   7.514  0.00  0.00    -0.206 OA
HETATM   14  O   UNK N   1      20.969  15.960   8.932  0.00  0.00    -0.206 OA
BRANCH  12  15
HETATM   15  N   UNK N   1      22.242  15.524   6.895  0.00  0.00    -0.205 NA
HETATM   16  C   UNK N   1      21.469  16.556   6.206  0.00  0.00     0.127 C 
HETATM   17  C   UNK N   1      22.368  17.717   5.802  0.00  0.00     0.129 C 
HETATM   18  N   UNK N   1      23.304  17.302   4.765  0.00  0.00    -0.420 N 
HETATM   19  C   UNK N   1      24.381  16.567   5.416  0.00  0.00     0.115 C 
HETATM   20  H   UNK N   1      23.221  17.491   3.767  0.00  0.00     0.153 HD
HETATM   21  C   UNK N   1      24.126  15.053   5.370  0.00  0.00     0.035 C 
HETATM   22  C   UNK N   1      22.745  14.605   5.884  0.00  0.00     0.109 C 
ENDBRANCH  12  15
ENDBRANCH   1  12
TORSDOF 2
ENDMDL
MODEL 2
REMARK VINA RESULT:      -6.5      9.457     12.125
REMARK  2 active torsions:
REMARK  status: ('A' for Active; 'I' for Inactive)
REMARK    1  A    between atoms: S_2  and  N_4 
REMARK    2  A    between atoms: S_2  and  C_11 
ROOT
HETATM    1  C   UNK N   1      32.645  16.703   6.048  0.00  0.00     0.086 A 
HETATM    2  C   UNK N   1      32.693  16.812   4.653  0.00  0.00     0.026 A 
HETATM    3  C   UNK N   1      31.571  17.205   3.921  0.00  0.00     0.002 A 
HETATM    4  C   UNK N   1      30.381  17.508   4.580  0.00  0.00     0.014 A 
HETATM    5  C   UNK N   1      30.309  17.407   5.967  0.00  0.00    -0.009 A 
HETATM    6  C   UNK N   1      31.439  17.000   6.721  0.00  0.00    -0.000 A 
HETATM    7  C   UNK N   1      31.333  16.924   8.110  0.00  0.00     0.031 A 
HETATM    8  C   UNK N   1      29.121  17.723   6.630  0.00  0.00     0.100 A 
HETATM    9  N   UNK N   1      29.049  17.632   7.982  0.00  0.00    -0.374 N 
ATOM     10  HN  UNK N   1      28.173  17.864   8.451  1.00  0.00     0.164 HD
HETATM   11  C   UNK N   1      30.119  17.241   8.728  0.00  0.00     0.088 A 
ENDROOT
BRANCH   1  12
HETATM   12  S   UNK N   1      34.196  16.325   6.896  0.00  0.00     0.244 S 
HETATM   13  O   UNK N   1      35.351  15.988   5.936  0.00  0.00    -0.206 OA
HETATM   14  O   UNK N   1      34.614  17.785   7.090  0.00  0.00    -0.206 OA
BRANCH  12  15
HETATM   15  N   UNK N   1      34.656  15.823   8.543  0.00  0.00    -0.205 NA
HETATM   16  C   UNK N   1      33.780  14.729   8.957  0.00  0.00     0.127 C 
HETATM   17  C   UNK N   1      34.510  13.792   9.911  0.00  0.00     0.129 C 
HETATM   18  N   UNK N   1      34.777  14.458  11.179  0.00  0.00    -0.420 N 
HETATM   19  C   UNK N   1      35.934  15.321  10.985  0.00  0.00     0.115 C 
HETATM   20  H   UNK N   1      34.250  14.342  12.043  0.00  0.00     0.153 HD
HETATM   21  C   UNK N   1      35.506  16.761  10.663  0.00  0.00     0.035 C 
HETATM   22  C   UNK N   1      34.497  16.901   9.508  0.00  0.00     0.109 C 
ENDBRANCH  12  15
ENDBRANCH   1  12
TORSDOF 2
ENDMDL
MODEL 3
REMARK VINA RESULT:      -6.5     14.630     15.878
REMARK  2 active torsions:
REMARK  status: ('A' for Active; 'I' for Inactive)
REMARK    1  A    between atoms: S_2  and  N_4 
REMARK    2  A    between atoms: S_2  and  C_11 
ROOT
HETATM    1  C   UNK N   1      35.295  11.558  17.156  0.00  0.00     0.086 A 
HETATM    2  C   UNK N   1      35.010  12.599  18.048  0.00  0.00     0.026 A 
HETATM    3  C   UNK N   1      35.367  12.513  19.395  0.00  0.00     0.002 A 
HETATM    4  C   UNK N   1      36.030  11.382  19.868  0.00  0.00     0.014 A 
HETATM    5  C   UNK N   1      36.325  10.334  19.000  0.00  0.00    -0.009 A 
HETATM    6  C   UNK N   1      35.959  10.406  17.632  0.00  0.00    -0.000 A 
HETATM    7  C   UNK N   1      36.283   9.343  16.789  0.00  0.00     0.031 A 
HETATM    8  C   UNK N   1      37.000   9.206  19.470  0.00  0.00     0.100 A 
HETATM    9  N   UNK N   1      37.295   8.186  18.625  0.00  0.00    -0.374 N 
ATOM     10  HN  UNK N   1      37.788   7.368  18.985  1.00  0.00     0.164 HD
HETATM   11  C   UNK N   1      36.952   8.230  17.308  0.00  0.00     0.088 A 
ENDROOT
BRANCH   1  12
HETATM   12  S   UNK N   1      34.912  11.844  15.412  0.00  0.00     0.244 S 
HETATM   13  O   UNK N   1      33.719  11.015  14.904  0.00  0.00    -0.206 OA
HETATM   14  O   UNK N   1      34.092  13.115  15.652  0.00  0.00    -0.206 OA
BRANCH  12  15
HETATM   15  N   UNK N   1      35.791  12.503  14.008  0.00  0.00    -0.205 NA
HETATM   16  C   UNK N   1      37.074  11.812  13.897  0.00  0.00     0.127 C 
HETATM   17  C   UNK N   1      37.513  11.730  12.441  0.00  0.00     0.129 C 
HETATM   18  N   UNK N   1      37.841  13.055  11.931  0.00  0.00    -0.420 N 
HETATM   19  C   UNK N   1      36.587  13.727  11.617  0.00  0.00     0.115 C 
HETATM   20  H   UNK N   1      38.777  13.441  11.815  0.00  0.00     0.153 HD
HETATM   21  C   UNK N   1      36.129  14.618  12.781  0.00  0.00     0.035 C 
HETATM   22  C   UNK N   1      36.070  13.924  14.155  0.00  0.00     0.109 C 
ENDBRANCH  12  15
ENDBRANCH   1  12
TORSDOF 2
ENDMDL
MODEL 4
REMARK VINA RESULT:      -6.4      9.696     12.389
REMARK  2 active torsions:
REMARK  status: ('A' for Active; 'I' for Inactive)
REMARK    1  A    between atoms: S_2  and  N_4 
REMARK    2  A    between atoms: S_2  and  C_11 
ROOT
HETATM    1  C   UNK N   1      32.231  17.252   7.075  0.00  0.00     0.086 A 
HETATM    2  C   UNK N   1      31.147  17.227   7.962  0.00  0.00     0.026 A 
HETATM    3  C   UNK N   1      29.836  17.120   7.494  0.00  0.00     0.002 A 
HETATM    4  C   UNK N   1      29.590  17.023   6.125  0.00  0.00     0.014 A 
HETATM    5  C   UNK N   1      30.653  17.046   5.225  0.00  0.00    -0.009 A 
HETATM    6  C   UNK N   1      31.988  17.163   5.687  0.00  0.00    -0.000 A 
HETATM    7  C   UNK N   1      33.027  17.167   4.757  0.00  0.00     0.031 A 
HETATM    8  C   UNK N   1      30.409  16.935   3.855  0.00  0.00     0.100 A 
HETATM    9  N   UNK N   1      31.443  16.950   2.975  0.00  0.00    -0.374 N 
ATOM     10  HN  UNK N   1      31.248  16.870   1.976  1.00  0.00     0.164 HD
HETATM   11  C   UNK N   1      32.734  17.064   3.393  0.00  0.00     0.088 A 
ENDROOT
BRANCH   1  12
HETATM   12  S   UNK N   1      33.886  17.250   7.804  0.00  0.00     0.244 S 
HETATM   13  O   UNK N   1      34.783  18.389   7.287  0.00  0.00    -0.206 OA
HETATM   14  O   UNK N   1      33.479  17.980   9.087  0.00  0.00    -0.206 OA
BRANCH  12  15
HETATM   15  N   UNK N   1      34.907  16.051   8.639  0.00  0.00    -0.205 NA
HETATM   16  C   UNK N   1      34.455  14.713   8.262  0.00  0.00     0.127 C 
HETATM   17  C   UNK N   1      35.620  13.732   8.275  0.00  0.00     0.129 C 
HETATM   18  N   UNK N   1      36.091  13.516   9.637  0.00  0.00    -0.420 N 
HETATM   19  C   UNK N   1      36.921  14.657  10.000  0.00  0.00     0.115 C 
HETATM   20  H   UNK N   1      35.879  12.713  10.228  0.00  0.00     0.153 HD
HETATM   21  C   UNK N   1      36.109  15.711  10.768  0.00  0.00     0.035 C 
HETATM   22  C   UNK N   1      34.802  16.156  10.087  0.00  0.00     0.109 C 
ENDBRANCH  12  15
ENDBRANCH   1  12
TORSDOF 2
ENDMDL
MODEL 5
REMARK VINA RESULT:      -6.4     14.421     15.295
REMARK  2 active torsions:
REMARK  status: ('A' for Active; 'I' for Inactive)
REMARK    1  A    between atoms: S_2  and  N_4 
REMARK    2  A    between atoms: S_2  and  C_11 
ROOT
HETATM    1  C   UNK N   1      35.186  10.796  16.314  0.00  0.00     0.086 A 
HETATM    2  C   UNK N   1      35.189   9.438  16.655  0.00  0.00     0.026 A 
HETATM    3  C   UNK N   1      35.258   9.028  17.988  0.00  0.00     0.002 A 
HETATM    4  C   UNK N   1      35.314   9.979  19.006  0.00  0.00     0.014 A 
HETATM    5  C   UNK N   1      35.313  11.336  18.691  0.00  0.00    -0.009 A 
HETATM    6  C   UNK N   1      35.252  11.763  17.341  0.00  0.00    -0.000 A 
HETATM    7  C   UNK N   1      35.239  13.131  17.065  0.00  0.00     0.031 A 
HETATM    8  C   UNK N   1      35.356  12.288  19.711  0.00  0.00     0.100 A 
HETATM    9  N   UNK N   1      35.348  13.611  19.409  0.00  0.00    -0.374 N 
ATOM     10  HN  UNK N   1      35.382  14.296  20.165  1.00  0.00     0.164 HD
HETATM   11  C   UNK N   1      35.293  14.048  18.120  0.00  0.00     0.088 A 
ENDROOT
BRANCH   1  12
HETATM   12  S   UNK N   1      34.950  11.204  14.569  0.00  0.00     0.244 S 
HETATM   13  O   UNK N   1      34.081  10.182  13.814  0.00  0.00    -0.206 OA
HETATM   14  O   UNK N   1      33.806  12.194  14.806  0.00  0.00    -0.206 OA
BRANCH  12  15
HETATM   15  N   UNK N   1      35.787  12.234  13.379  0.00  0.00    -0.205 NA
HETATM   16  C   UNK N   1      37.116  11.677  13.135  0.00  0.00     0.127 C 
HETATM   17  C   UNK N   1      37.567  11.972  11.711  0.00  0.00     0.129 C 
HETATM   18  N   UNK N   1      37.803  13.399  11.534  0.00  0.00    -0.420 N 
HETATM   19  C   UNK N   1      36.506  14.040  11.361  0.00  0.00     0.115 C 
HETATM   20  H   UNK N   1      38.710  13.864  11.532  0.00  0.00     0.153 HD
HETATM   21  C   UNK N   1      35.980  14.597  12.692  0.00  0.00     0.035 C 
HETATM   22  C   UNK N   1      35.964  13.595  13.862  0.00  0.00     0.109 C 
ENDBRANCH  12  15
ENDBRANCH   1  12
TORSDOF 2
ENDMDL
MODEL 6
REMARK VINA RESULT:      -6.3     12.107     13.396
REMARK  2 active torsions:
REMARK  status: ('A' for Active; 'I' for Inactive)
REMARK    1  A    between atoms: S_2  and  N_4 
REMARK    2  A    between atoms: S_2  and  C_11 
ROOT
HETATM    1  C   UNK N   1      35.146  12.167  12.794  0.00  0.00     0.086 A 
HETATM    2  C   UNK N   1      34.296  11.059  12.682  0.00  0.00     0.026 A 
HETATM    3  C   UNK N   1      33.768  10.437  13.816  0.00  0.00     0.002 A 
HETATM    4  C   UNK N   1      34.075  10.926  15.085  0.00  0.00     0.014 A 
HETATM    5  C   UNK N   1      34.918  12.027  15.221  0.00  0.00    -0.009 A 
HETATM    6  C   UNK N   1      35.468  12.660  14.078  0.00  0.00    -0.000 A 
HETATM    7  C   UNK N   1      36.297  13.769  14.253  0.00  0.00     0.031 A 
HETATM    8  C   UNK N   1      35.216  12.525  16.490  0.00  0.00     0.100 A 
HETATM    9  N   UNK N   1      36.031  13.601  16.627  0.00  0.00    -0.374 N 
ATOM     10  HN  UNK N   1      36.241  13.952  17.562  1.00  0.00     0.164 HD
HETATM   11  C   UNK N   1      36.574  14.226  15.545  0.00  0.00     0.088 A 
ENDROOT
BRANCH   1  12
HETATM   12  S   UNK N   1      35.651  12.971  11.256  0.00  0.00     0.244 S 
HETATM   13  O   UNK N   1      37.058  12.560  10.785  0.00  0.00    -0.206 OA
HETATM   14  O   UNK N   1      34.917  11.993  10.335  0.00  0.00    -0.206 OA
BRANCH  12  15
HETATM   15  N   UNK N   1      35.147  14.424  10.355  0.00  0.00    -0.205 NA
HETATM   16  C   UNK N   1      35.037  15.538  11.295  0.00  0.00     0.127 C 
HETATM   17  C   UNK N   1      35.359  16.856  10.601  0.00  0.00     0.129 C 
HETATM   18  N   UNK N   1      34.329  17.185   9.625  0.00  0.00    -0.420 N 
HETATM   19  C   UNK N   1      34.582  16.384   8.435  0.00  0.00     0.115 C 
HETATM   20  H   UNK N   1      33.570  17.853   9.751  0.00  0.00     0.153 HD
HETATM   21  C   UNK N   1      33.741  15.098   8.442  0.00  0.00     0.035 C 
HETATM   22  C   UNK N   1      33.846  14.253   9.725  0.00  0.00     0.109 C 
ENDBRANCH  12  15
ENDBRANCH   1  12
TORSDOF 2
ENDMDL
MODEL 7
REMARK VINA RESULT:      -6.3      8.242     10.488
REMARK  2 active torsions:
REMARK  status: ('A' for Active; 'I' for Inactive)
REMARK    1  A    between atoms: S_2  and  N_4 
REMARK    2  A    between atoms: S_2  and  C_11 
ROOT
HETATM    1  C   UNK N   1      29.978  16.615   5.679  0.00  0.00     0.086 A 
HETATM    2  C   UNK N   1      29.816  16.434   4.299  0.00  0.00     0.026 A 
HETATM    3  C   UNK N   1      28.855  17.154   3.586  0.00  0.00     0.002 A 
HETATM    4  C   UNK N   1      28.047  18.079   4.245  0.00  0.00     0.014 A 
HETATM    5  C   UNK N   1      28.190  18.275   5.617  0.00  0.00    -0.009 A 
HETATM    6  C   UNK N   1      29.156  17.543   6.353  0.00  0.00    -0.000 A 
HETATM    7  C   UNK N   1      29.281  17.777   7.723  0.00  0.00     0.031 A 
HETATM    8  C   UNK N   1      27.390  19.210   6.276  0.00  0.00     0.100 A 
HETATM    9  N   UNK N   1      27.532  19.409   7.611  0.00  0.00    -0.374 N 
ATOM     10  HN  UNK N   1      26.938  20.095   8.078  1.00  0.00     0.164 HD
HETATM   11  C   UNK N   1      28.450  18.718   8.341  0.00  0.00     0.088 A 
ENDROOT
BRANCH   1  12
HETATM   12  S   UNK N   1      31.347  15.733   6.466  0.00  0.00     0.244 S 
HETATM   13  O   UNK N   1      31.226  14.202   6.367  0.00  0.00    -0.206 OA
HETATM   14  O   UNK N   1      32.303  15.862   5.276  0.00  0.00    -0.206 OA
BRANCH  12  15
HETATM   15  N   UNK N   1      32.582  16.132   7.687  0.00  0.00    -0.205 NA
HETATM   16  C   UNK N   1      32.186  15.535   8.961  0.00  0.00     0.127 C 
HETATM   17  C   UNK N   1      33.413  15.168   9.784  0.00  0.00     0.129 C 
HETATM   18  N   UNK N   1      34.113  16.370  10.221  0.00  0.00    -0.420 N 
HETATM   19  C   UNK N   1      34.895  16.856   9.093  0.00  0.00     0.115 C 
HETATM   20  H   UNK N   1      34.065  16.792  11.148  0.00  0.00     0.153 HD
HETATM   21  C   UNK N   1      34.135  17.944   8.319  0.00  0.00     0.035 C 
HETATM   22  C   UNK N   1      32.703  17.567   7.895  0.00  0.00     0.109 C 
ENDBRANCH  12  15
ENDBRANCH   1  12
TORSDOF 2
ENDMDL
MODEL 8
REMARK VINA RESULT:      -6.1      2.203      3.233
REMARK  2 active torsions:
REMARK  status: ('A' for Active; 'I' for Inactive)
REMARK    1  A    between atoms: S_2  and  N_4 
REMARK    2  A    between atoms: S_2  and  C_11 
ROOT
HETATM    1  C   UNK N   1      22.382  13.755   8.589  0.00  0.00     0.086 A 
HETATM    2  C   UNK N   1      23.660  13.872   8.027  0.00  0.00     0.026 A 
HETATM    3  C   UNK N   1      24.776  13.311   8.652  0.00  0.00     0.002 A 
HETATM    4  C   UNK N   1      24.626  12.610   9.847  0.00  0.00     0.014 A 
HETATM    5  C   UNK N   1      23.364  12.481  10.424  0.00  0.00    -0.009 A 
HETATM    6  C   UNK N   1      22.225  13.054   9.804  0.00  0.00    -0.000 A 
HETATM    7  C   UNK N   1      20.976  12.891  10.404  0.00  0.00     0.031 A 
HETATM    8  C   UNK N   1      23.211  11.767  11.614  0.00  0.00     0.100 A 
HETATM    9  N   UNK N   1      21.983  11.633  12.176  0.00  0.00    -0.374 N 
ATOM     10  HN  UNK N   1      21.888  11.111  13.047  1.00  0.00     0.164 HD
HETATM   11  C   UNK N   1      20.873  12.177  11.602  0.00  0.00     0.088 A 
ENDROOT
BRANCH   1  12
HETATM   12  S   UNK N   1      20.998  14.399   7.619  0.00  0.00     0.244 S 
HETATM   13  O   UNK N   1      19.721  14.622   8.449  0.00  0.00    -0.206 OA
HETATM   14  O   UNK N   1      21.448  15.862   7.681  0.00  0.00    -0.206 OA
BRANCH  12  15
HETATM   15  N   UNK N   1      20.574  14.453   5.889  0.00  0.00    -0.205 NA
HETATM   16  C   UNK N   1      19.474  15.399   5.710  0.00  0.00     0.127 C 
HETATM   17  C   UNK N   1      19.551  16.057   4.338  0.00  0.00     0.129 C 
HETATM   18  N   UNK N   1      19.283  15.082   3.288  0.00  0.00    -0.420 N 
HETATM   19  C   UNK N   1      20.498  14.303   3.092  0.00  0.00     0.115 C 
HETATM   20  H   UNK N   1      18.405  14.967   2.784  0.00  0.00     0.153 HD
HETATM   21  C   UNK N   1      20.456  12.997   3.899  0.00  0.00     0.035 C 
HETATM   22  C   UNK N   1      20.125  13.161   5.394  0.00  0.00     0.109 C 
ENDBRANCH  12  15
ENDBRANCH   1  12
TORSDOF 2
ENDMDL
MODEL 9
REMARK VINA RESULT:      -6.0      6.897      9.217
REMARK  2 active torsions:
REMARK  status: ('A' for Active; 'I' for Inactive)
REMARK    1  A    between atoms: S_2  and  N_4 
REMARK    2  A    between atoms: S_2  and  C_11 
ROOT
HETATM    1  C   UNK N   1      30.888  17.276   4.998  0.00  0.00     0.086 A 
HETATM    2  C   UNK N   1      31.993  17.367   4.142  0.00  0.00     0.026 A 
HETATM    3  C   UNK N   1      33.290  17.475   4.648  0.00  0.00     0.002 A 
HETATM    4  C   UNK N   1      33.502  17.479   6.026  0.00  0.00     0.014 A 
HETATM    5  C   UNK N   1      32.419  17.390   6.896  0.00  0.00    -0.009 A 
HETATM    6  C   UNK N   1      31.096  17.290   6.395  0.00  0.00    -0.000 A 
HETATM    7  C   UNK N   1      30.037  17.187   7.297  0.00  0.00     0.031 A 
HETATM    8  C   UNK N   1      32.631  17.382   8.276  0.00  0.00     0.100 A 
HETATM    9  N   UNK N   1      31.578  17.287   9.128  0.00  0.00    -0.374 N 
ATOM     10  HN  UNK N   1      31.749  17.285  10.134  1.00  0.00     0.164 HD
HETATM   11  C   UNK N   1      30.298  17.193   8.671  0.00  0.00     0.088 A 
ENDROOT
BRANCH   1  12
HETATM   12  S   UNK N   1      29.276  16.999   4.229  0.00  0.00     0.244 S 
HETATM   13  O   UNK N   1      29.368  16.568   2.754  0.00  0.00    -0.206 OA
HETATM   14  O   UNK N   1      29.103  15.575   4.766  0.00  0.00    -0.206 OA
BRANCH  12  15
HETATM   15  N   UNK N   1      27.598  17.488   4.579  0.00  0.00    -0.205 NA
HETATM   16  C   UNK N   1      27.617  18.836   5.145  0.00  0.00     0.127 C 
HETATM   17  C   UNK N   1      26.343  19.587   4.778  0.00  0.00     0.129 C 
HETATM   18  N   UNK N   1      25.191  18.997   5.448  0.00  0.00    -0.420 N 
HETATM   19  C   UNK N   1      24.817  17.801   4.703  0.00  0.00     0.115 C 
HETATM   20  H   UNK N   1      24.731  19.355   6.284  0.00  0.00     0.153 HD
HETATM   21  C   UNK N   1      25.443  16.543   5.324  0.00  0.00     0.035 C 
HETATM   22  C   UNK N   1      26.964  16.613   5.553  0.00  0.00     0.109 C 
ENDBRANCH  12  15
ENDBRANCH   1  12
TORSDOF 2
ENDMDL
