MODEL 1
REMARK VINA RESULT:      -4.7      0.000      0.000
REMARK  6 active torsions:
REMARK  status: ('A' for Active; 'I' for Inactive)
REMARK    1  A    between atoms: C_1  and  C_2 
REMARK    2  A    between atoms: C_1  and  O_7 
REMARK    3  A    between atoms: C_2  and  O_3 
REMARK    4  A    between atoms: C_2  and  C_4 
REMARK    5  A    between atoms: C_4  and  C_5 
REMARK    6  A    between atoms: C_5  and  O_9 
ROOT
HETATM    1  C   UNK N   1      21.230  20.725   2.354  0.00  0.00     0.225 C 
ENDROOT
BRANCH   1   2
HETATM    2  C   UNK N   1      20.836  21.106   0.961  0.00  0.00     0.170 C 
HETATM    3  O   UNK N   1      20.949  20.304   0.051  0.00  0.00    -0.648 OA
BRANCH   2   4
HETATM    4  O   UNK N   1      20.355  22.339   0.708  0.00  0.00    -0.774 OA
HETATM    5  H   UNK N   1      19.608  22.446   0.151  0.00  0.00     0.167 HD
ENDBRANCH   2   4
ENDBRANCH   1   2
BRANCH   1   6
HETATM    6  O   UNK N   1      22.497  21.103   2.803  0.00  0.00    -0.384 OA
HETATM    7  H   UNK N   1      22.649  22.006   3.125  0.00  0.00     0.210 HD
ENDBRANCH   1   6
BRANCH   1   8
HETATM    8  C   UNK N   1      20.266  19.943   3.256  0.00  0.00     0.152 C 
BRANCH   8   9
HETATM    9  C   UNK N   1      19.585  18.734   2.674  0.00  0.00     0.142 C 
HETATM   10  O   UNK N   1      20.191  17.694   2.472  0.00  0.00    -0.650 OA
BRANCH   9  11
HETATM   11  O   UNK N   1      18.276  18.807   2.371  0.00  0.00    -0.776 OA
HETATM   12  H   UNK N   1      17.676  19.190   2.979  0.00  0.00     0.167 HD
ENDBRANCH   9  11
ENDBRANCH   8   9
ENDBRANCH   1   8
TORSDOF 6
ENDMDL
MODEL 2
REMARK VINA RESULT:      -4.7     15.145     16.653
REMARK  6 active torsions:
REMARK  status: ('A' for Active; 'I' for Inactive)
REMARK    1  A    between atoms: C_1  and  C_2 
REMARK    2  A    between atoms: C_1  and  O_7 
REMARK    3  A    between atoms: C_2  and  O_3 
REMARK    4  A    between atoms: C_2  and  C_4 
REMARK    5  A    between atoms: C_4  and  C_5 
REMARK    6  A    between atoms: C_5  and  O_9 
ROOT
HETATM    1  C   UNK N   1      34.677  16.568   9.951  0.00  0.00     0.225 C 
ENDROOT
BRANCH   1   2
HETATM    2  C   UNK N   1      34.356  15.167  10.370  0.00  0.00     0.170 C 
HETATM    3  O   UNK N   1      35.016  14.235   9.947  0.00  0.00    -0.648 OA
BRANCH   2   4
HETATM    4  O   UNK N   1      33.336  14.932  11.219  0.00  0.00    -0.774 OA
HETATM    5  H   UNK N   1      32.937  14.085  11.250  0.00  0.00     0.167 HD
ENDBRANCH   2   4
ENDBRANCH   1   2
BRANCH   1   6
HETATM    6  O   UNK N   1      35.764  17.201  10.557  0.00  0.00    -0.384 OA
HETATM    7  H   UNK N   1      36.339  16.706  11.161  0.00  0.00     0.210 HD
ENDBRANCH   1   6
BRANCH   1   8
HETATM    8  C   UNK N   1      33.831  17.281   8.887  0.00  0.00     0.152 C 
BRANCH   8   9
HETATM    9  C   UNK N   1      34.524  18.264   7.982  0.00  0.00     0.142 C 
HETATM   10  O   UNK N   1      35.213  19.167   8.427  0.00  0.00    -0.650 OA
BRANCH   9  11
HETATM   11  O   UNK N   1      34.376  18.139   6.651  0.00  0.00    -0.776 OA
HETATM   12  H   UNK N   1      33.982  17.367   6.295  0.00  0.00     0.167 HD
ENDBRANCH   9  11
ENDBRANCH   8   9
ENDBRANCH   1   8
TORSDOF 6
ENDMDL
MODEL 3
REMARK VINA RESULT:      -4.7      1.714      2.628
REMARK  6 active torsions:
REMARK  status: ('A' for Active; 'I' for Inactive)
REMARK    1  A    between atoms: C_1  and  C_2 
REMARK    2  A    between atoms: C_1  and  O_7 
REMARK    3  A    between atoms: C_2  and  O_3 
REMARK    4  A    between atoms: C_2  and  C_4 
REMARK    5  A    between atoms: C_4  and  C_5 
REMARK    6  A    between atoms: C_5  and  O_9 
ROOT
HETATM    1  C   UNK N   1      20.597  19.704   1.746  0.00  0.00     0.225 C 
ENDROOT
BRANCH   1   2
HETATM    2  C   UNK N   1      20.925  20.670   2.842  0.00  0.00     0.170 C 
HETATM    3  O   UNK N   1      20.441  20.527   3.951  0.00  0.00    -0.648 OA
BRANCH   2   4
HETATM    4  O   UNK N   1      21.757  21.703   2.605  0.00  0.00    -0.774 OA
HETATM    5  H   UNK N   1      21.967  21.944   1.724  0.00  0.00     0.167 HD
ENDBRANCH   2   4
ENDBRANCH   1   2
BRANCH   1   6
HETATM    6  O   UNK N   1      20.822  20.106   0.429  0.00  0.00    -0.384 OA
HETATM    7  H   UNK N   1      20.435  19.603  -0.305  0.00  0.00     0.210 HD
ENDBRANCH   1   6
BRANCH   1   8
HETATM    8  C   UNK N   1      20.031  18.315   2.070  0.00  0.00     0.152 C 
BRANCH   8   9
HETATM    9  C   UNK N   1      20.277  17.208   1.081  0.00  0.00     0.142 C 
HETATM   10  O   UNK N   1      20.499  16.064   1.443  0.00  0.00    -0.650 OA
BRANCH   9  11
HETATM   11  O   UNK N   1      20.249  17.493  -0.234  0.00  0.00    -0.776 OA
HETATM   12  H   UNK N   1      19.435  17.491  -0.696  0.00  0.00     0.167 HD
ENDBRANCH   9  11
ENDBRANCH   8   9
ENDBRANCH   1   8
TORSDOF 6
ENDMDL
MODEL 4
REMARK VINA RESULT:      -4.6      1.416      3.760
REMARK  6 active torsions:
REMARK  status: ('A' for Active; 'I' for Inactive)
REMARK    1  A    between atoms: C_1  and  C_2 
REMARK    2  A    between atoms: C_1  and  O_7 
REMARK    3  A    between atoms: C_2  and  O_3 
REMARK    4  A    between atoms: C_2  and  C_4 
REMARK    5  A    between atoms: C_4  and  C_5 
REMARK    6  A    between atoms: C_5  and  O_9 
ROOT
HETATM    1  C   UNK N   1      19.754  18.436   2.119  0.00  0.00     0.225 C 
ENDROOT
BRANCH   1   2
HETATM    2  C   UNK N   1      20.071  17.347   1.142  0.00  0.00     0.170 C 
HETATM    3  O   UNK N   1      20.095  16.184   1.507  0.00  0.00    -0.648 OA
BRANCH   2   4
HETATM    4  O   UNK N   1      20.332  17.648  -0.145  0.00  0.00    -0.774 OA
HETATM    5  H   UNK N   1      21.208  17.844  -0.413  0.00  0.00     0.167 HD
ENDBRANCH   2   4
ENDBRANCH   1   2
BRANCH   1   6
HETATM    6  O   UNK N   1      18.418  18.629   2.475  0.00  0.00    -0.384 OA
HETATM    7  H   UNK N   1      17.836  17.864   2.608  0.00  0.00     0.210 HD
ENDBRANCH   1   6
BRANCH   1   8
HETATM    8  C   UNK N   1      20.869  19.310   2.708  0.00  0.00     0.152 C 
BRANCH   8   9
HETATM    9  C   UNK N   1      21.282  20.535   1.938  0.00  0.00     0.142 C 
HETATM   10  O   UNK N   1      21.297  20.550   0.719  0.00  0.00    -0.650 OA
BRANCH   9  11
HETATM   11  O   UNK N   1      21.641  21.640   2.618  0.00  0.00    -0.776 OA
HETATM   12  H   UNK N   1      20.991  22.151   3.057  0.00  0.00     0.167 HD
ENDBRANCH   9  11
ENDBRANCH   8   9
ENDBRANCH   1   8
TORSDOF 6
ENDMDL
MODEL 5
REMARK VINA RESULT:      -4.6     17.588     18.874
REMARK  6 active torsions:
REMARK  status: ('A' for Active; 'I' for Inactive)
REMARK    1  A    between atoms: C_1  and  C_2 
REMARK    2  A    between atoms: C_1  and  O_7 
REMARK    3  A    between atoms: C_2  and  O_3 
REMARK    4  A    between atoms: C_2  and  C_4 
REMARK    5  A    between atoms: C_4  and  C_5 
REMARK    6  A    between atoms: C_5  and  O_9 
ROOT
HETATM    1  C   UNK N   1      34.700  15.043  11.339  0.00  0.00     0.225 C 
ENDROOT
BRANCH   1   2
HETATM    2  C   UNK N   1      35.573  16.185  10.920  0.00  0.00     0.170 C 
HETATM    3  O   UNK N   1      35.074  17.232  10.546  0.00  0.00    -0.648 OA
BRANCH   2   4
HETATM    4  O   UNK N   1      36.914  16.060  10.956  0.00  0.00    -0.774 OA
HETATM    5  H   UNK N   1      37.313  15.233  10.770  0.00  0.00     0.167 HD
ENDBRANCH   2   4
ENDBRANCH   1   2
BRANCH   1   6
HETATM    6  O   UNK N   1      33.331  15.137  11.085  0.00  0.00    -0.384 OA
HETATM    7  H   UNK N   1      32.983  15.882  10.570  0.00  0.00     0.210 HD
ENDBRANCH   1   6
BRANCH   1   8
HETATM    8  C   UNK N   1      35.300  13.809  12.025  0.00  0.00     0.152 C 
BRANCH   8   9
HETATM    9  C   UNK N   1      35.700  13.933  13.471  0.00  0.00     0.142 C 
HETATM   10  O   UNK N   1      35.017  13.464  14.366  0.00  0.00    -0.650 OA
BRANCH   9  11
HETATM   11  O   UNK N   1      36.840  14.580  13.777  0.00  0.00    -0.776 OA
HETATM   12  H   UNK N   1      37.655  14.282  13.426  0.00  0.00     0.167 HD
ENDBRANCH   9  11
ENDBRANCH   8   9
ENDBRANCH   1   8
TORSDOF 6
ENDMDL
MODEL 6
REMARK VINA RESULT:      -4.6     10.676     12.291
REMARK  6 active torsions:
REMARK  status: ('A' for Active; 'I' for Inactive)
REMARK    1  A    between atoms: C_1  and  C_2 
REMARK    2  A    between atoms: C_1  and  O_7 
REMARK    3  A    between atoms: C_2  and  O_3 
REMARK    4  A    between atoms: C_2  and  C_4 
REMARK    5  A    between atoms: C_4  and  C_5 
REMARK    6  A    between atoms: C_5  and  O_9 
ROOT
HETATM    1  C   UNK N   1      21.442  12.317  10.972  0.00  0.00     0.225 C 
ENDROOT
BRANCH   1   2
HETATM    2  C   UNK N   1      20.930  13.446  10.131  0.00  0.00     0.170 C 
HETATM    3  O   UNK N   1      21.709  14.221   9.605  0.00  0.00    -0.648 OA
BRANCH   2   4
HETATM    4  O   UNK N   1      19.604  13.608   9.952  0.00  0.00    -0.774 OA
HETATM    5  H   UNK N   1      19.220  13.440   9.114  0.00  0.00     0.167 HD
ENDBRANCH   2   4
ENDBRANCH   1   2
BRANCH   1   6
HETATM    6  O   UNK N   1      20.581  11.767  11.924  0.00  0.00    -0.384 OA
HETATM    7  H   UNK N   1      20.714  10.856  12.229  0.00  0.00     0.210 HD
ENDBRANCH   1   6
BRANCH   1   8
HETATM    8  C   UNK N   1      22.870  11.787  10.788  0.00  0.00     0.152 C 
BRANCH   8   9
HETATM    9  C   UNK N   1      23.864  12.052  11.886  0.00  0.00     0.142 C 
HETATM   10  O   UNK N   1      23.548  11.996  13.062  0.00  0.00    -0.650 OA
BRANCH   9  11
HETATM   11  O   UNK N   1      25.132  12.357  11.554  0.00  0.00    -0.776 OA
HETATM   12  H   UNK N   1      25.745  12.599  12.220  0.00  0.00     0.167 HD
ENDBRANCH   9  11
ENDBRANCH   8   9
ENDBRANCH   1   8
TORSDOF 6
ENDMDL
MODEL 7
REMARK VINA RESULT:      -4.6     15.154     16.612
REMARK  6 active torsions:
REMARK  status: ('A' for Active; 'I' for Inactive)
REMARK    1  A    between atoms: C_1  and  C_2 
REMARK    2  A    between atoms: C_1  and  O_7 
REMARK    3  A    between atoms: C_2  and  O_3 
REMARK    4  A    between atoms: C_2  and  C_4 
REMARK    5  A    between atoms: C_4  and  C_5 
REMARK    6  A    between atoms: C_5  and  O_9 
ROOT
HETATM    1  C   UNK N   1      33.967  17.172   8.917  0.00  0.00     0.225 C 
ENDROOT
BRANCH   1   2
HETATM    2  C   UNK N   1      34.564  18.217   8.027  0.00  0.00     0.170 C 
HETATM    3  O   UNK N   1      35.221  19.126   8.504  0.00  0.00    -0.648 OA
BRANCH   2   4
HETATM    4  O   UNK N   1      34.377  18.157   6.694  0.00  0.00    -0.774 OA
HETATM    5  H   UNK N   1      35.113  18.184   6.115  0.00  0.00     0.167 HD
ENDBRANCH   2   4
ENDBRANCH   1   2
BRANCH   1   6
HETATM    6  O   UNK N   1      32.597  17.238   9.178  0.00  0.00    -0.384 OA
HETATM    7  H   UNK N   1      32.104  16.431   9.395  0.00  0.00     0.210 HD
ENDBRANCH   1   6
BRANCH   1   8
HETATM    8  C   UNK N   1      34.840  16.064   9.522  0.00  0.00     0.152 C 
BRANCH   8   9
HETATM    9  C   UNK N   1      35.690  16.412  10.713  0.00  0.00     0.142 C 
HETATM   10  O   UNK N   1      35.241  17.036  11.660  0.00  0.00    -0.650 OA
BRANCH   9  11
HETATM   11  O   UNK N   1      36.978  16.022  10.729  0.00  0.00    -0.776 OA
HETATM   12  H   UNK N   1      37.206  15.151  10.472  0.00  0.00     0.167 HD
ENDBRANCH   9  11
ENDBRANCH   8   9
ENDBRANCH   1   8
TORSDOF 6
ENDMDL
MODEL 8
REMARK VINA RESULT:      -4.6     15.094     16.164
REMARK  6 active torsions:
REMARK  status: ('A' for Active; 'I' for Inactive)
REMARK    1  A    between atoms: C_1  and  C_2 
REMARK    2  A    between atoms: C_1  and  O_7 
REMARK    3  A    between atoms: C_2  and  O_3 
REMARK    4  A    between atoms: C_2  and  C_4 
REMARK    5  A    between atoms: C_4  and  C_5 
REMARK    6  A    between atoms: C_5  and  O_9 
ROOT
HETATM    1  C   UNK N   1      34.058  17.229   9.100  0.00  0.00     0.225 C 
ENDROOT
BRANCH   1   2
HETATM    2  C   UNK N   1      34.623  18.219   8.129  0.00  0.00     0.170 C 
HETATM    3  O   UNK N   1      34.442  18.076   6.933  0.00  0.00    -0.648 OA
BRANCH   2   4
HETATM    4  O   UNK N   1      35.335  19.273   8.576  0.00  0.00    -0.774 OA
HETATM    5  H   UNK N   1      34.893  20.034   8.898  0.00  0.00     0.167 HD
ENDBRANCH   2   4
ENDBRANCH   1   2
BRANCH   1   6
HETATM    6  O   UNK N   1      32.677  17.030   9.104  0.00  0.00    -0.384 OA
HETATM    7  H   UNK N   1      32.302  16.230   9.506  0.00  0.00     0.210 HD
ENDBRANCH   1   6
BRANCH   1   8
HETATM    8  C   UNK N   1      34.977  16.459  10.058  0.00  0.00     0.152 C 
BRANCH   8   9
HETATM    9  C   UNK N   1      34.468  15.163  10.630  0.00  0.00     0.142 C 
HETATM   10  O   UNK N   1      35.169  14.167  10.679  0.00  0.00    -0.650 OA
BRANCH   9  11
HETATM   11  O   UNK N   1      33.207  15.109  11.097  0.00  0.00    -0.776 OA
HETATM   12  H   UNK N   1      32.955  14.427  11.687  0.00  0.00     0.167 HD
ENDBRANCH   9  11
ENDBRANCH   8   9
ENDBRANCH   1   8
TORSDOF 6
ENDMDL
MODEL 9
REMARK VINA RESULT:      -4.4     10.700     12.440
REMARK  6 active torsions:
REMARK  status: ('A' for Active; 'I' for Inactive)
REMARK    1  A    between atoms: C_1  and  C_2 
REMARK    2  A    between atoms: C_1  and  O_7 
REMARK    3  A    between atoms: C_2  and  O_3 
REMARK    4  A    between atoms: C_2  and  C_4 
REMARK    5  A    between atoms: C_4  and  C_5 
REMARK    6  A    between atoms: C_5  and  O_9 
ROOT
HETATM    1  C   UNK N   1      22.424  12.214  11.542  0.00  0.00     0.225 C 
ENDROOT
BRANCH   1   2
HETATM    2  C   UNK N   1      23.691  12.141  12.336  0.00  0.00     0.170 C 
HETATM    3  O   UNK N   1      23.649  12.034  13.550  0.00  0.00    -0.648 OA
BRANCH   2   4
HETATM    4  O   UNK N   1      24.884  12.192  11.712  0.00  0.00    -0.774 OA
HETATM    5  H   UNK N   1      25.018  12.793  11.006  0.00  0.00     0.167 HD
ENDBRANCH   2   4
ENDBRANCH   1   2
BRANCH   1   6
HETATM    6  O   UNK N   1      21.287  11.594  12.064  0.00  0.00    -0.384 OA
HETATM    7  H   UNK N   1      20.549  11.361  11.478  0.00  0.00     0.210 HD
ENDBRANCH   1   6
BRANCH   1   8
HETATM    8  C   UNK N   1      22.383  12.951  10.197  0.00  0.00     0.152 C 
BRANCH   8   9
HETATM    9  C   UNK N   1      21.052  13.076   9.505  0.00  0.00     0.142 C 
HETATM   10  O   UNK N   1      20.064  13.490  10.088  0.00  0.00    -0.650 OA
BRANCH   9  11
HETATM   11  O   UNK N   1      20.958  12.722   8.210  0.00  0.00    -0.776 OA
HETATM   12  H   UNK N   1      21.430  11.978   7.893  0.00  0.00     0.167 HD
ENDBRANCH   9  11
ENDBRANCH   8   9
ENDBRANCH   1   8
TORSDOF 6
ENDMDL
