REMARK  3 active torsions:
REMARK  status: ('A' for Active; 'I' for Inactive)
REMARK    1  A    between atoms: C_1  and  N_13 
REMARK       I    between atoms: C_8  and  N_6 
REMARK    2  A    between atoms: C_9  and  C_8 
REMARK    3  A    between atoms: N_13  and  C_15 
ROOT
HETATM    1  C   UNK N   1       4.800   0.224  -0.427  0.00  0.00     0.226 C 
HETATM    2  C   UNK N   1       5.685  -0.486   0.498  0.00  0.00     0.068 C 
HETATM    3  N   UNK N   1       6.421  -1.010   1.221  0.00  0.00    -0.197 NA
ENDROOT
BRANCH   1   4
HETATM    4  C   UNK N   1       3.424  -0.371  -0.623  0.00  0.00     0.232 C 
HETATM    5  O   UNK N   1       3.320  -1.529  -1.002  0.00  0.00    -0.272 OA
HETATM    6  N   UNK N   1       2.313   0.415  -0.490  0.00  0.00    -0.349 N 
HETATM    7  C   UNK N   1       1.031  -0.057  -1.026  0.00  0.00     0.151 C 
HETATM    8  C   UNK N   1       2.466   1.759   0.028  0.00  0.00     0.126 C 
HETATM    9  C   UNK N   1      -0.238   0.808  -0.755  0.00  0.00     0.107 C 
HETATM   10  C   UNK N   1       0.119   2.240  -0.236  0.00  0.00     0.007 C 
HETATM   11  C   UNK N   1       1.227   2.192   0.786  0.00  0.00     0.026 C 
HETATM   12  C   UNK N   1      -1.029   3.086   0.287  0.00  0.00     0.012 C 
BRANCH   9  13
HETATM   13  N   UNK N   1      -1.317   0.085  -0.036  0.00  0.00    -0.364 N 
HETATM   14  C   UNK N   1      -2.589   0.764   0.094  0.00  0.00     0.152 C 
BRANCH  13  15
HETATM   15  C   UNK N   1      -1.300  -1.351   0.154  0.00  0.00     0.118 A 
HETATM   16  N   UNK N   1      -0.123  -2.033   0.309  0.00  0.00    -0.338 N 
HETATM   17  C   UNK N   1      -0.082  -3.397   0.433  0.00  0.00     0.183 A 
ATOM     18  HN  UNK N   1       0.752  -1.508   0.334  1.00  0.00     0.168 HD
HETATM   19  N   UNK N   1      -1.231  -4.130   0.390  0.00  0.00    -0.338 N 
HETATM   20  C   UNK N   1      -2.405  -3.477   0.239  0.00  0.00     0.120 A 
ATOM     21  HN  UNK N   1      -1.205  -5.147   0.471  1.00  0.00     0.168 HD
HETATM   22  C   UNK N   1      -2.479  -2.126   0.129  0.00  0.00     0.053 A 
HETATM   23  N   UNK N   1      -3.613  -4.051   0.153  0.00  0.00    -0.351 N 
HETATM   24  C   UNK N   1      -3.813  -1.811  -0.041  0.00  0.00     0.036 A 
HETATM   25  C   UNK N   1      -4.489  -3.032  -0.018  0.00  0.00     0.091 A 
HETATM   26  H   UNK N   1      -3.820  -5.012   0.203  0.00  0.00     0.166 HD
ENDBRANCH  13  15
ENDBRANCH   9  13
ENDBRANCH   1   4
TORSDOF 3
