MODEL 1
REMARK VINA RESULT:      -6.8      0.000      0.000
REMARK  3 active torsions:
REMARK  status: ('A' for Active; 'I' for Inactive)
REMARK    1  A    between atoms: C_1  and  N_13 
REMARK       I    between atoms: C_8  and  N_6 
REMARK    2  A    between atoms: C_9  and  C_8 
REMARK    3  A    between atoms: N_13  and  C_15 
ROOT
HETATM    1  C   UNK N   1      33.792  17.232   9.012  0.00  0.00     0.226 C 
HETATM    2  C   UNK N   1      34.038  17.689   7.644  0.00  0.00     0.068 C 
HETATM    3  N   UNK N   1      34.184  18.071   6.561  0.00  0.00    -0.197 NA
ENDROOT
BRANCH   1   4
HETATM    4  C   UNK N   1      34.936  16.514   9.692  0.00  0.00     0.232 C 
HETATM    5  O   UNK N   1      35.763  17.161  10.318  0.00  0.00    -0.272 OA
HETATM    6  N   UNK N   1      35.106  15.170   9.508  0.00  0.00    -0.349 N 
HETATM    7  C   UNK N   1      36.391  14.554   9.857  0.00  0.00     0.151 C 
HETATM    8  C   UNK N   1      34.072  14.422   8.821  0.00  0.00     0.126 C 
HETATM    9  C   UNK N   1      36.514  13.003   9.746  0.00  0.00     0.107 C 
HETATM   10  C   UNK N   1      35.331  12.370   8.942  0.00  0.00     0.007 C 
HETATM   11  C   UNK N   1      34.012  12.994   9.324  0.00  0.00     0.026 C 
HETATM   12  C   UNK N   1      35.214  10.856   8.971  0.00  0.00     0.012 C 
BRANCH   9  13
HETATM   13  N   UNK N   1      36.891  12.337  11.018  0.00  0.00    -0.364 N 
HETATM   14  C   UNK N   1      38.108  11.554  11.014  0.00  0.00     0.152 C 
BRANCH  13  15
HETATM   15  C   UNK N   1      36.366  12.755  12.302  0.00  0.00     0.118 A 
HETATM   16  N   UNK N   1      36.880  13.840  12.960  0.00  0.00    -0.338 N 
HETATM   17  C   UNK N   1      36.437  14.218  14.200  0.00  0.00     0.183 A 
ATOM     18  HN  UNK N   1      37.617  14.386  12.511  1.00  0.00     0.168 HD
HETATM   19  N   UNK N   1      35.464  13.503  14.834  0.00  0.00    -0.338 N 
HETATM   20  C   UNK N   1      34.941  12.428  14.202  0.00  0.00     0.120 A 
ATOM     21  HN  UNK N   1      35.138  13.774  15.762  1.00  0.00     0.168 HD
HETATM   22  C   UNK N   1      35.349  12.038  12.967  0.00  0.00     0.053 A 
HETATM   23  N   UNK N   1      34.002  11.611  14.698  0.00  0.00    -0.351 N 
HETATM   24  C   UNK N   1      34.632  10.901  12.650  0.00  0.00     0.036 A 
HETATM   25  C   UNK N   1      33.802  10.667  13.748  0.00  0.00     0.091 A 
HETATM   26  H   UNK N   1      33.552  11.682  15.571  0.00  0.00     0.166 HD
ENDBRANCH  13  15
ENDBRANCH   9  13
ENDBRANCH   1   4
TORSDOF 3
ENDMDL
MODEL 2
REMARK VINA RESULT:      -6.5     13.566     15.464
REMARK  3 active torsions:
REMARK  status: ('A' for Active; 'I' for Inactive)
REMARK    1  A    between atoms: C_1  and  N_13 
REMARK       I    between atoms: C_8  and  N_6 
REMARK    2  A    between atoms: C_9  and  C_8 
REMARK    3  A    between atoms: N_13  and  C_15 
ROOT
HETATM    1  C   UNK N   1      20.311  20.002   2.367  0.00  0.00     0.226 C 
HETATM    2  C   UNK N   1      20.806  20.454   1.066  0.00  0.00     0.068 C 
HETATM    3  N   UNK N   1      21.148  20.829   0.026  0.00  0.00    -0.197 NA
ENDROOT
BRANCH   1   4
HETATM    4  C   UNK N   1      21.333  19.373   3.288  0.00  0.00     0.232 C 
HETATM    5  O   UNK N   1      22.256  20.054   3.712  0.00  0.00    -0.272 OA
HETATM    6  N   UNK N   1      21.288  18.031   3.545  0.00  0.00    -0.349 N 
HETATM    7  C   UNK N   1      22.463  17.372   4.126  0.00  0.00     0.151 C 
HETATM    8  C   UNK N   1      20.144  17.270   3.086  0.00  0.00     0.126 C 
HETATM    9  C   UNK N   1      22.339  15.867   4.516  0.00  0.00     0.107 C 
HETATM   10  C   UNK N   1      21.065  15.197   3.903  0.00  0.00     0.007 C 
HETATM   11  C   UNK N   1      19.864  16.103   4.012  0.00  0.00     0.026 C 
HETATM   12  C   UNK N   1      20.711  13.808   4.405  0.00  0.00     0.012 C 
BRANCH   9  13
HETATM   13  N   UNK N   1      22.615  15.592   5.949  0.00  0.00    -0.364 N 
HETATM   14  C   UNK N   1      24.005  15.518   6.347  0.00  0.00     0.152 C 
BRANCH  13  15
HETATM   15  C   UNK N   1      21.630  15.808   6.988  0.00  0.00     0.118 A 
HETATM   16  N   UNK N   1      20.983  17.008   7.114  0.00  0.00    -0.338 N 
HETATM   17  C   UNK N   1      20.090  17.252   8.124  0.00  0.00     0.183 A 
ATOM     18  HN  UNK N   1      21.170  17.744   6.432  1.00  0.00     0.168 HD
HETATM   19  N   UNK N   1      19.826  16.296   9.060  0.00  0.00    -0.338 N 
HETATM   20  C   UNK N   1      20.453  15.103   8.954  0.00  0.00     0.120 A 
ATOM     21  HN  UNK N   1      19.170  16.476   9.821  1.00  0.00     0.168 HD
HETATM   22  C   UNK N   1      21.331  14.826   7.956  0.00  0.00     0.053 A 
HETATM   23  N   UNK N   1      20.323  14.073   9.803  0.00  0.00    -0.351 N 
HETATM   24  C   UNK N   1      21.796  13.544   8.176  0.00  0.00     0.036 A 
HETATM   25  C   UNK N   1      21.145  13.106   9.331  0.00  0.00     0.091 A 
HETATM   26  H   UNK N   1      19.750  14.030  10.602  0.00  0.00     0.166 HD
ENDBRANCH  13  15
ENDBRANCH   9  13
ENDBRANCH   1   4
TORSDOF 3
ENDMDL
MODEL 3
REMARK VINA RESULT:      -6.5      6.531     10.396
REMARK  3 active torsions:
REMARK  status: ('A' for Active; 'I' for Inactive)
REMARK    1  A    between atoms: C_1  and  N_13 
REMARK       I    between atoms: C_8  and  N_6 
REMARK    2  A    between atoms: C_9  and  C_8 
REMARK    3  A    between atoms: N_13  and  C_15 
ROOT
HETATM    1  C   UNK N   1      33.574  17.763   6.867  0.00  0.00     0.226 C 
HETATM    2  C   UNK N   1      34.408  18.338   7.924  0.00  0.00     0.068 C 
HETATM    3  N   UNK N   1      35.106  18.799   8.723  0.00  0.00    -0.197 NA
ENDROOT
BRANCH   1   4
HETATM    4  C   UNK N   1      32.167  17.375   7.264  0.00  0.00     0.232 C 
HETATM    5  O   UNK N   1      31.855  17.381   8.447  0.00  0.00    -0.272 OA
HETATM    6  N   UNK N   1      31.293  16.911   6.321  0.00  0.00    -0.349 N 
HETATM    7  C   UNK N   1      30.080  16.206   6.752  0.00  0.00     0.151 C 
HETATM    8  C   UNK N   1      31.669  16.984   4.924  0.00  0.00     0.126 C 
HETATM    9  C   UNK N   1      29.047  15.793   5.658  0.00  0.00     0.107 C 
HETATM   10  C   UNK N   1      29.637  15.898   4.213  0.00  0.00     0.007 C 
HETATM   11  C   UNK N   1      30.448  17.159   4.043  0.00  0.00     0.026 C 
HETATM   12  C   UNK N   1      28.659  15.754   3.061  0.00  0.00     0.012 C 
BRANCH   9  13
HETATM   13  N   UNK N   1      27.690  16.357   5.870  0.00  0.00    -0.364 N 
HETATM   14  C   UNK N   1      26.679  15.459   6.388  0.00  0.00     0.152 C 
BRANCH  13  15
HETATM   15  C   UNK N   1      27.447  17.780   5.986  0.00  0.00     0.118 A 
HETATM   16  N   UNK N   1      27.846  18.480   7.093  0.00  0.00    -0.338 N 
HETATM   17  C   UNK N   1      27.575  19.815   7.247  0.00  0.00     0.183 A 
ATOM     18  HN  UNK N   1      28.363  17.993   7.826  1.00  0.00     0.168 HD
HETATM   19  N   UNK N   1      26.875  20.493   6.294  0.00  0.00    -0.338 N 
HETATM   20  C   UNK N   1      26.472  19.821   5.192  0.00  0.00     0.120 A 
ATOM     21  HN  UNK N   1      26.661  21.484   6.409  1.00  0.00     0.168 HD
HETATM   22  C   UNK N   1      26.738  18.504   5.004  0.00  0.00     0.053 A 
HETATM   23  N   UNK N   1      25.757  20.335   4.182  0.00  0.00    -0.351 N 
HETATM   24  C   UNK N   1      26.158  18.146   3.802  0.00  0.00     0.036 A 
HETATM   25  C   UNK N   1      25.559  19.310   3.318  0.00  0.00     0.091 A 
HETATM   26  H   UNK N   1      25.441  21.263   4.087  0.00  0.00     0.166 HD
ENDBRANCH  13  15
ENDBRANCH   9  13
ENDBRANCH   1   4
TORSDOF 3
ENDMDL
MODEL 4
REMARK VINA RESULT:      -6.4     13.591     16.848
REMARK  3 active torsions:
REMARK  status: ('A' for Active; 'I' for Inactive)
REMARK    1  A    between atoms: C_1  and  N_13 
REMARK       I    between atoms: C_8  and  N_6 
REMARK    2  A    between atoms: C_9  and  C_8 
REMARK    3  A    between atoms: N_13  and  C_15 
ROOT
HETATM    1  C   UNK N   1      21.879  13.042   9.214  0.00  0.00     0.226 C 
HETATM    2  C   UNK N   1      21.266  12.578  10.460  0.00  0.00     0.068 C 
HETATM    3  N   UNK N   1      20.824  12.182  11.454  0.00  0.00    -0.197 NA
ENDROOT
BRANCH   1   4
HETATM    4  C   UNK N   1      21.078  14.037   8.406  0.00  0.00     0.232 C 
HETATM    5  O   UNK N   1      19.901  14.224   8.682  0.00  0.00    -0.272 OA
HETATM    6  N   UNK N   1      21.633  14.631   7.307  0.00  0.00    -0.349 N 
HETATM    7  C   UNK N   1      20.760  15.298   6.334  0.00  0.00     0.151 C 
HETATM    8  C   UNK N   1      23.046  14.443   7.050  0.00  0.00     0.126 C 
HETATM    9  C   UNK N   1      21.432  16.066   5.155  0.00  0.00     0.107 C 
HETATM   10  C   UNK N   1      22.949  15.713   5.003  0.00  0.00     0.007 C 
HETATM   11  C   UNK N   1      23.633  15.650   6.346  0.00  0.00     0.026 C 
HETATM   12  C   UNK N   1      23.761  16.571   4.049  0.00  0.00     0.012 C 
BRANCH   9  13
HETATM   13  N   UNK N   1      21.070  17.505   5.089  0.00  0.00    -0.364 N 
HETATM   14  C   UNK N   1      21.317  18.299   6.275  0.00  0.00     0.152 C 
BRANCH  13  15
HETATM   15  C   UNK N   1      20.896  18.208   3.835  0.00  0.00     0.118 A 
HETATM   16  N   UNK N   1      21.012  19.570   3.762  0.00  0.00    -0.338 N 
HETATM   17  C   UNK N   1      20.795  20.259   2.597  0.00  0.00     0.183 A 
ATOM     18  HN  UNK N   1      21.270  20.089   4.602  1.00  0.00     0.168 HD
HETATM   19  N   UNK N   1      20.435  19.598   1.460  0.00  0.00    -0.338 N 
HETATM   20  C   UNK N   1      20.316  18.252   1.509  0.00  0.00     0.120 A 
ATOM     21  HN  UNK N   1      20.262  20.107   0.593  1.00  0.00     0.168 HD
HETATM   22  C   UNK N   1      20.539  17.541   2.643  0.00  0.00     0.053 A 
HETATM   23  N   UNK N   1      19.947  17.463   0.490  0.00  0.00    -0.351 N 
HETATM   24  C   UNK N   1      20.298  16.216   2.339  0.00  0.00     0.036 A 
HETATM   25  C   UNK N   1      19.935  16.204   0.991  0.00  0.00     0.091 A 
HETATM   26  H   UNK N   1      19.731  17.740  -0.429  0.00  0.00     0.166 HD
ENDBRANCH  13  15
ENDBRANCH   9  13
ENDBRANCH   1   4
TORSDOF 3
ENDMDL
MODEL 5
REMARK VINA RESULT:      -6.3     14.519     16.912
REMARK  3 active torsions:
REMARK  status: ('A' for Active; 'I' for Inactive)
REMARK    1  A    between atoms: C_1  and  N_13 
REMARK       I    between atoms: C_8  and  N_6 
REMARK    2  A    between atoms: C_9  and  C_8 
REMARK    3  A    between atoms: N_13  and  C_15 
ROOT
HETATM    1  C   UNK N   1      18.963  16.831   9.153  0.00  0.00     0.226 C 
HETATM    2  C   UNK N   1      19.429  18.177   9.492  0.00  0.00     0.068 C 
HETATM    3  N   UNK N   1      19.794  19.227   9.812  0.00  0.00    -0.197 NA
ENDROOT
BRANCH   1   4
HETATM    4  C   UNK N   1      18.842  16.520   7.678  0.00  0.00     0.232 C 
HETATM    5  O   UNK N   1      17.761  16.657   7.123  0.00  0.00    -0.272 OA
HETATM    6  N   UNK N   1      19.901  15.979   7.003  0.00  0.00    -0.349 N 
HETATM    7  C   UNK N   1      19.676  15.351   5.697  0.00  0.00     0.151 C 
HETATM    8  C   UNK N   1      21.185  15.896   7.669  0.00  0.00     0.126 C 
HETATM    9  C   UNK N   1      20.920  14.850   4.901  0.00  0.00     0.107 C 
HETATM   10  C   UNK N   1      22.207  14.789   5.788  0.00  0.00     0.007 C 
HETATM   11  C   UNK N   1      22.321  16.006   6.672  0.00  0.00     0.026 C 
HETATM   12  C   UNK N   1      23.524  14.547   5.071  0.00  0.00     0.012 C 
BRANCH   9  13
HETATM   13  N   UNK N   1      21.062  15.464   3.557  0.00  0.00    -0.364 N 
HETATM   14  C   UNK N   1      21.079  14.564   2.423  0.00  0.00     0.152 C 
BRANCH  13  15
HETATM   15  C   UNK N   1      20.768  16.859   3.302  0.00  0.00     0.118 A 
HETATM   16  N   UNK N   1      19.535  17.256   2.858  0.00  0.00    -0.338 N 
HETATM   17  C   UNK N   1      19.254  18.563   2.558  0.00  0.00     0.183 A 
ATOM     18  HN  UNK N   1      18.801  16.555   2.748  1.00  0.00     0.168 HD
HETATM   19  N   UNK N   1      20.216  19.522   2.680  0.00  0.00    -0.338 N 
HETATM   20  C   UNK N   1      21.440  19.153   3.118  0.00  0.00     0.120 A 
ATOM     21  HN  UNK N   1      20.015  20.495   2.447  1.00  0.00     0.168 HD
HETATM   22  C   UNK N   1      21.744  17.869   3.438  0.00  0.00     0.053 A 
HETATM   23  N   UNK N   1      22.495  19.966   3.267  0.00  0.00    -0.351 N 
HETATM   24  C   UNK N   1      23.073  17.854   3.813  0.00  0.00     0.036 A 
HETATM   25  C   UNK N   1      23.507  19.175   3.697  0.00  0.00     0.091 A 
HETATM   26  H   UNK N   1      22.527  20.936   3.099  0.00  0.00     0.166 HD
ENDBRANCH  13  15
ENDBRANCH   9  13
ENDBRANCH   1   4
TORSDOF 3
ENDMDL
MODEL 6
REMARK VINA RESULT:      -6.3     14.406     16.887
REMARK  3 active torsions:
REMARK  status: ('A' for Active; 'I' for Inactive)
REMARK    1  A    between atoms: C_1  and  N_13 
REMARK       I    between atoms: C_8  and  N_6 
REMARK    2  A    between atoms: C_9  and  C_8 
REMARK    3  A    between atoms: N_13  and  C_15 
ROOT
HETATM    1  C   UNK N   1      20.631  20.436   2.607  0.00  0.00     0.226 C 
HETATM    2  C   UNK N   1      20.907  20.645   1.185  0.00  0.00     0.068 C 
HETATM    3  N   UNK N   1      21.143  20.858   0.072  0.00  0.00    -0.197 NA
ENDROOT
BRANCH   1   4
HETATM    4  C   UNK N   1      20.091  19.077   2.990  0.00  0.00     0.232 C 
HETATM    5  O   UNK N   1      18.945  18.779   2.682  0.00  0.00    -0.272 OA
HETATM    6  N   UNK N   1      20.836  18.239   3.772  0.00  0.00    -0.349 N 
HETATM    7  C   UNK N   1      20.183  17.103   4.433  0.00  0.00     0.151 C 
HETATM    8  C   UNK N   1      22.212  18.591   4.059  0.00  0.00     0.126 C 
HETATM    9  C   UNK N   1      21.081  16.101   5.221  0.00  0.00     0.107 C 
HETATM   10  C   UNK N   1      22.520  16.662   5.472  0.00  0.00     0.007 C 
HETATM   11  C   UNK N   1      23.061  17.349   4.243  0.00  0.00     0.026 C 
HETATM   12  C   UNK N   1      23.551  15.689   6.015  0.00  0.00     0.012 C 
BRANCH   9  13
HETATM   13  N   UNK N   1      20.984  14.699   4.741  0.00  0.00    -0.364 N 
HETATM   14  C   UNK N   1      20.703  13.683   5.733  0.00  0.00     0.152 C 
BRANCH  13  15
HETATM   15  C   UNK N   1      20.741  14.367   3.352  0.00  0.00     0.118 A 
HETATM   16  N   UNK N   1      19.473  14.138   2.888  0.00  0.00    -0.338 N 
HETATM   17  C   UNK N   1      19.228  13.767   1.592  0.00  0.00     0.183 A 
ATOM     18  HN  UNK N   1      18.686  14.249   3.528  1.00  0.00     0.168 HD
HETATM   19  N   UNK N   1      20.258  13.596   0.715  0.00  0.00    -0.338 N 
HETATM   20  C   UNK N   1      21.518  13.818   1.152  0.00  0.00     0.120 A 
ATOM     21  HN  UNK N   1      20.082  13.309  -0.249  1.00  0.00     0.168 HD
HETATM   22  C   UNK N   1      21.791  14.201   2.425  0.00  0.00     0.053 A 
HETATM   23  N   UNK N   1      22.634  13.670   0.425  0.00  0.00    -0.351 N 
HETATM   24  C   UNK N   1      23.165  14.304   2.525  0.00  0.00     0.036 A 
HETATM   25  C   UNK N   1      23.656  13.969   1.262  0.00  0.00     0.091 A 
HETATM   26  H   UNK N   1      22.698  13.400  -0.519  0.00  0.00     0.166 HD
ENDBRANCH  13  15
ENDBRANCH   9  13
ENDBRANCH   1   4
TORSDOF 3
ENDMDL
MODEL 7
REMARK VINA RESULT:      -6.2     12.504     14.988
REMARK  3 active torsions:
REMARK  status: ('A' for Active; 'I' for Inactive)
REMARK    1  A    between atoms: C_1  and  N_13 
REMARK       I    between atoms: C_8  and  N_6 
REMARK    2  A    between atoms: C_9  and  C_8 
REMARK    3  A    between atoms: N_13  and  C_15 
ROOT
HETATM    1  C   UNK N   1      23.880  11.978  11.331  0.00  0.00     0.226 C 
HETATM    2  C   UNK N   1      23.628  12.038  12.772  0.00  0.00     0.068 C 
HETATM    3  N   UNK N   1      23.481  12.080  13.919  0.00  0.00    -0.197 NA
ENDROOT
BRANCH   1   4
HETATM    4  C   UNK N   1      22.678  12.168  10.435  0.00  0.00     0.232 C 
HETATM    5  O   UNK N   1      21.556  12.007  10.894  0.00  0.00    -0.272 OA
HETATM    6  N   UNK N   1      22.850  12.404   9.099  0.00  0.00    -0.349 N 
HETATM    7  C   UNK N   1      21.714  12.228   8.186  0.00  0.00     0.151 C 
HETATM    8  C   UNK N   1      24.186  12.660   8.601  0.00  0.00     0.126 C 
HETATM    9  C   UNK N   1      21.912  12.617   6.689  0.00  0.00     0.107 C 
HETATM   10  C   UNK N   1      23.419  12.818   6.322  0.00  0.00     0.007 C 
HETATM   11  C   UNK N   1      24.149  13.582   7.398  0.00  0.00     0.026 C 
HETATM   12  C   UNK N   1      23.719  13.429   4.963  0.00  0.00     0.012 C 
BRANCH   9  13
HETATM   13  N   UNK N   1      20.961  13.650   6.205  0.00  0.00    -0.364 N 
HETATM   14  C   UNK N   1      19.940  13.217   5.275  0.00  0.00     0.152 C 
BRANCH  13  15
HETATM   15  C   UNK N   1      20.747  14.900   6.904  0.00  0.00     0.118 A 
HETATM   16  N   UNK N   1      20.062  14.943   8.089  0.00  0.00    -0.338 N 
HETATM   17  C   UNK N   1      19.800  16.122   8.736  0.00  0.00     0.183 A 
ATOM     18  HN  UNK N   1      19.737  14.069   8.503  1.00  0.00     0.168 HD
HETATM   19  N   UNK N   1      20.208  17.309   8.204  0.00  0.00    -0.338 N 
HETATM   20  C   UNK N   1      20.887  17.290   7.035  0.00  0.00     0.120 A 
ATOM     21  HN  UNK N   1      20.005  18.191   8.677  1.00  0.00     0.168 HD
HETATM   22  C   UNK N   1      21.175  16.138   6.378  0.00  0.00     0.053 A 
HETATM   23  N   UNK N   1      21.332  18.366   6.372  0.00  0.00    -0.351 N 
HETATM   24  C   UNK N   1      21.843  16.493   5.222  0.00  0.00     0.036 A 
HETATM   25  C   UNK N   1      21.925  17.886   5.253  0.00  0.00     0.091 A 
HETATM   26  H   UNK N   1      21.246  19.309   6.642  0.00  0.00     0.166 HD
ENDBRANCH  13  15
ENDBRANCH   9  13
ENDBRANCH   1   4
TORSDOF 3
ENDMDL
MODEL 8
REMARK VINA RESULT:      -6.2     12.722     15.863
REMARK  3 active torsions:
REMARK  status: ('A' for Active; 'I' for Inactive)
REMARK    1  A    between atoms: C_1  and  N_13 
REMARK       I    between atoms: C_8  and  N_6 
REMARK    2  A    between atoms: C_9  and  C_8 
REMARK    3  A    between atoms: N_13  and  C_15 
ROOT
HETATM    1  C   UNK N   1      22.472  11.817  10.527  0.00  0.00     0.226 C 
HETATM    2  C   UNK N   1      23.683  11.906  11.344  0.00  0.00     0.068 C 
HETATM    3  N   UNK N   1      24.615  11.953  12.029  0.00  0.00    -0.197 NA
ENDROOT
BRANCH   1   4
HETATM    4  C   UNK N   1      22.580  12.340   9.113  0.00  0.00     0.232 C 
HETATM    5  O   UNK N   1      23.263  11.733   8.300  0.00  0.00    -0.272 OA
HETATM    6  N   UNK N   1      22.015  13.540   8.782  0.00  0.00    -0.349 N 
HETATM    7  C   UNK N   1      22.423  14.207   7.540  0.00  0.00     0.151 C 
HETATM    8  C   UNK N   1      21.155  14.197   9.745  0.00  0.00     0.126 C 
HETATM    9  C   UNK N   1      21.676  15.515   7.133  0.00  0.00     0.107 C 
HETATM   10  C   UNK N   1      20.826  16.103   8.307  0.00  0.00     0.007 C 
HETATM   11  C   UNK N   1      20.088  15.017   9.048  0.00  0.00     0.026 C 
HETATM   12  C   UNK N   1      19.872  17.234   7.963  0.00  0.00     0.012 C 
BRANCH   9  13
HETATM   13  N   UNK N   1      21.022  15.444   5.802  0.00  0.00    -0.364 N 
HETATM   14  C   UNK N   1      20.082  14.364   5.589  0.00  0.00     0.152 C 
BRANCH  13  15
HETATM   15  C   UNK N   1      20.952  16.582   4.907  0.00  0.00     0.118 A 
HETATM   16  N   UNK N   1      19.827  16.837   4.170  0.00  0.00    -0.338 N 
HETATM   17  C   UNK N   1      19.761  17.874   3.277  0.00  0.00     0.183 A 
ATOM     18  HN  UNK N   1      19.010  16.236   4.291  1.00  0.00     0.168 HD
HETATM   19  N   UNK N   1      20.838  18.687   3.080  0.00  0.00    -0.338 N 
HETATM   20  C   UNK N   1      21.959  18.454   3.799  0.00  0.00     0.120 A 
ATOM     21  HN  UNK N   1      20.797  19.454   2.408  1.00  0.00     0.168 HD
HETATM   22  C   UNK N   1      22.049  17.444   4.702  0.00  0.00     0.053 A 
HETATM   23  N   UNK N   1      23.105  19.142   3.705  0.00  0.00    -0.351 N 
HETATM   24  C   UNK N   1      23.330  17.483   5.219  0.00  0.00     0.036 A 
HETATM   25  C   UNK N   1      23.956  18.553   4.578  0.00  0.00     0.091 A 
HETATM   26  H   UNK N   1      23.289  19.915   3.122  0.00  0.00     0.166 HD
ENDBRANCH  13  15
ENDBRANCH   9  13
ENDBRANCH   1   4
TORSDOF 3
ENDMDL
MODEL 9
REMARK VINA RESULT:      -6.1      3.520      7.829
REMARK  3 active torsions:
REMARK  status: ('A' for Active; 'I' for Inactive)
REMARK    1  A    between atoms: C_1  and  N_13 
REMARK       I    between atoms: C_8  and  N_6 
REMARK    2  A    between atoms: C_9  and  C_8 
REMARK    3  A    between atoms: N_13  and  C_15 
ROOT
HETATM    1  C   UNK N   1      36.595  14.968  10.563  0.00  0.00     0.226 C 
HETATM    2  C   UNK N   1      36.426  14.284  11.847  0.00  0.00     0.068 C 
HETATM    3  N   UNK N   1      36.339  13.722  12.854  0.00  0.00    -0.197 NA
ENDROOT
BRANCH   1   4
HETATM    4  C   UNK N   1      35.479  15.902  10.153  0.00  0.00     0.232 C 
HETATM    5  O   UNK N   1      35.338  16.963  10.743  0.00  0.00    -0.272 OA
HETATM    6  N   UNK N   1      34.569  15.508   9.211  0.00  0.00    -0.349 N 
HETATM    7  C   UNK N   1      33.306  16.244   9.081  0.00  0.00     0.151 C 
HETATM    8  C   UNK N   1      34.804  14.278   8.483  0.00  0.00     0.126 C 
HETATM    9  C   UNK N   1      32.342  15.844   7.922  0.00  0.00     0.107 C 
HETATM   10  C   UNK N   1      32.726  14.472   7.277  0.00  0.00     0.007 C 
HETATM   11  C   UNK N   1      34.218  14.354   7.087  0.00  0.00     0.026 C 
HETATM   12  C   UNK N   1      32.011  14.095   5.991  0.00  0.00     0.012 C 
BRANCH   9  13
HETATM   13  N   UNK N   1      32.026  16.957   6.992  0.00  0.00    -0.364 N 
HETATM   14  C   UNK N   1      33.109  17.453   6.170  0.00  0.00     0.152 C 
BRANCH  13  15
HETATM   15  C   UNK N   1      30.672  17.264   6.577  0.00  0.00     0.118 A 
HETATM   16  N   UNK N   1      30.305  17.213   5.259  0.00  0.00    -0.338 N 
HETATM   17  C   UNK N   1      29.046  17.554   4.840  0.00  0.00     0.183 A 
ATOM     18  HN  UNK N   1      30.990  16.908   4.567  1.00  0.00     0.168 HD
HETATM   19  N   UNK N   1      28.110  17.978   5.736  0.00  0.00    -0.338 N 
HETATM   20  C   UNK N   1      28.451  18.035   7.043  0.00  0.00     0.120 A 
ATOM     21  HN  UNK N   1      27.174  18.244   5.428  1.00  0.00     0.168 HD
HETATM   22  C   UNK N   1      29.684  17.689   7.491  0.00  0.00     0.053 A 
HETATM   23  N   UNK N   1      27.658  18.452   8.040  0.00  0.00    -0.351 N 
HETATM   24  C   UNK N   1      29.688  17.897   8.856  0.00  0.00     0.036 A 
HETATM   25  C   UNK N   1      28.411  18.369   9.163  0.00  0.00     0.091 A 
HETATM   26  H   UNK N   1      26.724  18.755   7.970  0.00  0.00     0.166 HD
ENDBRANCH  13  15
ENDBRANCH   9  13
ENDBRANCH   1   4
TORSDOF 3
ENDMDL
