MODEL 1
REMARK VINA RESULT:      -6.2      0.000      0.000
REMARK  6 active torsions:
REMARK  status: ('A' for Active; 'I' for Inactive)
REMARK    1  A    between atoms: C_1  and  C_15 
REMARK    2  A    between atoms: C_7  and  C_15 
REMARK    3  A    between atoms: N_8  and  C_19 
REMARK    4  A    between atoms: C_14  and  C_16 
REMARK    5  A    between atoms: C_19  and  O_20 
REMARK    6  A    between atoms: O_20  and  C_21 
ROOT
HETATM    1  C   UNK N   1      29.346  23.194  -4.631  0.00  0.00     0.035 A 
HETATM    2  N   UNK N   1      30.172  22.959  -3.542  0.00  0.00    -0.280 N 
HETATM    3  C   UNK N   1      29.706  23.173  -2.258  0.00  0.00     0.331 A 
HETATM    4  O   UNK N   1      30.419  22.964  -1.293  0.00  0.00    -0.246 OA
HETATM    5  N   UNK N   1      28.442  23.632  -2.052  0.00  0.00    -0.275 N 
HETATM    6  C   UNK N   1      27.607  23.917  -3.085  0.00  0.00     0.257 A 
HETATM    7  O   UNK N   1      26.503  24.365  -2.832  0.00  0.00    -0.267 OA
HETATM    8  C   UNK N   1      28.025  23.711  -4.418  0.00  0.00     0.037 A 
HETATM    9  H   UNK N   1      28.124  23.760  -1.129  0.00  0.00     0.173 HD
ENDROOT
BRANCH   1  10
HETATM   10  C   UNK N   1      29.772  22.931  -6.074  0.00  0.00     0.096 C 
BRANCH  10  11
HETATM   11  C   UNK N   1      29.634  21.641  -6.822  0.00  0.00    -0.053 A 
HETATM   12  C   UNK N   1      28.496  21.443  -7.610  0.00  0.00     0.007 A 
HETATM   13  C   UNK N   1      28.284  20.216  -8.247  0.00  0.00     0.001 A 
HETATM   14  C   UNK N   1      29.211  19.181  -8.094  0.00  0.00     0.000 A 
HETATM   15  C   UNK N   1      30.342  19.369  -7.294  0.00  0.00     0.001 A 
HETATM   16  C   UNK N   1      30.544  20.590  -6.640  0.00  0.00     0.007 A 
ENDBRANCH  10  11
ENDBRANCH   1  10
BRANCH   2  17
HETATM   17  C   UNK N   1      31.571  22.552  -3.715  0.00  0.00     0.303 C 
BRANCH  17  18
HETATM   18  O   UNK N   1      31.751  21.186  -3.473  0.00  0.00    -0.372 OA
BRANCH  18  19
HETATM   19  C   UNK N   1      33.026  21.111  -2.904  0.00  0.00     0.165 C 
HETATM   20  C   UNK N   1      33.915  20.200  -3.724  0.00  0.00     0.033 C 
ENDBRANCH  18  19
ENDBRANCH  17  18
ENDBRANCH   2  17
BRANCH   8  21
HETATM   21  C   UNK N   1      27.066  24.068  -5.579  0.00  0.00     0.018 C 
HETATM   22  C   UNK N   1      27.156  25.394  -6.316  0.00  0.00     0.015 C 
HETATM   23  C   UNK N   1      25.873  23.228  -6.008  0.00  0.00     0.015 C 
ENDBRANCH   8  21
TORSDOF 6
ENDMDL
MODEL 2
REMARK VINA RESULT:      -6.0      1.216      4.625
REMARK  6 active torsions:
REMARK  status: ('A' for Active; 'I' for Inactive)
REMARK    1  A    between atoms: C_1  and  C_15 
REMARK    2  A    between atoms: C_7  and  C_15 
REMARK    3  A    between atoms: N_8  and  C_19 
REMARK    4  A    between atoms: C_14  and  C_16 
REMARK    5  A    between atoms: C_19  and  O_20 
REMARK    6  A    between atoms: O_20  and  C_21 
ROOT
HETATM    1  C   UNK N   1      29.207  23.235  -4.787  0.00  0.00     0.035 A 
HETATM    2  N   UNK N   1      27.940  23.694  -4.465  0.00  0.00    -0.280 N 
HETATM    3  C   UNK N   1      27.600  23.929  -3.146  0.00  0.00     0.331 A 
HETATM    4  O   UNK N   1      26.492  24.339  -2.850  0.00  0.00    -0.246 OA
HETATM    5  N   UNK N   1      28.499  23.694  -2.152  0.00  0.00    -0.275 N 
HETATM    6  C   UNK N   1      29.740  23.205  -2.410  0.00  0.00     0.257 A 
HETATM    7  O   UNK N   1      30.481  22.977  -1.471  0.00  0.00    -0.267 OA
HETATM    8  C   UNK N   1      30.145  22.953  -3.739  0.00  0.00     0.037 A 
HETATM    9  H   UNK N   1      28.243  23.885  -1.221  0.00  0.00     0.173 HD
ENDROOT
BRANCH   1  10
HETATM   10  C   UNK N   1      29.672  23.003  -6.223  0.00  0.00     0.096 C 
BRANCH  10  11
HETATM   11  C   UNK N   1      29.617  21.711  -6.980  0.00  0.00    -0.053 A 
HETATM   12  C   UNK N   1      28.403  21.325  -7.559  0.00  0.00     0.007 A 
HETATM   13  C   UNK N   1      28.286  20.083  -8.189  0.00  0.00     0.001 A 
HETATM   14  C   UNK N   1      29.384  19.219  -8.240  0.00  0.00     0.000 A 
HETATM   15  C   UNK N   1      30.594  19.593  -7.648  0.00  0.00     0.001 A 
HETATM   16  C   UNK N   1      30.706  20.828  -6.999  0.00  0.00     0.007 A 
ENDBRANCH  10  11
ENDBRANCH   1  10
BRANCH   2  17
HETATM   17  C   UNK N   1      26.906  23.875  -5.492  0.00  0.00     0.303 C 
BRANCH  17  18
HETATM   18  O   UNK N   1      26.875  25.186  -5.976  0.00  0.00    -0.372 OA
BRANCH  18  19
HETATM   19  C   UNK N   1      25.512  25.453  -6.138  0.00  0.00     0.165 C 
HETATM   20  C   UNK N   1      25.200  26.870  -5.705  0.00  0.00     0.033 C 
ENDBRANCH  18  19
ENDBRANCH  17  18
ENDBRANCH   2  17
BRANCH   8  21
HETATM   21  C   UNK N   1      31.554  22.371  -4.007  0.00  0.00     0.018 C 
HETATM   22  C   UNK N   1      31.912  20.938  -3.647  0.00  0.00     0.015 C 
HETATM   23  C   UNK N   1      32.744  23.174  -4.508  0.00  0.00     0.015 C 
ENDBRANCH   8  21
TORSDOF 6
ENDMDL
MODEL 3
REMARK VINA RESULT:      -5.9      1.823      3.734
REMARK  6 active torsions:
REMARK  status: ('A' for Active; 'I' for Inactive)
REMARK    1  A    between atoms: C_1  and  C_15 
REMARK    2  A    between atoms: C_7  and  C_15 
REMARK    3  A    between atoms: N_8  and  C_19 
REMARK    4  A    between atoms: C_14  and  C_16 
REMARK    5  A    between atoms: C_19  and  O_20 
REMARK    6  A    between atoms: O_20  and  C_21 
ROOT
HETATM    1  C   UNK N   1      30.131  22.365  -5.157  0.00  0.00     0.035 A 
HETATM    2  N   UNK N   1      31.060  21.343  -5.275  0.00  0.00    -0.280 N 
HETATM    3  C   UNK N   1      31.720  20.872  -4.155  0.00  0.00     0.331 A 
HETATM    4  O   UNK N   1      32.533  19.969  -4.244  0.00  0.00    -0.246 OA
HETATM    5  N   UNK N   1      31.477  21.417  -2.933  0.00  0.00    -0.275 N 
HETATM    6  C   UNK N   1      30.608  22.448  -2.769  0.00  0.00     0.257 A 
HETATM    7  O   UNK N   1      30.468  22.919  -1.655  0.00  0.00    -0.267 OA
HETATM    8  C   UNK N   1      29.899  22.966  -3.876  0.00  0.00     0.037 A 
HETATM    9  H   UNK N   1      31.945  21.055  -2.146  0.00  0.00     0.173 HD
ENDROOT
BRANCH   1  10
HETATM   10  C   UNK N   1      29.326  22.902  -6.339  0.00  0.00     0.096 C 
BRANCH  10  11
HETATM   11  C   UNK N   1      27.999  22.396  -6.816  0.00  0.00    -0.053 A 
HETATM   12  C   UNK N   1      27.977  21.373  -7.771  0.00  0.00     0.007 A 
HETATM   13  C   UNK N   1      26.764  20.940  -8.313  0.00  0.00     0.001 A 
HETATM   14  C   UNK N   1      25.566  21.532  -7.902  0.00  0.00     0.000 A 
HETATM   15  C   UNK N   1      25.583  22.566  -6.961  0.00  0.00     0.001 A 
HETATM   16  C   UNK N   1      26.800  23.013  -6.433  0.00  0.00     0.007 A 
ENDBRANCH  10  11
ENDBRANCH   1  10
BRANCH   2  17
HETATM   17  C   UNK N   1      31.423  20.784  -6.582  0.00  0.00     0.303 C 
BRANCH  17  18
HETATM   18  O   UNK N   1      30.695  19.628  -6.877  0.00  0.00    -0.372 OA
BRANCH  18  19
HETATM   19  C   UNK N   1      31.003  19.369  -8.216  0.00  0.00     0.165 C 
HETATM   20  C   UNK N   1      30.065  18.320  -8.777  0.00  0.00     0.033 C 
ENDBRANCH  18  19
ENDBRANCH  17  18
ENDBRANCH   2  17
BRANCH   8  21
HETATM   21  C   UNK N   1      28.933  24.158  -3.669  0.00  0.00     0.018 C 
HETATM   22  C   UNK N   1      29.363  25.593  -3.928  0.00  0.00     0.015 C 
HETATM   23  C   UNK N   1      27.541  24.052  -3.068  0.00  0.00     0.015 C 
ENDBRANCH   8  21
TORSDOF 6
ENDMDL
MODEL 4
REMARK VINA RESULT:      -5.9     10.065     12.437
REMARK  6 active torsions:
REMARK  status: ('A' for Active; 'I' for Inactive)
REMARK    1  A    between atoms: C_1  and  C_15 
REMARK    2  A    between atoms: C_7  and  C_15 
REMARK    3  A    between atoms: N_8  and  C_19 
REMARK    4  A    between atoms: C_14  and  C_16 
REMARK    5  A    between atoms: C_19  and  O_20 
REMARK    6  A    between atoms: O_20  and  C_21 
ROOT
HETATM    1  C   UNK N   1      28.613  17.906   5.895  0.00  0.00     0.035 A 
HETATM    2  N   UNK N   1      28.072  18.214   4.657  0.00  0.00    -0.280 N 
HETATM    3  C   UNK N   1      27.248  19.315   4.514  0.00  0.00     0.331 A 
HETATM    4  O   UNK N   1      26.771  19.601   3.430  0.00  0.00    -0.246 OA
HETATM    5  N   UNK N   1      26.946  20.093   5.588  0.00  0.00    -0.275 N 
HETATM    6  C   UNK N   1      27.417  19.811   6.831  0.00  0.00     0.257 A 
HETATM    7  O   UNK N   1      27.075  20.523   7.757  0.00  0.00    -0.267 OA
HETATM    8  C   UNK N   1      28.270  18.703   7.036  0.00  0.00     0.037 A 
HETATM    9  H   UNK N   1      26.372  20.882   5.461  0.00  0.00     0.173 HD
ENDROOT
BRANCH   1  10
HETATM   10  C   UNK N   1      29.572  16.739   6.119  0.00  0.00     0.096 C 
BRANCH  10  11
HETATM   11  C   UNK N   1      31.067  16.786   6.038  0.00  0.00    -0.053 A 
HETATM   12  C   UNK N   1      31.812  16.357   7.142  0.00  0.00     0.007 A 
HETATM   13  C   UNK N   1      33.204  16.476   7.143  0.00  0.00     0.001 A 
HETATM   14  C   UNK N   1      33.858  17.027   6.037  0.00  0.00     0.000 A 
HETATM   15  C   UNK N   1      33.118  17.472   4.938  0.00  0.00     0.001 A 
HETATM   16  C   UNK N   1      31.722  17.372   4.946  0.00  0.00     0.007 A 
ENDBRANCH  10  11
ENDBRANCH   1  10
BRANCH   2  17
HETATM   17  C   UNK N   1      28.293  17.355   3.487  0.00  0.00     0.303 C 
BRANCH  17  18
HETATM   18  O   UNK N   1      27.312  16.365   3.374  0.00  0.00    -0.372 OA
BRANCH  18  19
HETATM   19  C   UNK N   1      27.913  15.386   2.576  0.00  0.00     0.165 C 
HETATM   20  C   UNK N   1      29.417  15.565   2.570  0.00  0.00     0.033 C 
ENDBRANCH  18  19
ENDBRANCH  17  18
ENDBRANCH   2  17
BRANCH   8  21
HETATM   21  C   UNK N   1      28.772  18.386   8.465  0.00  0.00     0.018 C 
HETATM   22  C   UNK N   1      30.079  18.950   9.000  0.00  0.00     0.015 C 
HETATM   23  C   UNK N   1      28.118  17.395   9.414  0.00  0.00     0.015 C 
ENDBRANCH   8  21
TORSDOF 6
ENDMDL
MODEL 5
REMARK VINA RESULT:      -5.9     10.719     13.779
REMARK  6 active torsions:
REMARK  status: ('A' for Active; 'I' for Inactive)
REMARK    1  A    between atoms: C_1  and  C_15 
REMARK    2  A    between atoms: C_7  and  C_15 
REMARK    3  A    between atoms: N_8  and  C_19 
REMARK    4  A    between atoms: C_14  and  C_16 
REMARK    5  A    between atoms: C_19  and  O_20 
REMARK    6  A    between atoms: O_20  and  C_21 
ROOT
HETATM    1  C   UNK N   1      30.265  16.720   6.085  0.00  0.00     0.035 A 
HETATM    2  N   UNK N   1      29.278  17.682   6.230  0.00  0.00    -0.280 N 
HETATM    3  C   UNK N   1      28.601  18.156   5.121  0.00  0.00     0.331 A 
HETATM    4  O   UNK N   1      27.727  18.996   5.236  0.00  0.00    -0.246 OA
HETATM    5  N   UNK N   1      28.909  17.695   3.879  0.00  0.00    -0.275 N 
HETATM    6  C   UNK N   1      29.896  16.783   3.678  0.00  0.00     0.257 A 
HETATM    7  O   UNK N   1      30.149  16.444   2.536  0.00  0.00    -0.267 OA
HETATM    8  C   UNK N   1      30.616  16.258   4.773  0.00  0.00     0.037 A 
HETATM    9  H   UNK N   1      28.403  18.032   3.105  0.00  0.00     0.173 HD
ENDROOT
BRANCH   1  10
HETATM   10  C   UNK N   1      31.019  16.112   7.266  0.00  0.00     0.096 C 
BRANCH  10  11
HETATM   11  C   UNK N   1      32.339  16.565   7.809  0.00  0.00    -0.053 A 
HETATM   12  C   UNK N   1      32.972  15.776   8.775  0.00  0.00     0.007 A 
HETATM   13  C   UNK N   1      34.157  16.212   9.376  0.00  0.00     0.001 A 
HETATM   14  C   UNK N   1      34.711  17.442   9.014  0.00  0.00     0.000 A 
HETATM   15  C   UNK N   1      34.074  18.242   8.061  0.00  0.00     0.001 A 
HETATM   16  C   UNK N   1      32.877  17.815   7.474  0.00  0.00     0.007 A 
ENDBRANCH  10  11
ENDBRANCH   1  10
BRANCH   2  17
HETATM   17  C   UNK N   1      28.973  18.276   7.537  0.00  0.00     0.303 C 
BRANCH  17  18
HETATM   18  O   UNK N   1      28.009  17.540   8.233  0.00  0.00    -0.372 OA
BRANCH  18  19
HETATM   19  C   UNK N   1      28.473  17.543   9.552  0.00  0.00     0.165 C 
HETATM   20  C   UNK N   1      29.596  18.546   9.711  0.00  0.00     0.033 C 
ENDBRANCH  18  19
ENDBRANCH  17  18
ENDBRANCH   2  17
BRANCH   8  21
HETATM   21  C   UNK N   1      31.753  15.240   4.517  0.00  0.00     0.018 C 
HETATM   22  C   UNK N   1      33.178  15.684   4.229  0.00  0.00     0.015 C 
HETATM   23  C   UNK N   1      31.559  13.738   4.385  0.00  0.00     0.015 C 
ENDBRANCH   8  21
TORSDOF 6
ENDMDL
MODEL 6
REMARK VINA RESULT:      -5.8     22.573     25.505
REMARK  6 active torsions:
REMARK  status: ('A' for Active; 'I' for Inactive)
REMARK    1  A    between atoms: C_1  and  C_15 
REMARK    2  A    between atoms: C_7  and  C_15 
REMARK    3  A    between atoms: N_8  and  C_19 
REMARK    4  A    between atoms: C_14  and  C_16 
REMARK    5  A    between atoms: C_19  and  O_20 
REMARK    6  A    between atoms: O_20  and  C_21 
ROOT
HETATM    1  C   UNK N   1      35.001  11.193  17.412  0.00  0.00     0.035 A 
HETATM    2  N   UNK N   1      35.057  12.578  17.383  0.00  0.00    -0.280 N 
HETATM    3  C   UNK N   1      35.265  13.290  18.549  0.00  0.00     0.331 A 
HETATM    4  O   UNK N   1      35.323  14.507  18.536  0.00  0.00    -0.246 OA
HETATM    5  N   UNK N   1      35.399  12.641  19.737  0.00  0.00    -0.275 N 
HETATM    6  C   UNK N   1      35.311  11.288  19.827  0.00  0.00     0.257 A 
HETATM    7  O   UNK N   1      35.397  10.772  20.927  0.00  0.00    -0.267 OA
HETATM    8  C   UNK N   1      35.107  10.507  18.668  0.00  0.00     0.037 A 
HETATM    9  H   UNK N   1      35.564  13.165  20.553  0.00  0.00     0.173 HD
ENDROOT
BRANCH   1  10
HETATM   10  C   UNK N   1      34.827  10.337  16.160  0.00  0.00     0.096 C 
BRANCH  10  11
HETATM   11  C   UNK N   1      35.916   9.860  15.248  0.00  0.00    -0.053 A 
HETATM   12  C   UNK N   1      37.245  10.123  15.598  0.00  0.00     0.007 A 
HETATM   13  C   UNK N   1      38.284   9.780  14.728  0.00  0.00     0.001 A 
HETATM   14  C   UNK N   1      37.996   9.175  13.502  0.00  0.00     0.000 A 
HETATM   15  C   UNK N   1      36.669   8.926  13.139  0.00  0.00     0.001 A 
HETATM   16  C   UNK N   1      35.627   9.288  14.002  0.00  0.00     0.007 A 
ENDBRANCH  10  11
ENDBRANCH   1  10
BRANCH   2  17
HETATM   17  C   UNK N   1      34.828  13.328  16.142  0.00  0.00     0.303 C 
BRANCH  17  18
HETATM   18  O   UNK N   1      36.014  13.536  15.431  0.00  0.00    -0.372 OA
BRANCH  18  19
HETATM   19  C   UNK N   1      35.605  13.554  14.094  0.00  0.00     0.165 C 
HETATM   20  C   UNK N   1      36.656  12.908  13.215  0.00  0.00     0.033 C 
ENDBRANCH  18  19
ENDBRANCH  17  18
ENDBRANCH   2  17
BRANCH   8  21
HETATM   21  C   UNK N   1      34.983   8.970  18.798  0.00  0.00     0.018 C 
HETATM   22  C   UNK N   1      33.672   8.300  19.176  0.00  0.00     0.015 C 
HETATM   23  C   UNK N   1      36.147   7.996  18.710  0.00  0.00     0.015 C 
ENDBRANCH   8  21
TORSDOF 6
ENDMDL
MODEL 7
REMARK VINA RESULT:      -5.6      2.608      3.659
REMARK  6 active torsions:
REMARK  status: ('A' for Active; 'I' for Inactive)
REMARK    1  A    between atoms: C_1  and  C_15 
REMARK    2  A    between atoms: C_7  and  C_15 
REMARK    3  A    between atoms: N_8  and  C_19 
REMARK    4  A    between atoms: C_14  and  C_16 
REMARK    5  A    between atoms: C_19  and  O_20 
REMARK    6  A    between atoms: O_20  and  C_21 
ROOT
HETATM    1  C   UNK N   1      28.019  25.469  -5.021  0.00  0.00     0.035 A 
HETATM    2  N   UNK N   1      29.285  25.495  -4.457  0.00  0.00    -0.280 N 
HETATM    3  C   UNK N   1      30.006  26.674  -4.423  0.00  0.00     0.331 A 
HETATM    4  O   UNK N   1      31.117  26.712  -3.925  0.00  0.00    -0.246 OA
HETATM    5  N   UNK N   1      29.488  27.813  -4.956  0.00  0.00    -0.275 N 
HETATM    6  C   UNK N   1      28.269  27.833  -5.556  0.00  0.00     0.257 A 
HETATM    7  O   UNK N   1      27.882  28.876  -6.051  0.00  0.00    -0.267 OA
HETATM    8  C   UNK N   1      27.484  26.659  -5.615  0.00  0.00     0.037 A 
HETATM    9  H   UNK N   1      30.010  28.646  -4.905  0.00  0.00     0.173 HD
ENDROOT
BRANCH   1  10
HETATM   10  C   UNK N   1      27.143  24.218  -5.048  0.00  0.00     0.096 C 
BRANCH  10  11
HETATM   11  C   UNK N   1      27.019  23.243  -6.178  0.00  0.00    -0.053 A 
HETATM   12  C   UNK N   1      25.739  22.857  -6.592  0.00  0.00     0.007 A 
HETATM   13  C   UNK N   1      25.582  21.877  -7.577  0.00  0.00     0.001 A 
HETATM   14  C   UNK N   1      26.706  21.277  -8.150  0.00  0.00     0.000 A 
HETATM   15  C   UNK N   1      27.987  21.646  -7.728  0.00  0.00     0.001 A 
HETATM   16  C   UNK N   1      28.144  22.613  -6.728  0.00  0.00     0.007 A 
ENDBRANCH  10  11
ENDBRANCH   1  10
BRANCH   2  17
HETATM   17  C   UNK N   1      29.925  24.275  -3.952  0.00  0.00     0.303 C 
BRANCH  17  18
HETATM   18  O   UNK N   1      29.712  24.103  -2.580  0.00  0.00    -0.372 OA
BRANCH  18  19
HETATM   19  C   UNK N   1      30.287  22.859  -2.304  0.00  0.00     0.165 C 
HETATM   20  C   UNK N   1      30.175  21.950  -3.511  0.00  0.00     0.033 C 
ENDBRANCH  18  19
ENDBRANCH  17  18
ENDBRANCH   2  17
BRANCH   8  21
HETATM   21  C   UNK N   1      26.111  26.699  -6.327  0.00  0.00     0.018 C 
HETATM   22  C   UNK N   1      24.823  26.985  -5.571  0.00  0.00     0.015 C 
HETATM   23  C   UNK N   1      25.877  26.329  -7.783  0.00  0.00     0.015 C 
ENDBRANCH   8  21
TORSDOF 6
ENDMDL
MODEL 8
REMARK VINA RESULT:      -5.6     10.916     13.043
REMARK  6 active torsions:
REMARK  status: ('A' for Active; 'I' for Inactive)
REMARK    1  A    between atoms: C_1  and  C_15 
REMARK    2  A    between atoms: C_7  and  C_15 
REMARK    3  A    between atoms: N_8  and  C_19 
REMARK    4  A    between atoms: C_14  and  C_16 
REMARK    5  A    between atoms: C_19  and  O_20 
REMARK    6  A    between atoms: O_20  and  C_21 
ROOT
HETATM    1  C   UNK N   1      30.288  17.498   6.665  0.00  0.00     0.035 A 
HETATM    2  N   UNK N   1      29.498  17.967   7.703  0.00  0.00    -0.280 N 
HETATM    3  C   UNK N   1      30.012  18.053   8.983  0.00  0.00     0.331 A 
HETATM    4  O   UNK N   1      29.331  18.470   9.903  0.00  0.00    -0.246 OA
HETATM    5  N   UNK N   1      31.289  17.661   9.239  0.00  0.00    -0.275 N 
HETATM    6  C   UNK N   1      32.091  17.155   8.266  0.00  0.00     0.257 A 
HETATM    7  O   UNK N   1      33.210  16.783   8.571  0.00  0.00    -0.267 OA
HETATM    8  C   UNK N   1      31.623  17.051   6.937  0.00  0.00     0.037 A 
HETATM    9  H   UNK N   1      31.642  17.746  10.154  0.00  0.00     0.173 HD
ENDROOT
BRANCH   1  10
HETATM   10  C   UNK N   1      29.807  17.425   5.217  0.00  0.00     0.096 C 
BRANCH  10  11
HETATM   11  C   UNK N   1      29.269  16.214   4.517  0.00  0.00    -0.053 A 
HETATM   12  C   UNK N   1      29.101  16.263   3.129  0.00  0.00     0.007 A 
HETATM   13  C   UNK N   1      28.513  15.191   2.452  0.00  0.00     0.001 A 
HETATM   14  C   UNK N   1      28.085  14.066   3.163  0.00  0.00     0.000 A 
HETATM   15  C   UNK N   1      28.234  14.020   4.553  0.00  0.00     0.001 A 
HETATM   16  C   UNK N   1      28.806  15.101   5.233  0.00  0.00     0.007 A 
ENDBRANCH  10  11
ENDBRANCH   1  10
BRANCH   2  17
HETATM   17  C   UNK N   1      28.087  18.316   7.496  0.00  0.00     0.303 C 
BRANCH  17  18
HETATM   18  O   UNK N   1      27.896  19.699   7.419  0.00  0.00    -0.372 OA
BRANCH  18  19
HETATM   19  C   UNK N   1      27.244  19.881   6.196  0.00  0.00     0.165 C 
HETATM   20  C   UNK N   1      27.045  21.357   5.922  0.00  0.00     0.033 C 
ENDBRANCH  18  19
ENDBRANCH  17  18
ENDBRANCH   2  17
BRANCH   8  21
HETATM   21  C   UNK N   1      32.545  16.448   5.851  0.00  0.00     0.018 C 
HETATM   22  C   UNK N   1      33.394  17.323   4.943  0.00  0.00     0.015 C 
HETATM   23  C   UNK N   1      32.600  14.974   5.481  0.00  0.00     0.015 C 
ENDBRANCH   8  21
TORSDOF 6
ENDMDL
MODEL 9
REMARK VINA RESULT:      -5.6      2.611      4.851
REMARK  6 active torsions:
REMARK  status: ('A' for Active; 'I' for Inactive)
REMARK    1  A    between atoms: C_1  and  C_15 
REMARK    2  A    between atoms: C_7  and  C_15 
REMARK    3  A    between atoms: N_8  and  C_19 
REMARK    4  A    between atoms: C_14  and  C_16 
REMARK    5  A    between atoms: C_19  and  O_20 
REMARK    6  A    between atoms: O_20  and  C_21 
ROOT
HETATM    1  C   UNK N   1      28.088  22.769  -6.907  0.00  0.00     0.035 A 
HETATM    2  N   UNK N   1      27.306  23.695  -6.234  0.00  0.00    -0.280 N 
HETATM    3  C   UNK N   1      25.929  23.562  -6.219  0.00  0.00     0.331 A 
HETATM    4  O   UNK N   1      25.231  24.365  -5.626  0.00  0.00    -0.246 OA
HETATM    5  N   UNK N   1      25.331  22.532  -6.876  0.00  0.00    -0.275 N 
HETATM    6  C   UNK N   1      26.048  21.622  -7.584  0.00  0.00     0.257 A 
HETATM    7  O   UNK N   1      25.448  20.749  -8.185  0.00  0.00    -0.267 OA
HETATM    8  C   UNK N   1      27.458  21.703  -7.630  0.00  0.00     0.037 A 
HETATM    9  H   UNK N   1      24.351  22.445  -6.838  0.00  0.00     0.173 HD
ENDROOT
BRANCH   1  10
HETATM   10  C   UNK N   1      29.614  22.822  -6.925  0.00  0.00     0.096 C 
BRANCH  10  11
HETATM   11  C   UNK N   1      30.538  22.212  -5.916  0.00  0.00    -0.053 A 
HETATM   12  C   UNK N   1      29.989  21.448  -4.880  0.00  0.00     0.007 A 
HETATM   13  C   UNK N   1      30.808  20.944  -3.866  0.00  0.00     0.001 A 
HETATM   14  C   UNK N   1      32.181  21.204  -3.883  0.00  0.00     0.000 A 
HETATM   15  C   UNK N   1      32.732  21.981  -4.906  0.00  0.00     0.001 A 
HETATM   16  C   UNK N   1      31.909  22.503  -5.911  0.00  0.00     0.007 A 
ENDBRANCH  10  11
ENDBRANCH   1  10
BRANCH   2  17
HETATM   17  C   UNK N   1      27.897  24.873  -5.587  0.00  0.00     0.303 C 
BRANCH  17  18
HETATM   18  O   UNK N   1      28.343  24.588  -4.293  0.00  0.00    -0.372 OA
BRANCH  18  19
HETATM   19  C   UNK N   1      29.379  25.505  -4.086  0.00  0.00     0.165 C 
HETATM   20  C   UNK N   1      30.533  24.839  -3.366  0.00  0.00     0.033 C 
ENDBRANCH  18  19
ENDBRANCH  17  18
ENDBRANCH   2  17
BRANCH   8  21
HETATM   21  C   UNK N   1      28.252  20.670  -8.465  0.00  0.00     0.018 C 
HETATM   22  C   UNK N   1      28.873  19.435  -7.833  0.00  0.00     0.015 C 
HETATM   23  C   UNK N   1      28.616  20.835  -9.932  0.00  0.00     0.015 C 
ENDBRANCH   8  21
TORSDOF 6
ENDMDL
