REMARK  5 active torsions:
REMARK  status: ('A' for Active; 'I' for Inactive)
REMARK       I    between atoms: C_3  and  N_4 
REMARK    1  A    between atoms: C_7  and  N_8 
REMARK    2  A    between atoms: C_12  and  C_17 
REMARK    3  A    between atoms: C_17  and  C_18 
REMARK    4  A    between atoms: C_19  and  O_20 
REMARK    5  A    between atoms: C_24  and  O_25 
ROOT
HETATM    1  N   UNK N   1      -3.016  -3.640  -0.731  0.00  0.00    -0.176 N 
ATOM      2  HN  UNK N   1      -2.933  -4.494  -1.283  1.00  0.00     0.186 HD
HETATM    3  C   UNK N   1      -4.239  -3.239  -0.305  0.00  0.00     0.679 A 
HETATM    4  N   UNK N   1      -5.377  -4.008  -0.614  0.00  0.00    -0.234 N 
HETATM    5  N   UNK N   1      -4.368  -2.099   0.416  0.00  0.00    -0.176 N 
ATOM      6  HN  UNK N   1      -5.297  -1.802   0.715  1.00  0.00     0.186 HD
HETATM    7  C   UNK N   1      -3.291  -1.342   0.750  0.00  0.00     0.129 A 
HETATM    8  C   UNK N   1      -1.993  -1.745   0.337  0.00  0.00     0.059 A 
HETATM    9  C   UNK N   1      -0.792  -1.047   0.656  0.00  0.00    -0.036 A 
HETATM   10  C   UNK N   1      -0.807   0.156   1.547  0.00  0.00     0.050 C 
HETATM   11  C   UNK N   1       0.441  -1.527   0.148  0.00  0.00    -0.031 A 
HETATM   12  C   UNK N   1       0.451  -2.689  -0.622  0.00  0.00     0.097 A 
HETATM   13  N   UNK N   1      -0.697  -3.359  -0.888  0.00  0.00    -0.351 N 
ATOM     14  HN  UNK N   1      -0.654  -4.213  -1.444  1.00  0.00     0.166 HD
HETATM   15  C   UNK N   1      -1.901  -2.925  -0.438  0.00  0.00     0.135 A 
HETATM   16  H   UNK N   1      -6.241  -3.587  -0.829  0.00  0.00     0.174 HD
HETATM   17  H   UNK N   1      -5.308  -4.990  -0.614  0.00  0.00     0.174 HD
ENDROOT
BRANCH  11  18
HETATM   18  C   UNK N   1       1.784  -0.904   0.452  0.00  0.00     0.082 C 
BRANCH  18  19
HETATM   19  C   UNK N   1       2.077   0.530   0.056  0.00  0.00    -0.018 A 
HETATM   20  C   UNK N   1       3.405   1.057   0.100  0.00  0.00     0.074 A 
HETATM   21  C   UNK N   1       3.606   2.414  -0.181  0.00  0.00     0.040 A 
HETATM   22  C   UNK N   1       2.539   3.252  -0.493  0.00  0.00     0.039 A 
HETATM   23  C   UNK N   1       1.237   2.741  -0.551  0.00  0.00     0.068 A 
HETATM   24  C   UNK N   1       1.023   1.389  -0.290  0.00  0.00     0.047 A 
BRANCH  20  25
HETATM   25  O   UNK N   1       4.513   0.325   0.403  0.00  0.00    -0.355 OA
HETATM   26  C   UNK N   1       4.575  -1.038   0.571  0.00  0.00     0.210 C 
ENDBRANCH  20  25
BRANCH  23  27
HETATM   27  O   UNK N   1       0.173   3.534  -0.824  0.00  0.00    -0.356 OA
HETATM   28  C   UNK N   1       0.270   4.897  -0.988  0.00  0.00     0.210 C 
ENDBRANCH  23  27
ENDBRANCH  18  19
ENDBRANCH  11  18
BRANCH   7  29
HETATM   29  N   UNK N   1      -3.505  -0.159   1.488  0.00  0.00    -0.384 N 
HETATM   30  H   UNK N   1      -2.864   0.383   2.004  0.00  0.00     0.157 HD
HETATM   31  H   UNK N   1      -4.431   0.174   1.488  0.00  0.00     0.157 HD
ENDBRANCH   7  29
TORSDOF 5
