MODEL 1
REMARK VINA RESULT:      -7.2      0.000      0.000
REMARK  5 active torsions:
REMARK  status: ('A' for Active; 'I' for Inactive)
REMARK       I    between atoms: C_3  and  N_4 
REMARK    1  A    between atoms: C_7  and  N_8 
REMARK    2  A    between atoms: C_12  and  C_17 
REMARK    3  A    between atoms: C_17  and  C_18 
REMARK    4  A    between atoms: C_19  and  O_20 
REMARK    5  A    between atoms: C_24  and  O_25 
ROOT
HETATM    1  N   UNK N   1      28.380  19.155   8.682  0.00  0.00    -0.176 N 
ATOM      2  HN  UNK N   1      28.037  19.752   9.435  1.00  0.00     0.186 HD
HETATM    3  C   UNK N   1      29.351  18.246   8.944  0.00  0.00     0.679 A 
HETATM    4  N   UNK N   1      29.865  18.123  10.248  0.00  0.00    -0.234 N 
HETATM    5  N   UNK N   1      29.828  17.456   7.951  0.00  0.00    -0.176 N 
ATOM      6  HN  UNK N   1      30.570  16.788   8.160  1.00  0.00     0.186 HD
HETATM    7  C   UNK N   1      29.342  17.532   6.685  0.00  0.00     0.129 A 
HETATM    8  C   UNK N   1      28.310  18.460   6.382  0.00  0.00     0.059 A 
HETATM    9  C   UNK N   1      27.706  18.604   5.100  0.00  0.00    -0.036 A 
HETATM   10  C   UNK N   1      28.072  17.701   3.963  0.00  0.00     0.050 C 
HETATM   11  C   UNK N   1      26.713  19.598   4.912  0.00  0.00    -0.031 A 
HETATM   12  C   UNK N   1      26.329  20.386   5.996  0.00  0.00     0.097 A 
HETATM   13  N   UNK N   1      26.891  20.213   7.217  0.00  0.00    -0.351 N 
ATOM     14  HN  UNK N   1      26.579  20.798   7.993  1.00  0.00     0.166 HD
HETATM   15  C   UNK N   1      27.858  19.287   7.437  0.00  0.00     0.135 A 
HETATM   16  H   UNK N   1      30.819  17.942  10.412  0.00  0.00     0.174 HD
HETATM   17  H   UNK N   1      29.256  18.220  11.016  0.00  0.00     0.174 HD
ENDROOT
BRANCH  11  18
HETATM   18  C   UNK N   1      25.967  19.818   3.616  0.00  0.00     0.082 C 
BRANCH  18  19
HETATM   19  C   UNK N   1      24.461  19.645   3.554  0.00  0.00    -0.018 A 
HETATM   20  C   UNK N   1      23.821  18.494   4.108  0.00  0.00     0.074 A 
HETATM   21  C   UNK N   1      22.440  18.337   3.936  0.00  0.00     0.040 A 
HETATM   22  C   UNK N   1      21.690  19.275   3.233  0.00  0.00     0.039 A 
HETATM   23  C   UNK N   1      22.307  20.412   2.697  0.00  0.00     0.068 A 
HETATM   24  C   UNK N   1      23.677  20.590   2.874  0.00  0.00     0.047 A 
BRANCH  20  25
HETATM   25  O   UNK N   1      24.465  17.516   4.804  0.00  0.00    -0.355 OA
HETATM   26  C   UNK N   1      24.655  16.215   4.405  0.00  0.00     0.210 C 
ENDBRANCH  20  25
BRANCH  23  27
HETATM   27  O   UNK N   1      21.611  21.329   1.984  0.00  0.00    -0.356 OA
HETATM   28  C   UNK N   1      20.520  21.012   1.208  0.00  0.00     0.210 C 
ENDBRANCH  23  27
ENDBRANCH  18  19
ENDBRANCH  11  18
BRANCH   7  29
HETATM   29  N   UNK N   1      29.900  16.690   5.701  0.00  0.00    -0.384 N 
HETATM   30  H   UNK N   1      29.487  16.316   4.888  0.00  0.00     0.157 HD
HETATM   31  H   UNK N   1      30.840  16.438   5.848  0.00  0.00     0.157 HD
ENDBRANCH   7  29
TORSDOF 5
ENDMDL
MODEL 2
REMARK VINA RESULT:      -7.1      5.437      8.192
REMARK  5 active torsions:
REMARK  status: ('A' for Active; 'I' for Inactive)
REMARK       I    between atoms: C_3  and  N_4 
REMARK    1  A    between atoms: C_7  and  N_8 
REMARK    2  A    between atoms: C_12  and  C_17 
REMARK    3  A    between atoms: C_17  and  C_18 
REMARK    4  A    between atoms: C_19  and  O_20 
REMARK    5  A    between atoms: C_24  and  O_25 
ROOT
HETATM    1  N   UNK N   1      21.534  19.893   2.543  0.00  0.00    -0.176 N 
ATOM      2  HN  UNK N   1      21.983  20.786   2.750  1.00  0.00     0.186 HD
HETATM    3  C   UNK N   1      20.696  19.799   1.482  0.00  0.00     0.679 A 
HETATM    4  N   UNK N   1      20.464  20.924   0.669  0.00  0.00    -0.234 N 
HETATM    5  N   UNK N   1      20.081  18.624   1.203  0.00  0.00    -0.176 N 
ATOM      6  HN  UNK N   1      19.440  18.574   0.411  1.00  0.00     0.186 HD
HETATM    7  C   UNK N   1      20.296  17.513   1.953  0.00  0.00     0.129 A 
HETATM    8  C   UNK N   1      21.184  17.572   3.060  0.00  0.00     0.059 A 
HETATM    9  C   UNK N   1      21.508  16.463   3.895  0.00  0.00    -0.036 A 
HETATM   10  C   UNK N   1      20.980  15.093   3.605  0.00  0.00     0.050 C 
HETATM   11  C   UNK N   1      22.377  16.660   4.997  0.00  0.00    -0.031 A 
HETATM   12  C   UNK N   1      22.920  17.925   5.216  0.00  0.00     0.097 A 
HETATM   13  N   UNK N   1      22.627  18.961   4.392  0.00  0.00    -0.351 N 
ATOM     14  HN  UNK N   1      23.051  19.871   4.572  1.00  0.00     0.166 HD
HETATM   15  C   UNK N   1      21.786  18.822   3.337  0.00  0.00     0.135 A 
HETATM   16  H   UNK N   1      19.576  21.109   0.285  0.00  0.00     0.174 HD
HETATM   17  H   UNK N   1      21.207  21.541   0.478  0.00  0.00     0.174 HD
ENDROOT
BRANCH  11  18
HETATM   18  C   UNK N   1      22.832  15.557   5.926  0.00  0.00     0.082 C 
BRANCH  18  19
HETATM   19  C   UNK N   1      22.047  15.234   7.182  0.00  0.00    -0.018 A 
HETATM   20  C   UNK N   1      22.474  14.209   8.082  0.00  0.00     0.074 A 
HETATM   21  C   UNK N   1      21.661  13.883   9.175  0.00  0.00     0.040 A 
HETATM   22  C   UNK N   1      20.448  14.532   9.390  0.00  0.00     0.039 A 
HETATM   23  C   UNK N   1      20.029  15.546   8.520  0.00  0.00     0.068 A 
HETATM   24  C   UNK N   1      20.835  15.893   7.438  0.00  0.00     0.047 A 
BRANCH  20  25
HETATM   25  O   UNK N   1      23.636  13.509   7.955  0.00  0.00    -0.355 OA
HETATM   26  C   UNK N   1      24.565  13.275   8.941  0.00  0.00     0.210 C 
ENDBRANCH  20  25
BRANCH  23  27
HETATM   27  O   UNK N   1      18.842  16.179   8.685  0.00  0.00    -0.356 OA
HETATM   28  C   UNK N   1      18.735  17.488   9.095  0.00  0.00     0.210 C 
ENDBRANCH  23  27
ENDBRANCH  18  19
ENDBRANCH  11  18
BRANCH   7  29
HETATM   29  N   UNK N   1      19.607  16.330   1.613  0.00  0.00    -0.384 N 
HETATM   30  H   UNK N   1      19.428  15.529   2.158  0.00  0.00     0.157 HD
HETATM   31  H   UNK N   1      19.253  16.299   0.695  0.00  0.00     0.157 HD
ENDBRANCH   7  29
TORSDOF 5
ENDMDL
MODEL 3
REMARK VINA RESULT:      -6.9      5.526      8.246
REMARK  5 active torsions:
REMARK  status: ('A' for Active; 'I' for Inactive)
REMARK       I    between atoms: C_3  and  N_4 
REMARK    1  A    between atoms: C_7  and  N_8 
REMARK    2  A    between atoms: C_12  and  C_17 
REMARK    3  A    between atoms: C_17  and  C_18 
REMARK    4  A    between atoms: C_19  and  O_20 
REMARK    5  A    between atoms: C_24  and  O_25 
ROOT
HETATM    1  N   UNK N   1      19.965  19.235   1.744  0.00  0.00    -0.176 N 
ATOM      2  HN  UNK N   1      19.082  19.128   1.243  1.00  0.00     0.186 HD
HETATM    3  C   UNK N   1      20.725  20.337   1.525  0.00  0.00     0.679 A 
HETATM    4  N   UNK N   1      20.285  21.326   0.625  0.00  0.00    -0.234 N 
HETATM    5  N   UNK N   1      21.907  20.486   2.171  0.00  0.00    -0.176 N 
ATOM      6  HN  UNK N   1      22.475  21.312   1.983  1.00  0.00     0.186 HD
HETATM    7  C   UNK N   1      22.354  19.563   3.061  0.00  0.00     0.129 A 
HETATM    8  C   UNK N   1      21.573  18.407   3.328  0.00  0.00     0.059 A 
HETATM    9  C   UNK N   1      21.928  17.392   4.263  0.00  0.00    -0.036 A 
HETATM   10  C   UNK N   1      23.151  17.516   5.116  0.00  0.00     0.050 C 
HETATM   11  C   UNK N   1      21.083  16.263   4.409  0.00  0.00    -0.031 A 
HETATM   12  C   UNK N   1      19.910  16.192   3.660  0.00  0.00     0.097 A 
HETATM   13  N   UNK N   1      19.571  17.183   2.800  0.00  0.00    -0.351 N 
ATOM     14  HN  UNK N   1      18.699  17.107   2.276  1.00  0.00     0.166 HD
HETATM   15  C   UNK N   1      20.358  18.272   2.614  0.00  0.00     0.135 A 
HETATM   16  H   UNK N   1      20.914  21.805   0.038  0.00  0.00     0.174 HD
HETATM   17  H   UNK N   1      19.326  21.544   0.583  0.00  0.00     0.174 HD
ENDROOT
BRANCH  11  18
HETATM   18  C   UNK N   1      21.325  15.145   5.397  0.00  0.00     0.082 C 
BRANCH  18  19
HETATM   19  C   UNK N   1      20.817  15.250   6.821  0.00  0.00    -0.018 A 
HETATM   20  C   UNK N   1      21.072  14.220   7.780  0.00  0.00     0.074 A 
HETATM   21  C   UNK N   1      20.496  14.320   9.052  0.00  0.00     0.040 A 
HETATM   22  C   UNK N   1      19.680  15.395   9.393  0.00  0.00     0.039 A 
HETATM   23  C   UNK N   1      19.436  16.415   8.464  0.00  0.00     0.068 A 
HETATM   24  C   UNK N   1      20.015  16.338   7.199  0.00  0.00     0.047 A 
BRANCH  20  25
HETATM   25  O   UNK N   1      21.846  13.125   7.543  0.00  0.00    -0.355 OA
HETATM   26  C   UNK N   1      22.188  12.151   8.451  0.00  0.00     0.210 C 
ENDBRANCH  20  25
BRANCH  23  27
HETATM   27  O   UNK N   1      18.625  17.461   8.753  0.00  0.00    -0.356 OA
HETATM   28  C   UNK N   1      17.477  17.341   9.503  0.00  0.00     0.210 C 
ENDBRANCH  23  27
ENDBRANCH  18  19
ENDBRANCH  11  18
BRANCH   7  29
HETATM   29  N   UNK N   1      23.603  19.778   3.681  0.00  0.00    -0.384 N 
HETATM   30  H   UNK N   1      24.129  20.608   3.760  0.00  0.00     0.157 HD
HETATM   31  H   UNK N   1      24.008  18.983   4.096  0.00  0.00     0.157 HD
ENDBRANCH   7  29
TORSDOF 5
ENDMDL
MODEL 4
REMARK VINA RESULT:      -6.9      6.406      8.952
REMARK  5 active torsions:
REMARK  status: ('A' for Active; 'I' for Inactive)
REMARK       I    between atoms: C_3  and  N_4 
REMARK    1  A    between atoms: C_7  and  N_8 
REMARK    2  A    between atoms: C_12  and  C_17 
REMARK    3  A    between atoms: C_17  and  C_18 
REMARK    4  A    between atoms: C_19  and  O_20 
REMARK    5  A    between atoms: C_24  and  O_25 
ROOT
HETATM    1  N   UNK N   1      35.939  15.610  11.727  0.00  0.00    -0.176 N 
ATOM      2  HN  UNK N   1      35.957  16.304  12.475  1.00  0.00     0.186 HD
HETATM    3  C   UNK N   1      36.351  14.344  11.985  0.00  0.00     0.679 A 
HETATM    4  N   UNK N   1      36.785  13.996  13.278  0.00  0.00    -0.234 N 
HETATM    5  N   UNK N   1      36.348  13.414  10.999  0.00  0.00    -0.176 N 
ATOM      6  HN  UNK N   1      36.677  12.471  11.204  1.00  0.00     0.186 HD
HETATM    7  C   UNK N   1      35.918  13.708   9.745  0.00  0.00     0.129 A 
HETATM    8  C   UNK N   1      35.460  15.019   9.447  0.00  0.00     0.059 A 
HETATM    9  C   UNK N   1      34.958  15.430   8.178  0.00  0.00    -0.036 A 
HETATM   10  C   UNK N   1      34.798  14.454   7.054  0.00  0.00     0.050 C 
HETATM   11  C   UNK N   1      34.570  16.780   7.993  0.00  0.00    -0.031 A 
HETATM   12  C   UNK N   1      34.657  17.664   9.068  0.00  0.00     0.097 A 
HETATM   13  N   UNK N   1      35.105  17.248  10.278  0.00  0.00    -0.351 N 
ATOM     14  HN  UNK N   1      35.145  17.917  11.047  1.00  0.00     0.166 HD
HETATM   15  C   UNK N   1      35.505  15.970  10.494  0.00  0.00     0.135 A 
HETATM   16  H   UNK N   1      37.535  13.373  13.420  0.00  0.00     0.174 HD
HETATM   17  H   UNK N   1      36.328  14.384  14.059  0.00  0.00     0.174 HD
ENDROOT
BRANCH  11  18
HETATM   18  C   UNK N   1      33.982  17.326   6.713  0.00  0.00     0.082 C 
BRANCH  18  19
HETATM   19  C   UNK N   1      32.488  17.260   6.460  0.00  0.00    -0.018 A 
HETATM   20  C   UNK N   1      31.952  17.366   5.139  0.00  0.00     0.074 A 
HETATM   21  C   UNK N   1      30.562  17.398   4.971  0.00  0.00     0.040 A 
HETATM   22  C   UNK N   1      29.702  17.336   6.064  0.00  0.00     0.039 A 
HETATM   23  C   UNK N   1      30.219  17.219   7.360  0.00  0.00     0.068 A 
HETATM   24  C   UNK N   1      31.599  17.170   7.542  0.00  0.00     0.047 A 
BRANCH  20  25
HETATM   25  O   UNK N   1      32.706  17.441   4.007  0.00  0.00    -0.355 OA
HETATM   26  C   UNK N   1      33.011  16.408   3.154  0.00  0.00     0.210 C 
ENDBRANCH  20  25
BRANCH  23  27
HETATM   27  O   UNK N   1      29.411  17.185   8.447  0.00  0.00    -0.356 OA
HETATM   28  C   UNK N   1      28.868  18.312   9.020  0.00  0.00     0.210 C 
ENDBRANCH  23  27
ENDBRANCH  18  19
ENDBRANCH  11  18
BRANCH   7  29
HETATM   29  N   UNK N   1      35.960  12.693   8.766  0.00  0.00    -0.384 N 
HETATM   30  H   UNK N   1      36.425  11.824   8.783  0.00  0.00     0.157 HD
HETATM   31  H   UNK N   1      35.449  12.879   7.946  0.00  0.00     0.157 HD
ENDBRANCH   7  29
TORSDOF 5
ENDMDL
MODEL 5
REMARK VINA RESULT:      -6.8     10.054     11.858
REMARK  5 active torsions:
REMARK  status: ('A' for Active; 'I' for Inactive)
REMARK       I    between atoms: C_3  and  N_4 
REMARK    1  A    between atoms: C_7  and  N_8 
REMARK    2  A    between atoms: C_12  and  C_17 
REMARK    3  A    between atoms: C_17  and  C_18 
REMARK    4  A    between atoms: C_19  and  O_20 
REMARK    5  A    between atoms: C_24  and  O_25 
ROOT
HETATM    1  N   UNK N   1      31.432  21.948  -2.562  0.00  0.00    -0.176 N 
ATOM      2  HN  UNK N   1      31.631  21.878  -1.563  1.00  0.00     0.186 HD
HETATM    3  C   UNK N   1      32.345  21.496  -3.456  0.00  0.00     0.679 A 
HETATM    4  N   UNK N   1      33.548  20.923  -3.001  0.00  0.00    -0.234 N 
HETATM    5  N   UNK N   1      32.103  21.596  -4.785  0.00  0.00    -0.176 N 
ATOM      6  HN  UNK N   1      32.807  21.266  -5.445  1.00  0.00     0.186 HD
HETATM    7  C   UNK N   1      30.946  22.124  -5.260  0.00  0.00     0.129 A 
HETATM    8  C   UNK N   1      29.959  22.588  -4.350  0.00  0.00     0.059 A 
HETATM    9  C   UNK N   1      28.698  23.131  -4.735  0.00  0.00    -0.036 A 
HETATM   10  C   UNK N   1      28.278  23.176  -6.171  0.00  0.00     0.050 C 
HETATM   11  C   UNK N   1      27.814  23.600  -3.731  0.00  0.00    -0.031 A 
HETATM   12  C   UNK N   1      28.185  23.487  -2.393  0.00  0.00     0.097 A 
HETATM   13  N   UNK N   1      29.375  22.938  -2.043  0.00  0.00    -0.351 N 
ATOM     14  HN  UNK N   1      29.611  22.859  -1.054  1.00  0.00     0.166 HD
HETATM   15  C   UNK N   1      30.259  22.494  -2.971  0.00  0.00     0.135 A 
HETATM   16  H   UNK N   1      34.400  21.070  -3.474  0.00  0.00     0.174 HD
HETATM   17  H   UNK N   1      33.538  20.362  -2.193  0.00  0.00     0.174 HD
ENDROOT
BRANCH  11  18
HETATM   18  C   UNK N   1      26.434  24.152  -4.007  0.00  0.00     0.082 C 
BRANCH  18  19
HETATM   19  C   UNK N   1      26.224  25.641  -4.203  0.00  0.00    -0.018 A 
HETATM   20  C   UNK N   1      25.726  26.166  -5.436  0.00  0.00     0.074 A 
HETATM   21  C   UNK N   1      25.644  27.554  -5.598  0.00  0.00     0.040 A 
HETATM   22  C   UNK N   1      26.043  28.424  -4.587  0.00  0.00     0.039 A 
HETATM   23  C   UNK N   1      26.519  27.918  -3.372  0.00  0.00     0.068 A 
HETATM   24  C   UNK N   1      26.591  26.538  -3.189  0.00  0.00     0.047 A 
BRANCH  20  25
HETATM   25  O   UNK N   1      25.319  25.402  -6.488  0.00  0.00    -0.355 OA
HETATM   26  C   UNK N   1      25.836  25.420  -7.762  0.00  0.00     0.210 C 
ENDBRANCH  20  25
BRANCH  23  27
HETATM   27  O   UNK N   1      26.942  28.735  -2.377  0.00  0.00    -0.356 OA
HETATM   28  C   UNK N   1      28.055  29.538  -2.482  0.00  0.00     0.210 C 
ENDBRANCH  23  27
ENDBRANCH  18  19
ENDBRANCH  11  18
BRANCH   7  29
HETATM   29  N   UNK N   1      30.771  22.211  -6.657  0.00  0.00    -0.384 N 
HETATM   30  H   UNK N   1      31.438  22.380  -7.363  0.00  0.00     0.157 HD
HETATM   31  H   UNK N   1      29.848  22.085  -6.974  0.00  0.00     0.157 HD
ENDBRANCH   7  29
TORSDOF 5
ENDMDL
MODEL 6
REMARK VINA RESULT:      -6.7      5.559      7.926
REMARK  5 active torsions:
REMARK  status: ('A' for Active; 'I' for Inactive)
REMARK       I    between atoms: C_3  and  N_4 
REMARK    1  A    between atoms: C_7  and  N_8 
REMARK    2  A    between atoms: C_12  and  C_17 
REMARK    3  A    between atoms: C_17  and  C_18 
REMARK    4  A    between atoms: C_19  and  O_20 
REMARK    5  A    between atoms: C_24  and  O_25 
ROOT
HETATM    1  N   UNK N   1      34.115  13.182  10.515  0.00  0.00    -0.176 N 
ATOM      2  HN  UNK N   1      33.865  12.193  10.516  1.00  0.00     0.186 HD
HETATM    3  C   UNK N   1      34.896  13.671  11.509  0.00  0.00     0.679 A 
HETATM    4  N   UNK N   1      35.365  12.813  12.521  0.00  0.00    -0.234 N 
HETATM    5  N   UNK N   1      35.225  14.986  11.531  0.00  0.00    -0.176 N 
ATOM      6  HN  UNK N   1      35.800  15.342  12.295  1.00  0.00     0.186 HD
HETATM    7  C   UNK N   1      34.808  15.840  10.561  0.00  0.00     0.129 A 
HETATM    8  C   UNK N   1      34.005  15.355   9.495  0.00  0.00     0.059 A 
HETATM    9  C   UNK N   1      33.538  16.153   8.409  0.00  0.00    -0.036 A 
HETATM   10  C   UNK N   1      33.941  17.588   8.271  0.00  0.00     0.050 C 
HETATM   11  C   UNK N   1      32.706  15.561   7.426  0.00  0.00    -0.031 A 
HETATM   12  C   UNK N   1      32.395  14.206   7.527  0.00  0.00     0.097 A 
HETATM   13  N   UNK N   1      32.875  13.455   8.548  0.00  0.00    -0.351 N 
ATOM     14  HN  UNK N   1      32.639  12.463   8.586  1.00  0.00     0.166 HD
HETATM   15  C   UNK N   1      33.659  13.984   9.521  0.00  0.00     0.135 A 
HETATM   16  H   UNK N   1      35.439  13.110  13.457  0.00  0.00     0.174 HD
HETATM   17  H   UNK N   1      35.626  11.893  12.288  0.00  0.00     0.174 HD
ENDROOT
BRANCH  11  18
HETATM   18  C   UNK N   1      32.186  16.287   6.207  0.00  0.00     0.082 C 
BRANCH  18  19
HETATM   19  C   UNK N   1      30.811  16.926   6.217  0.00  0.00    -0.018 A 
HETATM   20  C   UNK N   1      30.074  17.125   5.009  0.00  0.00     0.074 A 
HETATM   21  C   UNK N   1      28.854  17.809   5.063  0.00  0.00     0.040 A 
HETATM   22  C   UNK N   1      28.355  18.300   6.266  0.00  0.00     0.039 A 
HETATM   23  C   UNK N   1      29.064  18.098   7.456  0.00  0.00     0.068 A 
HETATM   24  C   UNK N   1      30.272  17.405   7.421  0.00  0.00     0.047 A 
BRANCH  20  25
HETATM   25  O   UNK N   1      30.479  16.693   3.782  0.00  0.00    -0.355 OA
HETATM   26  C   UNK N   1      29.669  16.313   2.738  0.00  0.00     0.210 C 
ENDBRANCH  20  25
BRANCH  23  27
HETATM   27  O   UNK N   1      28.621  18.587   8.640  0.00  0.00    -0.356 OA
HETATM   28  C   UNK N   1      29.350  18.517   9.805  0.00  0.00     0.210 C 
ENDBRANCH  23  27
ENDBRANCH  18  19
ENDBRANCH  11  18
BRANCH   7  29
HETATM   29  N   UNK N   1      35.176  17.199  10.660  0.00  0.00    -0.384 N 
HETATM   30  H   UNK N   1      35.165  17.903   9.971  0.00  0.00     0.157 HD
HETATM   31  H   UNK N   1      35.489  17.485  11.548  0.00  0.00     0.157 HD
ENDBRANCH   7  29
TORSDOF 5
ENDMDL
MODEL 7
REMARK VINA RESULT:      -6.7      6.681      9.608
REMARK  5 active torsions:
REMARK  status: ('A' for Active; 'I' for Inactive)
REMARK       I    between atoms: C_3  and  N_4 
REMARK    1  A    between atoms: C_7  and  N_8 
REMARK    2  A    between atoms: C_12  and  C_17 
REMARK    3  A    between atoms: C_17  and  C_18 
REMARK    4  A    between atoms: C_19  and  O_20 
REMARK    5  A    between atoms: C_24  and  O_25 
ROOT
HETATM    1  N   UNK N   1      19.551  15.301   1.644  0.00  0.00    -0.176 N 
ATOM      2  HN  UNK N   1      19.354  14.348   1.336  1.00  0.00     0.186 HD
HETATM    3  C   UNK N   1      19.154  16.344   0.874  0.00  0.00     0.679 A 
HETATM    4  N   UNK N   1      18.465  16.105  -0.331  0.00  0.00    -0.234 N 
HETATM    5  N   UNK N   1      19.421  17.615   1.260  0.00  0.00    -0.176 N 
ATOM      6  HN  UNK N   1      19.130  18.388   0.662  1.00  0.00     0.186 HD
HETATM    7  C   UNK N   1      20.065  17.885   2.425  0.00  0.00     0.129 A 
HETATM    8  C   UNK N   1      20.476  16.815   3.265  0.00  0.00     0.059 A 
HETATM    9  C   UNK N   1      21.130  16.981   4.521  0.00  0.00    -0.036 A 
HETATM   10  C   UNK N   1      21.364  18.342   5.099  0.00  0.00     0.050 C 
HETATM   11  C   UNK N   1      21.529  15.833   5.248  0.00  0.00    -0.031 A 
HETATM   12  C   UNK N   1      21.241  14.570   4.733  0.00  0.00     0.097 A 
HETATM   13  N   UNK N   1      20.589  14.430   3.553  0.00  0.00    -0.351 N 
ATOM     14  HN  UNK N   1      20.383  13.492   3.209  1.00  0.00     0.166 HD
HETATM   15  C   UNK N   1      20.205  15.502   2.815  0.00  0.00     0.135 A 
HETATM   16  H   UNK N   1      18.617  16.660  -1.130  0.00  0.00     0.174 HD
HETATM   17  H   UNK N   1      17.815  15.367  -0.375  0.00  0.00     0.174 HD
ENDROOT
BRANCH  11  18
HETATM   18  C   UNK N   1      22.187  15.876   6.608  0.00  0.00     0.082 C 
BRANCH  18  19
HETATM   19  C   UNK N   1      21.658  15.027   7.748  0.00  0.00    -0.018 A 
HETATM   20  C   UNK N   1      20.463  15.382   8.447  0.00  0.00     0.074 A 
HETATM   21  C   UNK N   1      20.073  14.620   9.555  0.00  0.00     0.040 A 
HETATM   22  C   UNK N   1      20.830  13.534   9.987  0.00  0.00     0.039 A 
HETATM   23  C   UNK N   1      21.995  13.172   9.300  0.00  0.00     0.068 A 
HETATM   24  C   UNK N   1      22.388  13.911   8.186  0.00  0.00     0.047 A 
BRANCH  20  25
HETATM   25  O   UNK N   1      19.658  16.429   8.112  0.00  0.00    -0.355 OA
HETATM   26  C   UNK N   1      19.580  17.642   8.755  0.00  0.00     0.210 C 
ENDBRANCH  20  25
BRANCH  23  27
HETATM   27  O   UNK N   1      22.771  12.139   9.709  0.00  0.00    -0.356 OA
HETATM   28  C   UNK N   1      23.043  11.878  11.033  0.00  0.00     0.210 C 
ENDBRANCH  23  27
ENDBRANCH  18  19
ENDBRANCH  11  18
BRANCH   7  29
HETATM   29  N   UNK N   1      20.323  19.232   2.753  0.00  0.00    -0.384 N 
HETATM   30  H   UNK N   1      21.072  19.811   2.482  0.00  0.00     0.157 HD
HETATM   31  H   UNK N   1      19.656  19.656   3.339  0.00  0.00     0.157 HD
ENDBRANCH   7  29
TORSDOF 5
ENDMDL
MODEL 8
REMARK VINA RESULT:      -6.6     10.655     12.398
REMARK  5 active torsions:
REMARK  status: ('A' for Active; 'I' for Inactive)
REMARK       I    between atoms: C_3  and  N_4 
REMARK    1  A    between atoms: C_7  and  N_8 
REMARK    2  A    between atoms: C_12  and  C_17 
REMARK    3  A    between atoms: C_17  and  C_18 
REMARK    4  A    between atoms: C_19  and  O_20 
REMARK    5  A    between atoms: C_24  and  O_25 
ROOT
HETATM    1  N   UNK N   1      32.212  23.517  -6.328  0.00  0.00    -0.176 N 
ATOM      2  HN  UNK N   1      32.314  23.961  -7.241  1.00  0.00     0.186 HD
HETATM    3  C   UNK N   1      33.254  22.828  -5.802  0.00  0.00     0.679 A 
HETATM    4  N   UNK N   1      34.468  22.743  -6.510  0.00  0.00    -0.234 N 
HETATM    5  N   UNK N   1      33.129  22.219  -4.598  0.00  0.00    -0.176 N 
ATOM      6  HN  UNK N   1      33.917  21.691  -4.223  1.00  0.00     0.186 HD
HETATM    7  C   UNK N   1      31.980  22.296  -3.878  0.00  0.00     0.129 A 
HETATM    8  C   UNK N   1      30.876  23.027  -4.391  0.00  0.00     0.059 A 
HETATM    9  C   UNK N   1      29.636  23.200  -3.709  0.00  0.00    -0.036 A 
HETATM   10  C   UNK N   1      29.433  22.673  -2.323  0.00  0.00     0.050 C 
HETATM   11  C   UNK N   1      28.593  23.917  -4.346  0.00  0.00    -0.031 A 
HETATM   12  C   UNK N   1      28.818  24.465  -5.608  0.00  0.00     0.097 A 
HETATM   13  N   UNK N   1      30.015  24.319  -6.228  0.00  0.00    -0.351 N 
ATOM     14  HN  UNK N   1      30.151  24.743  -7.145  1.00  0.00     0.166 HD
HETATM   15  C   UNK N   1      31.034  23.625  -5.663  0.00  0.00     0.135 A 
HETATM   16  H   UNK N   1      35.011  21.921  -6.506  0.00  0.00     0.174 HD
HETATM   17  H   UNK N   1      34.783  23.524  -7.019  0.00  0.00     0.174 HD
ENDROOT
BRANCH  11  18
HETATM   18  C   UNK N   1      27.252  24.207  -3.711  0.00  0.00     0.082 C 
BRANCH  18  19
HETATM   19  C   UNK N   1      26.446  25.422  -4.129  0.00  0.00    -0.018 A 
HETATM   20  C   UNK N   1      25.605  25.394  -5.284  0.00  0.00     0.074 A 
HETATM   21  C   UNK N   1      24.960  26.572  -5.681  0.00  0.00     0.040 A 
HETATM   22  C   UNK N   1      25.131  27.761  -4.978  0.00  0.00     0.039 A 
HETATM   23  C   UNK N   1      25.943  27.793  -3.838  0.00  0.00     0.068 A 
HETATM   24  C   UNK N   1      26.579  26.625  -3.420  0.00  0.00     0.047 A 
BRANCH  20  25
HETATM   25  O   UNK N   1      25.379  24.287  -6.045  0.00  0.00    -0.355 OA
HETATM   26  C   UNK N   1      25.691  24.128  -7.374  0.00  0.00     0.210 C 
ENDBRANCH  20  25
BRANCH  23  27
HETATM   27  O   UNK N   1      26.154  28.939  -3.146  0.00  0.00    -0.356 OA
HETATM   28  C   UNK N   1      26.453  30.140  -3.749  0.00  0.00     0.210 C 
ENDBRANCH  23  27
ENDBRANCH  18  19
ENDBRANCH  11  18
BRANCH   7  29
HETATM   29  N   UNK N   1      31.918  21.622  -2.640  0.00  0.00    -0.384 N 
HETATM   30  H   UNK N   1      31.994  21.982  -1.725  0.00  0.00     0.157 HD
HETATM   31  H   UNK N   1      31.779  20.650  -2.697  0.00  0.00     0.157 HD
ENDBRANCH   7  29
TORSDOF 5
ENDMDL
MODEL 9
REMARK VINA RESULT:      -6.4      5.055      8.119
REMARK  5 active torsions:
REMARK  status: ('A' for Active; 'I' for Inactive)
REMARK       I    between atoms: C_3  and  N_4 
REMARK    1  A    between atoms: C_7  and  N_8 
REMARK    2  A    between atoms: C_12  and  C_17 
REMARK    3  A    between atoms: C_17  and  C_18 
REMARK    4  A    between atoms: C_19  and  O_20 
REMARK    5  A    between atoms: C_24  and  O_25 
ROOT
HETATM    1  N   UNK N   1      20.254  15.460   1.007  0.00  0.00    -0.176 N 
ATOM      2  HN  UNK N   1      20.375  14.523   0.621  1.00  0.00     0.186 HD
HETATM    3  C   UNK N   1      19.228  16.232   0.573  0.00  0.00     0.679 A 
HETATM    4  N   UNK N   1      18.333  15.732  -0.393  0.00  0.00    -0.234 N 
HETATM    5  N   UNK N   1      19.062  17.484   1.064  0.00  0.00    -0.176 N 
ATOM      6  HN  UNK N   1      18.295  18.058   0.715  1.00  0.00     0.186 HD
HETATM    7  C   UNK N   1      19.893  17.992   2.011  0.00  0.00     0.129 A 
HETATM    8  C   UNK N   1      20.966  17.202   2.503  0.00  0.00     0.059 A 
HETATM    9  C   UNK N   1      21.878  17.621   3.515  0.00  0.00    -0.036 A 
HETATM   10  C   UNK N   1      21.715  18.936   4.211  0.00  0.00     0.050 C 
HETATM   11  C   UNK N   1      22.936  16.755   3.891  0.00  0.00    -0.031 A 
HETATM   12  C   UNK N   1      23.036  15.503   3.286  0.00  0.00     0.097 A 
HETATM   13  N   UNK N   1      22.140  15.108   2.349  0.00  0.00    -0.351 N 
ATOM     14  HN  UNK N   1      22.234  14.181   1.935  1.00  0.00     0.166 HD
HETATM   15  C   UNK N   1      21.124  15.911   1.945  0.00  0.00     0.135 A 
HETATM   16  H   UNK N   1      17.962  16.309  -1.099  0.00  0.00     0.174 HD
HETATM   17  H   UNK N   1      18.072  14.784  -0.361  0.00  0.00     0.174 HD
ENDROOT
BRANCH  11  18
HETATM   18  C   UNK N   1      23.937  17.064   4.980  0.00  0.00     0.082 C 
BRANCH  18  19
HETATM   19  C   UNK N   1      25.227  17.794   4.659  0.00  0.00    -0.018 A 
HETATM   20  C   UNK N   1      26.349  17.110   4.097  0.00  0.00     0.074 A 
HETATM   21  C   UNK N   1      27.547  17.810   3.911  0.00  0.00     0.040 A 
HETATM   22  C   UNK N   1      27.663  19.150   4.270  0.00  0.00     0.039 A 
HETATM   23  C   UNK N   1      26.565  19.831   4.809  0.00  0.00     0.068 A 
HETATM   24  C   UNK N   1      25.360  19.152   4.984  0.00  0.00     0.047 A 
BRANCH  20  25
HETATM   25  O   UNK N   1      26.342  15.800   3.722  0.00  0.00    -0.355 OA
HETATM   26  C   UNK N   1      26.906  15.269   2.587  0.00  0.00     0.210 C 
ENDBRANCH  20  25
BRANCH  23  27
HETATM   27  O   UNK N   1      26.651  21.127   5.194  0.00  0.00    -0.356 OA
HETATM   28  C   UNK N   1      26.867  21.514   6.497  0.00  0.00     0.210 C 
ENDBRANCH  23  27
ENDBRANCH  18  19
ENDBRANCH  11  18
BRANCH   7  29
HETATM   29  N   UNK N   1      19.669  19.310   2.462  0.00  0.00    -0.384 N 
HETATM   30  H   UNK N   1      18.945  19.937   2.233  0.00  0.00     0.157 HD
HETATM   31  H   UNK N   1      20.335  19.654   3.101  0.00  0.00     0.157 HD
ENDBRANCH   7  29
TORSDOF 5
ENDMDL
