MODEL 1
REMARK VINA RESULT:      -7.7      0.000      0.000
REMARK  2 active torsions:
REMARK  status: ('A' for Active; 'I' for Inactive)
REMARK       I    between atoms: C_8  and  N_7 
REMARK    1  A    between atoms: C_10  and  C_8 
REMARK    2  A    between atoms: C_14  and  N_15 
REMARK       I    between atoms: C_21  and  N_18 
ROOT
HETATM    1  C   UNK N   1      35.301  14.882  10.119  0.00  0.00     0.171 C 
HETATM    2  N   UNK N   1      36.725  14.543  10.090  0.00  0.00    -0.407 N 
HETATM    3  C   UNK N   1      36.954  13.779  11.307  0.00  0.00     0.150 C 
HETATM    4  C   UNK N   1      34.834  14.770  11.571  0.00  0.00     0.072 C 
HETATM    5  C   UNK N   1      36.096  14.449  12.362  0.00  0.00     0.242 C 
HETATM    6  H   UNK N   1      37.407  14.790   9.373  0.00  0.00     0.154 HD
ENDROOT
BRANCH   5   7
HETATM    7  N   UNK N   1      35.893  13.689  13.630  0.00  0.00     0.098 N 
HETATM    8  C   UNK N   1      36.644  14.195  14.778  0.00  0.00     0.293 C 
HETATM    9  C   UNK N   1      36.130  13.572  16.081  0.00  0.00     0.171 C 
HETATM   10  N   UNK N   1      35.704  12.180  15.958  0.00  0.00    -0.214 N 
HETATM   11  C   UNK N   1      35.589  11.504  14.673  0.00  0.00     0.171 C 
HETATM   12  C   UNK N   1      35.332  11.461  17.131  0.00  0.00     0.679 A 
HETATM   13  C   UNK N   1      36.215  12.272  13.521  0.00  0.00     0.293 C 
HETATM   14  N   UNK N   1      35.434  12.045  18.359  0.00  0.00    -0.202 N 
HETATM   15  N   UNK N   1      34.889  10.175  17.034  0.00  0.00    -0.202 N 
HETATM   16  C   UNK N   1      35.102  11.362  19.487  0.00  0.00     0.107 A 
ATOM     17  HN  UNK N   1      35.764  13.006  18.434  1.00  0.00     0.183 HD
HETATM   18  C   UNK N   1      34.649  10.048  19.398  0.00  0.00     0.035 A 
HETATM   19  C   UNK N   1      34.547   9.464  18.139  0.00  0.00     0.107 A 
ATOM     20  HN  UNK N   1      34.814   9.739  16.114  1.00  0.00     0.183 HD
ENDBRANCH   5   7
BRANCH   1  21
HETATM   21  C   UNK N   1      35.055  16.258   9.522  0.00  0.00     0.242 C 
HETATM   22  N   UNK N   1      34.477  16.398   8.293  0.00  0.00    -0.344 N 
HETATM   23  C   UNK N   1      34.095  15.284   7.469  0.00  0.00     0.132 C 
HETATM   24  C   UNK N   1      34.232  17.684   7.700  0.00  0.00     0.204 C 
HETATM   25  C   UNK N   1      33.757  15.919   6.130  0.00  0.00     0.100 C 
HETATM   26  C   UNK N   1      33.403  17.360   6.470  0.00  0.00     0.261 C 
HETATM   27  F   UNK N   1      33.693  18.215   5.425  0.00  0.00    -0.204 F 
HETATM   28  F   UNK N   1      32.059  17.434   6.786  0.00  0.00    -0.204 F 
HETATM   29  O   UNK N   1      35.371  17.255  10.159  0.00  0.00    -0.271 OA
ENDBRANCH   1  21
TORSDOF 2
ENDMDL
MODEL 2
REMARK VINA RESULT:      -7.5      4.208     10.235
REMARK  2 active torsions:
REMARK  status: ('A' for Active; 'I' for Inactive)
REMARK       I    between atoms: C_8  and  N_7 
REMARK    1  A    between atoms: C_10  and  C_8 
REMARK    2  A    between atoms: C_14  and  N_15 
REMARK       I    between atoms: C_21  and  N_18 
ROOT
HETATM    1  C   UNK N   1      35.473  13.873  12.820  0.00  0.00     0.171 C 
HETATM    2  N   UNK N   1      36.356  15.041  12.819  0.00  0.00    -0.407 N 
HETATM    3  C   UNK N   1      36.063  15.732  11.572  0.00  0.00     0.150 C 
HETATM    4  C   UNK N   1      35.062  13.610  11.371  0.00  0.00     0.072 C 
HETATM    5  C   UNK N   1      35.841  14.632  10.553  0.00  0.00     0.242 C 
HETATM    6  H   UNK N   1      37.029  15.311  13.535  0.00  0.00     0.154 HD
ENDROOT
BRANCH   5   7
HETATM    7  N   UNK N   1      35.219  15.042   9.261  0.00  0.00     0.098 N 
HETATM    8  C   UNK N   1      33.988  15.821   9.388  0.00  0.00     0.293 C 
HETATM    9  C   UNK N   1      33.610  16.465   8.050  0.00  0.00     0.171 C 
HETATM   10  N   UNK N   1      33.918  15.648   6.878  0.00  0.00    -0.214 N 
HETATM   11  C   UNK N   1      34.696  14.419   6.960  0.00  0.00     0.171 C 
HETATM   12  C   UNK N   1      33.492  16.089   5.592  0.00  0.00     0.679 A 
HETATM   13  C   UNK N   1      34.907  13.923   8.380  0.00  0.00     0.293 C 
HETATM   14  N   UNK N   1      32.750  17.226   5.464  0.00  0.00    -0.202 N 
HETATM   15  N   UNK N   1      33.807  15.364   4.480  0.00  0.00    -0.202 N 
HETATM   16  C   UNK N   1      32.320  17.646   4.244  0.00  0.00     0.107 A 
ATOM     17  HN  UNK N   1      32.514  17.769   6.294  1.00  0.00     0.183 HD
HETATM   18  C   UNK N   1      32.636  16.913   3.103  0.00  0.00     0.035 A 
HETATM   19  C   UNK N   1      33.396  15.756   3.247  0.00  0.00     0.107 A 
ATOM     20  HN  UNK N   1      34.361  14.514   4.578  1.00  0.00     0.183 HD
ENDBRANCH   5   7
BRANCH   1  21
HETATM   21  C   UNK N   1      36.151  12.678  13.469  0.00  0.00     0.242 C 
HETATM   22  N   UNK N   1      35.865  12.321  14.756  0.00  0.00    -0.344 N 
HETATM   23  C   UNK N   1      34.949  13.048  15.591  0.00  0.00     0.132 C 
HETATM   24  C   UNK N   1      36.489  11.197  15.400  0.00  0.00     0.204 C 
HETATM   25  C   UNK N   1      35.160  12.449  16.973  0.00  0.00     0.100 C 
HETATM   26  C   UNK N   1      35.724  11.061  16.703  0.00  0.00     0.261 C 
HETATM   27  F   UNK N   1      36.545  10.638  17.731  0.00  0.00    -0.204 F 
HETATM   28  F   UNK N   1      34.678  10.172  16.535  0.00  0.00    -0.204 F 
HETATM   29  O   UNK N   1      36.957  12.019  12.825  0.00  0.00    -0.271 OA
ENDBRANCH   1  21
TORSDOF 2
ENDMDL
MODEL 3
REMARK VINA RESULT:      -7.4      8.240     13.886
REMARK  2 active torsions:
REMARK  status: ('A' for Active; 'I' for Inactive)
REMARK       I    between atoms: C_8  and  N_7 
REMARK    1  A    between atoms: C_10  and  C_8 
REMARK    2  A    between atoms: C_14  and  N_15 
REMARK       I    between atoms: C_21  and  N_18 
ROOT
HETATM    1  C   UNK N   1      29.825  17.201   6.177  0.00  0.00     0.171 C 
HETATM    2  N   UNK N   1      29.502  15.827   5.790  0.00  0.00    -0.407 N 
HETATM    3  C   UNK N   1      28.188  15.909   5.171  0.00  0.00     0.150 C 
HETATM    4  C   UNK N   1      28.509  17.975   6.256  0.00  0.00     0.072 C 
HETATM    5  C   UNK N   1      27.429  16.934   5.990  0.00  0.00     0.242 C 
HETATM    6  H   UNK N   1      30.074  14.993   5.925  0.00  0.00     0.154 HD
ENDROOT
BRANCH   5   7
HETATM    7  N   UNK N   1      26.161  17.449   5.397  0.00  0.00     0.098 N 
HETATM    8  C   UNK N   1      25.171  16.423   5.073  0.00  0.00     0.293 C 
HETATM    9  C   UNK N   1      23.805  17.057   4.784  0.00  0.00     0.171 C 
HETATM   10  N   UNK N   1      23.870  18.346   4.099  0.00  0.00    -0.214 N 
HETATM   11  C   UNK N   1      25.122  19.061   3.887  0.00  0.00     0.171 C 
HETATM   12  C   UNK N   1      22.662  18.964   3.664  0.00  0.00     0.679 A 
HETATM   13  C   UNK N   1      26.358  18.227   4.180  0.00  0.00     0.293 C 
HETATM   14  N   UNK N   1      21.466  18.330   3.828  0.00  0.00    -0.202 N 
HETATM   15  N   UNK N   1      22.697  20.187   3.062  0.00  0.00    -0.202 N 
HETATM   16  C   UNK N   1      20.308  18.900   3.398  0.00  0.00     0.107 A 
ATOM     17  HN  UNK N   1      21.438  17.416   4.278  1.00  0.00     0.183 HD
HETATM   18  C   UNK N   1      20.334  20.149   2.782  0.00  0.00     0.035 A 
HETATM   19  C   UNK N   1      21.560  20.787   2.623  0.00  0.00     0.107 A 
ATOM     20  HN  UNK N   1      23.593  20.660   2.940  1.00  0.00     0.183 HD
ENDBRANCH   5   7
BRANCH   1  21
HETATM   21  C   UNK N   1      30.610  17.232   7.477  0.00  0.00     0.242 C 
HETATM   22  N   UNK N   1      31.972  17.323   7.475  0.00  0.00    -0.344 N 
HETATM   23  C   UNK N   1      32.758  17.361   6.273  0.00  0.00     0.132 C 
HETATM   24  C   UNK N   1      32.744  17.354   8.688  0.00  0.00     0.204 C 
HETATM   25  C   UNK N   1      34.188  17.196   6.765  0.00  0.00     0.100 C 
HETATM   26  C   UNK N   1      34.149  17.671   8.210  0.00  0.00     0.261 C 
HETATM   27  F   UNK N   1      35.102  17.031   8.980  0.00  0.00    -0.204 F 
HETATM   28  F   UNK N   1      34.351  19.038   8.244  0.00  0.00    -0.204 F 
HETATM   29  O   UNK N   1      30.009  17.185   8.544  0.00  0.00    -0.271 OA
ENDBRANCH   1  21
TORSDOF 2
ENDMDL
MODEL 4
REMARK VINA RESULT:      -7.3      6.361      9.894
REMARK  2 active torsions:
REMARK  status: ('A' for Active; 'I' for Inactive)
REMARK       I    between atoms: C_8  and  N_7 
REMARK    1  A    between atoms: C_10  and  C_8 
REMARK    2  A    between atoms: C_14  and  N_15 
REMARK       I    between atoms: C_21  and  N_18 
ROOT
HETATM    1  C   UNK N   1      28.106  17.217   4.380  0.00  0.00     0.171 C 
HETATM    2  N   UNK N   1      29.056  17.118   3.269  0.00  0.00    -0.407 N 
HETATM    3  C   UNK N   1      30.324  16.765   3.889  0.00  0.00     0.150 C 
HETATM    4  C   UNK N   1      28.919  17.433   5.657  0.00  0.00     0.072 C 
HETATM    5  C   UNK N   1      30.362  17.549   5.186  0.00  0.00     0.242 C 
HETATM    6  H   UNK N   1      28.869  17.266   2.278  0.00  0.00     0.154 HD
ENDROOT
BRANCH   5   7
HETATM    7  N   UNK N   1      31.404  17.144   6.174  0.00  0.00     0.098 N 
HETATM    8  C   UNK N   1      31.805  15.740   6.107  0.00  0.00     0.293 C 
HETATM    9  C   UNK N   1      33.085  15.500   6.915  0.00  0.00     0.171 C 
HETATM   10  N   UNK N   1      33.190  16.302   8.133  0.00  0.00    -0.214 N 
HETATM   11  C   UNK N   1      32.258  17.377   8.448  0.00  0.00     0.171 C 
HETATM   12  C   UNK N   1      34.274  16.067   9.028  0.00  0.00     0.679 A 
HETATM   13  C   UNK N   1      31.027  17.398   7.559  0.00  0.00     0.293 C 
HETATM   14  N   UNK N   1      35.165  15.064   8.784  0.00  0.00    -0.202 N 
HETATM   15  N   UNK N   1      34.415  16.834  10.147  0.00  0.00    -0.202 N 
HETATM   16  C   UNK N   1      36.191  14.817   9.642  0.00  0.00     0.107 A 
ATOM     17  HN  UNK N   1      35.061  14.491   7.947  1.00  0.00     0.183 HD
HETATM   18  C   UNK N   1      36.343  15.594  10.788  0.00  0.00     0.035 A 
HETATM   19  C   UNK N   1      35.429  16.616  11.024  0.00  0.00     0.107 A 
ATOM     20  HN  UNK N   1      33.747  17.582  10.328  1.00  0.00     0.183 HD
ENDBRANCH   5   7
BRANCH   1  21
HETATM   21  C   UNK N   1      27.089  18.318   4.131  0.00  0.00     0.242 C 
HETATM   22  N   UNK N   1      25.749  18.057   4.163  0.00  0.00    -0.344 N 
HETATM   23  C   UNK N   1      25.206  16.747   4.394  0.00  0.00     0.132 C 
HETATM   24  C   UNK N   1      24.761  19.075   3.932  0.00  0.00     0.204 C 
HETATM   25  C   UNK N   1      23.726  16.904   4.079  0.00  0.00     0.100 C 
HETATM   26  C   UNK N   1      23.451  18.388   4.274  0.00  0.00     0.261 C 
HETATM   27  F   UNK N   1      22.423  18.825   3.461  0.00  0.00    -0.204 F 
HETATM   28  F   UNK N   1      23.140  18.621   5.601  0.00  0.00    -0.204 F 
HETATM   29  O   UNK N   1      27.477  19.458   3.910  0.00  0.00    -0.271 OA
ENDBRANCH   1  21
TORSDOF 2
ENDMDL
MODEL 5
REMARK VINA RESULT:      -7.2      5.230      7.973
REMARK  2 active torsions:
REMARK  status: ('A' for Active; 'I' for Inactive)
REMARK       I    between atoms: C_8  and  N_7 
REMARK    1  A    between atoms: C_10  and  C_8 
REMARK    2  A    between atoms: C_14  and  N_15 
REMARK       I    between atoms: C_21  and  N_18 
ROOT
HETATM    1  C   UNK N   1      28.866  17.453   6.309  0.00  0.00     0.171 C 
HETATM    2  N   UNK N   1      29.913  17.545   5.289  0.00  0.00    -0.407 N 
HETATM    3  C   UNK N   1      31.101  16.989   5.920  0.00  0.00     0.150 C 
HETATM    4  C   UNK N   1      29.560  17.334   7.666  0.00  0.00     0.072 C 
HETATM    5  C   UNK N   1      31.045  17.466   7.357  0.00  0.00     0.242 C 
HETATM    6  H   UNK N   1      29.828  17.918   4.344  0.00  0.00     0.154 HD
ENDROOT
BRANCH   5   7
HETATM    7  N   UNK N   1      31.971  16.792   8.314  0.00  0.00     0.098 N 
HETATM    8  C   UNK N   1      33.315  17.364   8.378  0.00  0.00     0.293 C 
HETATM    9  C   UNK N   1      34.075  16.832   9.599  0.00  0.00     0.171 C 
HETATM   10  N   UNK N   1      33.786  15.439   9.930  0.00  0.00    -0.214 N 
HETATM   11  C   UNK N   1      32.722  14.682   9.283  0.00  0.00     0.171 C 
HETATM   12  C   UNK N   1      34.531  14.801  10.963  0.00  0.00     0.679 A 
HETATM   13  C   UNK N   1      32.143  15.368   8.057  0.00  0.00     0.293 C 
HETATM   14  N   UNK N   1      35.546  15.462  11.590  0.00  0.00    -0.202 N 
HETATM   15  N   UNK N   1      34.247  13.515  11.318  0.00  0.00    -0.202 N 
HETATM   16  C   UNK N   1      36.279  14.857  12.563  0.00  0.00     0.107 A 
ATOM     17  HN  UNK N   1      35.759  16.424  11.326  1.00  0.00     0.183 HD
HETATM   18  C   UNK N   1      35.997  13.544  12.933  0.00  0.00     0.035 A 
HETATM   19  C   UNK N   1      34.957  12.881  12.287  0.00  0.00     0.107 A 
ATOM     20  HN  UNK N   1      33.489  13.022  10.848  1.00  0.00     0.183 HD
ENDBRANCH   5   7
BRANCH   1  21
HETATM   21  C   UNK N   1      27.920  18.639   6.228  0.00  0.00     0.242 C 
HETATM   22  N   UNK N   1      26.833  18.617   5.402  0.00  0.00    -0.344 N 
HETATM   23  C   UNK N   1      26.522  17.513   4.537  0.00  0.00     0.132 C 
HETATM   24  C   UNK N   1      25.920  19.722   5.302  0.00  0.00     0.204 C 
HETATM   25  C   UNK N   1      25.412  18.047   3.647  0.00  0.00     0.100 C 
HETATM   26  C   UNK N   1      24.786  19.175   4.454  0.00  0.00     0.261 C 
HETATM   27  F   UNK N   1      24.250  20.150   3.635  0.00  0.00    -0.204 F 
HETATM   28  F   UNK N   1      23.804  18.653   5.276  0.00  0.00    -0.204 F 
HETATM   29  O   UNK N   1      28.131  19.625   6.924  0.00  0.00    -0.271 OA
ENDBRANCH   1  21
TORSDOF 2
ENDMDL
MODEL 6
REMARK VINA RESULT:      -7.2      5.147     11.240
REMARK  2 active torsions:
REMARK  status: ('A' for Active; 'I' for Inactive)
REMARK       I    between atoms: C_8  and  N_7 
REMARK    1  A    between atoms: C_10  and  C_8 
REMARK    2  A    between atoms: C_14  and  N_15 
REMARK       I    between atoms: C_21  and  N_18 
ROOT
HETATM    1  C   UNK N   1      33.765  15.974   9.350  0.00  0.00     0.171 C 
HETATM    2  N   UNK N   1      34.613  16.734   8.430  0.00  0.00    -0.407 N 
HETATM    3  C   UNK N   1      33.688  17.529   7.636  0.00  0.00     0.150 C 
HETATM    4  C   UNK N   1      32.360  15.934   8.750  0.00  0.00     0.072 C 
HETATM    5  C   UNK N   1      32.494  16.625   7.399  0.00  0.00     0.242 C 
HETATM    6  H   UNK N   1      35.630  16.711   8.359  0.00  0.00     0.154 HD
ENDROOT
BRANCH   5   7
HETATM    7  N   UNK N   1      31.259  17.283   6.880  0.00  0.00     0.098 N 
HETATM    8  C   UNK N   1      30.090  17.175   7.750  0.00  0.00     0.293 C 
HETATM    9  C   UNK N   1      28.986  18.140   7.301  0.00  0.00     0.171 C 
HETATM   10  N   UNK N   1      28.889  18.314   5.854  0.00  0.00    -0.214 N 
HETATM   11  C   UNK N   1      29.878  17.776   4.929  0.00  0.00     0.171 C 
HETATM   12  C   UNK N   1      27.817  19.085   5.317  0.00  0.00     0.679 A 
HETATM   13  C   UNK N   1      30.843  16.794   5.571  0.00  0.00     0.293 C 
HETATM   14  N   UNK N   1      26.858  19.598   6.140  0.00  0.00    -0.202 N 
HETATM   15  N   UNK N   1      27.732  19.296   3.973  0.00  0.00    -0.202 N 
HETATM   16  C   UNK N   1      25.818  20.318   5.637  0.00  0.00     0.107 A 
ATOM     17  HN  UNK N   1      26.920  19.441   7.145  1.00  0.00     0.183 HD
HETATM   18  C   UNK N   1      25.723  20.539   4.266  0.00  0.00     0.035 A 
HETATM   19  C   UNK N   1      26.709  20.012   3.438  0.00  0.00     0.107 A 
ATOM     20  HN  UNK N   1      28.449  18.910   3.359  1.00  0.00     0.183 HD
ENDBRANCH   5   7
BRANCH   1  21
HETATM   21  C   UNK N   1      34.340  14.591   9.606  0.00  0.00     0.242 C 
HETATM   22  N   UNK N   1      34.950  14.290  10.790  0.00  0.00    -0.344 N 
HETATM   23  C   UNK N   1      35.124  15.243  11.852  0.00  0.00     0.132 C 
HETATM   24  C   UNK N   1      35.504  12.993  11.063  0.00  0.00     0.204 C 
HETATM   25  C   UNK N   1      36.063  14.542  12.821  0.00  0.00     0.100 C 
HETATM   26  C   UNK N   1      35.869  13.060  12.535  0.00  0.00     0.261 C 
HETATM   27  F   UNK N   1      37.013  12.336  12.807  0.00  0.00    -0.204 F 
HETATM   28  F   UNK N   1      34.815  12.586  13.294  0.00  0.00    -0.204 F 
HETATM   29  O   UNK N   1      34.245  13.730   8.740  0.00  0.00    -0.271 OA
ENDBRANCH   1  21
TORSDOF 2
ENDMDL
MODEL 7
REMARK VINA RESULT:      -7.1      8.429     12.465
REMARK  2 active torsions:
REMARK  status: ('A' for Active; 'I' for Inactive)
REMARK       I    between atoms: C_8  and  N_7 
REMARK    1  A    between atoms: C_10  and  C_8 
REMARK    2  A    between atoms: C_14  and  N_15 
REMARK       I    between atoms: C_21  and  N_18 
ROOT
HETATM    1  C   UNK N   1      25.307  18.935   4.323  0.00  0.00     0.171 C 
HETATM    2  N   UNK N   1      25.573  20.264   4.877  0.00  0.00    -0.407 N 
HETATM    3  C   UNK N   1      26.921  20.184   5.418  0.00  0.00     0.150 C 
HETATM    4  C   UNK N   1      26.274  17.959   4.994  0.00  0.00     0.072 C 
HETATM    5  C   UNK N   1      27.022  18.798   6.023  0.00  0.00     0.242 C 
HETATM    6  H   UNK N   1      24.948  21.071   4.883  0.00  0.00     0.154 HD
ENDROOT
BRANCH   5   7
HETATM    7  N   UNK N   1      28.393  18.326   6.373  0.00  0.00     0.098 N 
HETATM    8  C   UNK N   1      28.981  17.380   5.427  0.00  0.00     0.293 C 
HETATM    9  C   UNK N   1      30.482  17.211   5.687  0.00  0.00     0.171 C 
HETATM   10  N   UNK N   1      30.861  17.267   7.097  0.00  0.00    -0.214 N 
HETATM   11  C   UNK N   1      29.925  17.647   8.147  0.00  0.00     0.171 C 
HETATM   12  C   UNK N   1      32.210  16.992   7.466  0.00  0.00     0.679 A 
HETATM   13  C   UNK N   1      28.479  17.700   7.687  0.00  0.00     0.293 C 
HETATM   14  N   UNK N   1      33.120  16.618   6.522  0.00  0.00    -0.202 N 
HETATM   15  N   UNK N   1      32.594  17.081   8.771  0.00  0.00    -0.202 N 
HETATM   16  C   UNK N   1      34.405  16.333   6.864  0.00  0.00     0.107 A 
ATOM     17  HN  UNK N   1      32.834  16.551   5.545  1.00  0.00     0.183 HD
HETATM   18  C   UNK N   1      34.807  16.421   8.195  0.00  0.00     0.035 A 
HETATM   19  C   UNK N   1      33.869  16.806   9.148  0.00  0.00     0.107 A 
ATOM     20  HN  UNK N   1      31.912  17.360   9.476  1.00  0.00     0.183 HD
ENDBRANCH   5   7
BRANCH   1  21
HETATM   21  C   UNK N   1      23.850  18.548   4.508  0.00  0.00     0.242 C 
HETATM   22  N   UNK N   1      22.862  19.161   3.791  0.00  0.00    -0.344 N 
HETATM   23  C   UNK N   1      23.111  20.220   2.852  0.00  0.00     0.132 C 
HETATM   24  C   UNK N   1      21.475  18.819   3.943  0.00  0.00     0.204 C 
HETATM   25  C   UNK N   1      21.724  20.745   2.517  0.00  0.00     0.100 C 
HETATM   26  C   UNK N   1      20.793  19.581   2.822  0.00  0.00     0.261 C 
HETATM   27  F   UNK N   1      19.537  20.020   3.198  0.00  0.00    -0.204 F 
HETATM   28  F   UNK N   1      20.698  18.773   1.704  0.00  0.00    -0.204 F 
HETATM   29  O   UNK N   1      23.558  17.665   5.305  0.00  0.00    -0.271 OA
ENDBRANCH   1  21
TORSDOF 2
ENDMDL
MODEL 8
REMARK VINA RESULT:      -7.1      4.269      6.989
REMARK  2 active torsions:
REMARK  status: ('A' for Active; 'I' for Inactive)
REMARK       I    between atoms: C_8  and  N_7 
REMARK    1  A    between atoms: C_10  and  C_8 
REMARK    2  A    between atoms: C_14  and  N_15 
REMARK       I    between atoms: C_21  and  N_18 
ROOT
HETATM    1  C   UNK N   1      31.254  16.506   4.958  0.00  0.00     0.171 C 
HETATM    2  N   UNK N   1      32.251  17.569   4.815  0.00  0.00    -0.407 N 
HETATM    3  C   UNK N   1      33.182  17.361   5.915  0.00  0.00     0.150 C 
HETATM    4  C   UNK N   1      31.310  16.018   6.405  0.00  0.00     0.072 C 
HETATM    5  C   UNK N   1      32.320  16.933   7.086  0.00  0.00     0.242 C 
HETATM    6  H   UNK N   1      32.285  18.297   4.102  0.00  0.00     0.154 HD
ENDROOT
BRANCH   5   7
HETATM    7  N   UNK N   1      33.038  16.352   8.258  0.00  0.00     0.098 N 
HETATM    8  C   UNK N   1      34.352  16.934   8.526  0.00  0.00     0.293 C 
HETATM    9  C   UNK N   1      34.859  16.517   9.911  0.00  0.00     0.171 C 
HETATM   10  N   UNK N   1      34.494  15.157  10.305  0.00  0.00    -0.214 N 
HETATM   11  C   UNK N   1      33.563  14.341   9.537  0.00  0.00     0.171 C 
HETATM   12  C   UNK N   1      35.021  14.618  11.514  0.00  0.00     0.679 A 
HETATM   13  C   UNK N   1      33.237  14.911   8.167  0.00  0.00     0.293 C 
HETATM   14  N   UNK N   1      35.906  15.338  12.261  0.00  0.00    -0.202 N 
HETATM   15  N   UNK N   1      34.658  13.368  11.921  0.00  0.00    -0.202 N 
HETATM   16  C   UNK N   1      36.432  14.825  13.406  0.00  0.00     0.107 A 
ATOM     17  HN  UNK N   1      36.178  16.272  11.958  1.00  0.00     0.183 HD
HETATM   18  C   UNK N   1      36.068  13.550  13.830  0.00  0.00     0.035 A 
HETATM   19  C   UNK N   1      35.162  12.828  13.060  0.00  0.00     0.107 A 
ATOM     20  HN  UNK N   1      33.996  12.832  11.360  1.00  0.00     0.183 HD
ENDBRANCH   5   7
BRANCH   1  21
HETATM   21  C   UNK N   1      29.874  16.994   4.550  0.00  0.00     0.242 C 
HETATM   22  N   UNK N   1      29.079  16.250   3.727  0.00  0.00    -0.344 N 
HETATM   23  C   UNK N   1      29.486  14.991   3.165  0.00  0.00     0.132 C 
HETATM   24  C   UNK N   1      27.770  16.683   3.322  0.00  0.00     0.204 C 
HETATM   25  C   UNK N   1      28.408  14.685   2.137  0.00  0.00     0.100 C 
HETATM   26  C   UNK N   1      27.195  15.471   2.611  0.00  0.00     0.261 C 
HETATM   27  F   UNK N   1      26.385  15.841   1.555  0.00  0.00    -0.204 F 
HETATM   28  F   UNK N   1      26.481  14.702   3.511  0.00  0.00    -0.204 F 
HETATM   29  O   UNK N   1      29.465  18.068   4.976  0.00  0.00    -0.271 OA
ENDBRANCH   1  21
TORSDOF 2
ENDMDL
MODEL 9
REMARK VINA RESULT:      -7.1      4.481      9.804
REMARK  2 active torsions:
REMARK  status: ('A' for Active; 'I' for Inactive)
REMARK       I    between atoms: C_8  and  N_7 
REMARK    1  A    between atoms: C_10  and  C_8 
REMARK    2  A    between atoms: C_14  and  N_15 
REMARK       I    between atoms: C_21  and  N_18 
ROOT
HETATM    1  C   UNK N   1      36.421  13.551  12.770  0.00  0.00     0.171 C 
HETATM    2  N   UNK N   1      37.460  13.808  11.771  0.00  0.00    -0.407 N 
HETATM    3  C   UNK N   1      36.743  14.270  10.592  0.00  0.00     0.150 C 
HETATM    4  C   UNK N   1      35.102  13.366  12.019  0.00  0.00     0.072 C 
HETATM    5  C   UNK N   1      35.480  13.433  10.545  0.00  0.00     0.242 C 
HETATM    6  H   UNK N   1      38.467  13.688  11.877  0.00  0.00     0.154 HD
ENDROOT
BRANCH   5   7
HETATM    7  N   UNK N   1      34.408  13.903   9.620  0.00  0.00     0.098 N 
HETATM    8  C   UNK N   1      34.409  13.269   8.303  0.00  0.00     0.293 C 
HETATM    9  C   UNK N   1      33.103  13.565   7.556  0.00  0.00     0.171 C 
HETATM   10  N   UNK N   1      32.558  14.899   7.798  0.00  0.00    -0.214 N 
HETATM   11  C   UNK N   1      33.097  15.796   8.812  0.00  0.00     0.171 C 
HETATM   12  C   UNK N   1      31.420  15.330   7.056  0.00  0.00     0.679 A 
HETATM   13  C   UNK N   1      34.429  15.341   9.383  0.00  0.00     0.293 C 
HETATM   14  N   UNK N   1      30.887  14.533   6.086  0.00  0.00    -0.202 N 
HETATM   15  N   UNK N   1      30.869  16.554   7.297  0.00  0.00    -0.202 N 
HETATM   16  C   UNK N   1      29.814  14.942   5.357  0.00  0.00     0.107 A 
ATOM     17  HN  UNK N   1      31.298  13.618   5.905  1.00  0.00     0.183 HD
HETATM   18  C   UNK N   1      29.244  16.190   5.596  0.00  0.00     0.035 A 
HETATM   19  C   UNK N   1      29.797  16.993   6.589  0.00  0.00     0.107 A 
ATOM     20  HN  UNK N   1      31.270  17.150   8.022  1.00  0.00     0.183 HD
ENDBRANCH   5   7
BRANCH   1  21
HETATM   21  C   UNK N   1      36.782  12.358  13.638  0.00  0.00     0.242 C 
HETATM   22  N   UNK N   1      36.278  12.227  14.900  0.00  0.00    -0.344 N 
HETATM   23  C   UNK N   1      35.412  13.201  15.508  0.00  0.00     0.132 C 
HETATM   24  C   UNK N   1      36.599  11.111  15.747  0.00  0.00     0.204 C 
HETATM   25  C   UNK N   1      35.335  12.764  16.962  0.00  0.00     0.100 C 
HETATM   26  C   UNK N   1      35.665  11.278  16.931  0.00  0.00     0.261 C 
HETATM   27  F   UNK N   1      36.260  10.865  18.108  0.00  0.00    -0.204 F 
HETATM   28  F   UNK N   1      34.504  10.561  16.709  0.00  0.00    -0.204 F 
HETATM   29  O   UNK N   1      37.529  11.494  13.194  0.00  0.00    -0.271 OA
ENDBRANCH   1  21
TORSDOF 2
ENDMDL
