MODEL 1
REMARK VINA RESULT:      -6.1      0.000      0.000
REMARK  15 active torsions:
REMARK  status: ('A' for Active; 'I' for Inactive)
REMARK    1  A    between atoms: C_1  and  C_2 
REMARK    2  A    between atoms: C_1  and  O_21 
REMARK    3  A    between atoms: C_2  and  C_3 
REMARK    4  A    between atoms: C_3  and  C_4 
REMARK    5  A    between atoms: C_4  and  C_5 
REMARK    6  A    between atoms: C_6  and  C_7 
REMARK    7  A    between atoms: C_8  and  C_7 
REMARK    8  A    between atoms: C_9  and  O_23 
REMARK    9  A    between atoms: C_12  and  C_13 
REMARK   10  A    between atoms: C_14  and  C_15 
REMARK   11  A    between atoms: C_15  and  C_16 
REMARK   12  A    between atoms: C_15  and  O_25 
REMARK   13  A    between atoms: C_16  and  C_17 
REMARK   14  A    between atoms: C_17  and  C_18 
REMARK   15  A    between atoms: C_18  and  C_19 
ROOT
HETATM    1  C   UNK N   1      30.523  22.305  -4.850  0.00  0.00     0.033 C 
HETATM    2  C   UNK N   1      31.944  21.910  -4.420  0.00  0.00     0.130 C 
HETATM    3  C   UNK N   1      31.818  21.741  -2.906  0.00  0.00     0.111 C 
HETATM    4  C   UNK N   1      30.765  22.745  -2.583  0.00  0.00     0.137 C 
HETATM    5  C   UNK N   1      30.126  23.351  -3.787  0.00  0.00     0.084 C 
HETATM    6  O   UNK N   1      30.481  23.056  -1.436  0.00  0.00    -0.297 OA
ENDROOT
BRANCH   1   7
HETATM    7  C   UNK N   1      30.476  22.792  -6.305  0.00  0.00     0.035 C 
BRANCH   7   8
HETATM    8  C   UNK N   1      29.305  22.259  -7.062  0.00  0.00    -0.030 C 
HETATM    9  C   UNK N   1      29.220  20.956  -7.324  0.00  0.00    -0.031 C 
BRANCH   9  10
HETATM   10  C   UNK N   1      28.056  20.394  -8.077  0.00  0.00     0.027 C 
BRANCH  10  11
HETATM   11  C   UNK N   1      27.014  21.469  -8.344  0.00  0.00     0.014 C 
BRANCH  11  12
HETATM   12  C   UNK N   1      25.617  20.873  -8.351  0.00  0.00     0.110 C 
BRANCH  12  13
HETATM   13  C   UNK N   1      24.676  21.745  -7.587  0.00  0.00     0.139 C 
HETATM   14  O   UNK N   1      25.052  22.295  -6.566  0.00  0.00    -0.650 OA
BRANCH  13  15
HETATM   15  O   UNK N   1      23.416  21.935  -8.026  0.00  0.00    -0.776 OA
HETATM   16  H   UNK N   1      23.166  22.693  -8.517  0.00  0.00     0.167 HD
ENDBRANCH  13  15
ENDBRANCH  12  13
ENDBRANCH  11  12
ENDBRANCH  10  11
ENDBRANCH   9  10
ENDBRANCH   7   8
ENDBRANCH   1   7
BRANCH   2  17
HETATM   17  O   UNK N   1      32.841  22.952  -4.686  0.00  0.00    -0.395 OA
HETATM   18  H   UNK N   1      33.422  23.456  -5.276  0.00  0.00     0.210 HD
ENDBRANCH   2  17
BRANCH   5  19
HETATM   19  C   UNK N   1      28.658  23.628  -3.577  0.00  0.00    -0.016 C 
HETATM   20  C   UNK N   1      27.875  24.293  -4.430  0.00  0.00     0.001 C 
BRANCH  20  21
HETATM   21  C   UNK N   1      26.439  24.594  -4.099  0.00  0.00     0.140 C 
BRANCH  21  22
HETATM   22  C   UNK N   1      25.713  25.296  -5.249  0.00  0.00     0.036 C 
BRANCH  22  23
HETATM   23  C   UNK N   1      26.684  26.036  -6.157  0.00  0.00     0.003 C 
BRANCH  23  24
HETATM   24  C   UNK N   1      26.338  27.508  -6.185  0.00  0.00    -0.000 C 
BRANCH  24  25
HETATM   25  C   UNK N   1      27.125  28.224  -5.109  0.00  0.00    -0.005 C 
HETATM   26  C   UNK N   1      26.169  28.896  -4.146  0.00  0.00     0.005 C 
ENDBRANCH  24  25
ENDBRANCH  23  24
ENDBRANCH  22  23
ENDBRANCH  21  22
BRANCH  21  27
HETATM   27  O   UNK N   1      26.411  25.426  -2.981  0.00  0.00    -0.392 OA
HETATM   28  H   UNK N   1      26.676  26.340  -2.793  0.00  0.00     0.210 HD
ENDBRANCH  21  27
ENDBRANCH  20  21
ENDBRANCH   5  19
TORSDOF 15
ENDMDL
MODEL 2
REMARK VINA RESULT:      -5.9     10.092     13.281
REMARK  15 active torsions:
REMARK  status: ('A' for Active; 'I' for Inactive)
REMARK    1  A    between atoms: C_1  and  C_2 
REMARK    2  A    between atoms: C_1  and  O_21 
REMARK    3  A    between atoms: C_2  and  C_3 
REMARK    4  A    between atoms: C_3  and  C_4 
REMARK    5  A    between atoms: C_4  and  C_5 
REMARK    6  A    between atoms: C_6  and  C_7 
REMARK    7  A    between atoms: C_8  and  C_7 
REMARK    8  A    between atoms: C_9  and  O_23 
REMARK    9  A    between atoms: C_12  and  C_13 
REMARK   10  A    between atoms: C_14  and  C_15 
REMARK   11  A    between atoms: C_15  and  C_16 
REMARK   12  A    between atoms: C_15  and  O_25 
REMARK   13  A    between atoms: C_16  and  C_17 
REMARK   14  A    between atoms: C_17  and  C_18 
REMARK   15  A    between atoms: C_18  and  C_19 
ROOT
HETATM    1  C   UNK N   1      28.566  18.345   6.991  0.00  0.00     0.033 C 
HETATM    2  C   UNK N   1      28.457  18.865   8.432  0.00  0.00     0.130 C 
HETATM    3  C   UNK N   1      29.820  18.523   9.034  0.00  0.00     0.111 C 
HETATM    4  C   UNK N   1      30.165  17.276   8.293  0.00  0.00     0.137 C 
HETATM    5  C   UNK N   1      29.224  16.962   7.180  0.00  0.00     0.084 C 
HETATM    6  O   UNK N   1      31.115  16.571   8.597  0.00  0.00    -0.297 OA
ENDROOT
BRANCH   1   7
HETATM    7  C   UNK N   1      27.208  18.340   6.276  0.00  0.00     0.035 C 
BRANCH   7   8
HETATM    8  C   UNK N   1      27.135  19.322   5.154  0.00  0.00    -0.030 C 
HETATM    9  C   UNK N   1      26.168  19.220   4.244  0.00  0.00    -0.031 C 
BRANCH   9  10
HETATM   10  C   UNK N   1      26.067  20.192   3.112  0.00  0.00     0.027 C 
BRANCH  10  11
HETATM   11  C   UNK N   1      24.675  20.801   3.045  0.00  0.00     0.014 C 
BRANCH  11  12
HETATM   12  C   UNK N   1      23.617  19.757   3.356  0.00  0.00     0.110 C 
BRANCH  12  13
HETATM   13  C   UNK N   1      22.272  20.231   2.910  0.00  0.00     0.139 C 
HETATM   14  O   UNK N   1      21.397  19.420   2.655  0.00  0.00    -0.650 OA
BRANCH  13  15
HETATM   15  O   UNK N   1      22.018  21.549   2.799  0.00  0.00    -0.776 OA
HETATM   16  H   UNK N   1      22.473  22.097   2.191  0.00  0.00     0.167 HD
ENDBRANCH  13  15
ENDBRANCH  12  13
ENDBRANCH  11  12
ENDBRANCH  10  11
ENDBRANCH   9  10
ENDBRANCH   7   8
ENDBRANCH   1   7
BRANCH   2  17
HETATM   17  O   UNK N   1      27.465  18.163   9.130  0.00  0.00    -0.395 OA
HETATM   18  H   UNK N   1      26.859  18.047   9.878  0.00  0.00     0.210 HD
ENDBRANCH   2  17
BRANCH   5  19
HETATM   19  C   UNK N   1      29.924  16.341   5.996  0.00  0.00    -0.016 C 
HETATM   20  C   UNK N   1      30.228  16.980   4.864  0.00  0.00     0.001 C 
BRANCH  20  21
HETATM   21  C   UNK N   1      30.854  16.258   3.704  0.00  0.00     0.140 C 
BRANCH  21  22
HETATM   22  C   UNK N   1      32.049  15.401   4.129  0.00  0.00     0.036 C 
BRANCH  22  23
HETATM   23  C   UNK N   1      33.354  16.180   4.050  0.00  0.00     0.003 C 
BRANCH  23  24
HETATM   24  C   UNK N   1      33.977  16.277   5.425  0.00  0.00    -0.000 C 
BRANCH  24  25
HETATM   25  C   UNK N   1      33.552  17.578   6.072  0.00  0.00    -0.005 C 
HETATM   26  C   UNK N   1      34.164  17.679   7.453  0.00  0.00     0.005 C 
ENDBRANCH  24  25
ENDBRANCH  23  24
ENDBRANCH  22  23
ENDBRANCH  21  22
BRANCH  21  27
HETATM   27  O   UNK N   1      31.290  17.205   2.780  0.00  0.00    -0.392 OA
HETATM   28  H   UNK N   1      32.092  17.335   2.250  0.00  0.00     0.210 HD
ENDBRANCH  21  27
ENDBRANCH  20  21
ENDBRANCH   5  19
TORSDOF 15
ENDMDL
MODEL 3
REMARK VINA RESULT:      -5.9     10.059     13.069
REMARK  15 active torsions:
REMARK  status: ('A' for Active; 'I' for Inactive)
REMARK    1  A    between atoms: C_1  and  C_2 
REMARK    2  A    between atoms: C_1  and  O_21 
REMARK    3  A    between atoms: C_2  and  C_3 
REMARK    4  A    between atoms: C_3  and  C_4 
REMARK    5  A    between atoms: C_4  and  C_5 
REMARK    6  A    between atoms: C_6  and  C_7 
REMARK    7  A    between atoms: C_8  and  C_7 
REMARK    8  A    between atoms: C_9  and  O_23 
REMARK    9  A    between atoms: C_12  and  C_13 
REMARK   10  A    between atoms: C_14  and  C_15 
REMARK   11  A    between atoms: C_15  and  C_16 
REMARK   12  A    between atoms: C_15  and  O_25 
REMARK   13  A    between atoms: C_16  and  C_17 
REMARK   14  A    between atoms: C_17  and  C_18 
REMARK   15  A    between atoms: C_18  and  C_19 
ROOT
HETATM    1  C   UNK N   1      28.646  17.761   7.379  0.00  0.00     0.033 C 
HETATM    2  C   UNK N   1      28.427  18.250   8.818  0.00  0.00     0.130 C 
HETATM    3  C   UNK N   1      29.828  18.665   9.266  0.00  0.00     0.111 C 
HETATM    4  C   UNK N   1      30.678  17.708   8.502  0.00  0.00     0.137 C 
HETATM    5  C   UNK N   1      29.920  16.899   7.504  0.00  0.00     0.084 C 
HETATM    6  O   UNK N   1      31.876  17.586   8.704  0.00  0.00    -0.297 OA
ENDROOT
BRANCH   1   7
HETATM    7  C   UNK N   1      27.411  17.040   6.821  0.00  0.00     0.035 C 
BRANCH   7   8
HETATM    8  C   UNK N   1      26.920  17.628   5.540  0.00  0.00    -0.030 C 
HETATM    9  C   UNK N   1      27.610  18.600   4.946  0.00  0.00    -0.031 C 
BRANCH   9  10
HETATM   10  C   UNK N   1      27.144  19.205   3.661  0.00  0.00     0.027 C 
BRANCH  10  11
HETATM   11  C   UNK N   1      26.142  20.318   3.919  0.00  0.00     0.014 C 
BRANCH  11  12
HETATM   12  C   UNK N   1      25.223  20.501   2.724  0.00  0.00     0.110 C 
BRANCH  12  13
HETATM   13  C   UNK N   1      23.795  20.345   3.136  0.00  0.00     0.139 C 
HETATM   14  O   UNK N   1      23.451  19.361   3.769  0.00  0.00    -0.650 OA
BRANCH  13  15
HETATM   15  O   UNK N   1      22.889  21.291   2.821  0.00  0.00    -0.776 OA
HETATM   16  H   UNK N   1      22.396  21.267   2.024  0.00  0.00     0.167 HD
ENDBRANCH  13  15
ENDBRANCH  12  13
ENDBRANCH  11  12
ENDBRANCH  10  11
ENDBRANCH   9  10
ENDBRANCH   7   8
ENDBRANCH   1   7
BRANCH   2  17
HETATM   17  O   UNK N   1      27.986  17.196   9.629  0.00  0.00    -0.395 OA
HETATM   18  H   UNK N   1      27.318  16.556   9.918  0.00  0.00     0.210 HD
ENDBRANCH   2  17
BRANCH   5  19
HETATM   19  C   UNK N   1      30.722  16.631   6.256  0.00  0.00    -0.016 C 
HETATM   20  C   UNK N   1      30.987  17.532   5.307  0.00  0.00     0.001 C 
BRANCH  20  21
HETATM   21  C   UNK N   1      31.727  17.153   4.054  0.00  0.00     0.140 C 
BRANCH  21  22
HETATM   22  C   UNK N   1      31.077  15.969   3.333  0.00  0.00     0.036 C 
BRANCH  22  23
HETATM   23  C   UNK N   1      29.717  16.340   2.760  0.00  0.00     0.003 C 
BRANCH  23  24
HETATM   24  C   UNK N   1      28.957  15.084   2.391  0.00  0.00    -0.000 C 
BRANCH  24  25
HETATM   25  C   UNK N   1      27.675  15.025   3.194  0.00  0.00    -0.005 C 
HETATM   26  C   UNK N   1      26.552  15.655   2.399  0.00  0.00     0.005 C 
ENDBRANCH  24  25
ENDBRANCH  23  24
ENDBRANCH  22  23
ENDBRANCH  21  22
BRANCH  21  27
HETATM   27  O   UNK N   1      33.029  16.802   4.403  0.00  0.00    -0.392 OA
HETATM   28  H   UNK N   1      33.916  17.126   4.178  0.00  0.00     0.210 HD
ENDBRANCH  21  27
ENDBRANCH  20  21
ENDBRANCH   5  19
TORSDOF 15
ENDMDL
MODEL 4
REMARK VINA RESULT:      -5.9      2.443      6.871
REMARK  15 active torsions:
REMARK  status: ('A' for Active; 'I' for Inactive)
REMARK    1  A    between atoms: C_1  and  C_2 
REMARK    2  A    between atoms: C_1  and  O_21 
REMARK    3  A    between atoms: C_2  and  C_3 
REMARK    4  A    between atoms: C_3  and  C_4 
REMARK    5  A    between atoms: C_4  and  C_5 
REMARK    6  A    between atoms: C_6  and  C_7 
REMARK    7  A    between atoms: C_8  and  C_7 
REMARK    8  A    between atoms: C_9  and  O_23 
REMARK    9  A    between atoms: C_12  and  C_13 
REMARK   10  A    between atoms: C_14  and  C_15 
REMARK   11  A    between atoms: C_15  and  C_16 
REMARK   12  A    between atoms: C_15  and  O_25 
REMARK   13  A    between atoms: C_16  and  C_17 
REMARK   14  A    between atoms: C_17  and  C_18 
REMARK   15  A    between atoms: C_18  and  C_19 
ROOT
HETATM    1  C   UNK N   1      26.103  28.527  -4.457  0.00  0.00     0.033 C 
HETATM    2  C   UNK N   1      26.485  29.747  -3.606  0.00  0.00     0.130 C 
HETATM    3  C   UNK N   1      27.178  30.671  -4.606  0.00  0.00     0.111 C 
HETATM    4  C   UNK N   1      27.802  29.686  -5.535  0.00  0.00     0.137 C 
HETATM    5  C   UNK N   1      27.382  28.277  -5.284  0.00  0.00     0.084 C 
HETATM    6  O   UNK N   1      28.604  30.010  -6.398  0.00  0.00    -0.297 OA
ENDROOT
BRANCH   1   7
HETATM    7  C   UNK N   1      25.631  27.348  -3.595  0.00  0.00     0.035 C 
BRANCH   7   8
HETATM    8  C   UNK N   1      26.704  26.339  -3.347  0.00  0.00    -0.030 C 
HETATM    9  C   UNK N   1      26.544  25.083  -3.759  0.00  0.00    -0.031 C 
BRANCH   9  10
HETATM   10  C   UNK N   1      27.603  24.053  -3.529  0.00  0.00     0.027 C 
BRANCH  10  11
HETATM   11  C   UNK N   1      28.868  24.396  -4.301  0.00  0.00     0.014 C 
BRANCH  11  12
HETATM   12  C   UNK N   1      30.054  24.519  -3.361  0.00  0.00     0.110 C 
BRANCH  12  13
HETATM   13  C   UNK N   1      30.373  23.195  -2.749  0.00  0.00     0.139 C 
HETATM   14  O   UNK N   1      30.440  23.088  -1.536  0.00  0.00    -0.650 OA
BRANCH  13  15
HETATM   15  O   UNK N   1      30.577  22.116  -3.529  0.00  0.00    -0.776 OA
HETATM   16  H   UNK N   1      31.390  21.650  -3.538  0.00  0.00     0.167 HD
ENDBRANCH  13  15
ENDBRANCH  12  13
ENDBRANCH  11  12
ENDBRANCH  10  11
ENDBRANCH   9  10
ENDBRANCH   7   8
ENDBRANCH   1   7
BRANCH   2  17
HETATM   17  O   UNK N   1      27.405  29.381  -2.615  0.00  0.00    -0.395 OA
HETATM   18  H   UNK N   1      28.202  29.532  -2.084  0.00  0.00     0.210 HD
ENDBRANCH   2  17
BRANCH   5  19
HETATM   19  C   UNK N   1      27.259  27.480  -6.558  0.00  0.00    -0.016 C 
HETATM   20  C   UNK N   1      26.114  27.021  -7.068  0.00  0.00     0.001 C 
BRANCH  20  21
HETATM   21  C   UNK N   1      26.097  26.164  -8.303  0.00  0.00     0.140 C 
BRANCH  21  22
HETATM   22  C   UNK N   1      25.885  24.683  -7.978  0.00  0.00     0.036 C 
BRANCH  22  23
HETATM   23  C   UNK N   1      27.197  23.987  -7.649  0.00  0.00     0.003 C 
BRANCH  23  24
HETATM   24  C   UNK N   1      26.919  22.636  -7.030  0.00  0.00    -0.000 C 
BRANCH  24  25
HETATM   25  C   UNK N   1      25.483  22.593  -6.555  0.00  0.00    -0.005 C 
HETATM   26  C   UNK N   1      24.773  21.419  -7.195  0.00  0.00     0.005 C 
ENDBRANCH  24  25
ENDBRANCH  23  24
ENDBRANCH  22  23
ENDBRANCH  21  22
BRANCH  21  27
HETATM   27  O   UNK N   1      27.320  26.307  -8.954  0.00  0.00    -0.392 OA
HETATM   28  H   UNK N   1      27.964  27.024  -9.065  0.00  0.00     0.210 HD
ENDBRANCH  21  27
ENDBRANCH  20  21
ENDBRANCH   5  19
TORSDOF 15
ENDMDL
MODEL 5
REMARK VINA RESULT:      -5.9      2.031      4.679
REMARK  15 active torsions:
REMARK  status: ('A' for Active; 'I' for Inactive)
REMARK    1  A    between atoms: C_1  and  C_2 
REMARK    2  A    between atoms: C_1  and  O_21 
REMARK    3  A    between atoms: C_2  and  C_3 
REMARK    4  A    between atoms: C_3  and  C_4 
REMARK    5  A    between atoms: C_4  and  C_5 
REMARK    6  A    between atoms: C_6  and  C_7 
REMARK    7  A    between atoms: C_8  and  C_7 
REMARK    8  A    between atoms: C_9  and  O_23 
REMARK    9  A    between atoms: C_12  and  C_13 
REMARK   10  A    between atoms: C_14  and  C_15 
REMARK   11  A    between atoms: C_15  and  C_16 
REMARK   12  A    between atoms: C_15  and  O_25 
REMARK   13  A    between atoms: C_16  and  C_17 
REMARK   14  A    between atoms: C_17  and  C_18 
REMARK   15  A    between atoms: C_18  and  C_19 
ROOT
HETATM    1  C   UNK N   1      30.698  23.408  -5.080  0.00  0.00     0.033 C 
HETATM    2  C   UNK N   1      32.096  22.843  -4.788  0.00  0.00     0.130 C 
HETATM    3  C   UNK N   1      31.938  22.209  -3.406  0.00  0.00     0.111 C 
HETATM    4  C   UNK N   1      30.914  23.099  -2.788  0.00  0.00     0.137 C 
HETATM    5  C   UNK N   1      30.318  24.079  -3.743  0.00  0.00     0.084 C 
HETATM    6  O   UNK N   1      30.621  23.043  -1.604  0.00  0.00    -0.297 OA
ENDROOT
BRANCH   1   7
HETATM    7  C   UNK N   1      30.694  24.331  -6.307  0.00  0.00     0.035 C 
BRANCH   7   8
HETATM    8  C   UNK N   1      30.229  25.715  -5.996  0.00  0.00    -0.030 C 
HETATM    9  C   UNK N   1      29.161  26.213  -6.617  0.00  0.00    -0.031 C 
BRANCH   9  10
HETATM   10  C   UNK N   1      28.670  27.595  -6.322  0.00  0.00     0.027 C 
BRANCH  10  11
HETATM   11  C   UNK N   1      27.898  27.626  -5.013  0.00  0.00     0.014 C 
BRANCH  11  12
HETATM   12  C   UNK N   1      26.508  28.199  -5.223  0.00  0.00     0.110 C 
BRANCH  12  13
HETATM   13  C   UNK N   1      25.950  28.698  -3.930  0.00  0.00     0.139 C 
HETATM   14  O   UNK N   1      25.455  27.913  -3.139  0.00  0.00    -0.650 OA
BRANCH  13  15
HETATM   15  O   UNK N   1      25.999  30.011  -3.630  0.00  0.00    -0.776 OA
HETATM   16  H   UNK N   1      25.777  30.675  -4.251  0.00  0.00     0.167 HD
ENDBRANCH  13  15
ENDBRANCH  12  13
ENDBRANCH  11  12
ENDBRANCH  10  11
ENDBRANCH   9  10
ENDBRANCH   7   8
ENDBRANCH   1   7
BRANCH   2  17
HETATM   17  O   UNK N   1      33.034  23.881  -4.706  0.00  0.00    -0.395 OA
HETATM   18  H   UNK N   1      33.681  24.486  -5.097  0.00  0.00     0.210 HD
ENDBRANCH   2  17
BRANCH   5  19
HETATM   19  C   UNK N   1      28.857  24.332  -3.465  0.00  0.00    -0.016 C 
HETATM   20  C   UNK N   1      27.843  23.789  -4.143  0.00  0.00     0.001 C 
BRANCH  20  21
HETATM   21  C   UNK N   1      26.417  24.165  -3.848  0.00  0.00     0.140 C 
BRANCH  21  22
HETATM   22  C   UNK N   1      25.649  24.565  -5.110  0.00  0.00     0.036 C 
BRANCH  22  23
HETATM   23  C   UNK N   1      26.308  24.014  -6.366  0.00  0.00     0.003 C 
BRANCH  23  24
HETATM   24  C   UNK N   1      25.627  22.728  -6.779  0.00  0.00    -0.000 C 
BRANCH  24  25
HETATM   25  C   UNK N   1      26.556  21.939  -7.676  0.00  0.00    -0.005 C 
HETATM   26  C   UNK N   1      27.798  22.756  -7.961  0.00  0.00     0.005 C 
ENDBRANCH  24  25
ENDBRANCH  23  24
ENDBRANCH  22  23
ENDBRANCH  21  22
BRANCH  21  27
HETATM   27  O   UNK N   1      26.420  25.243  -2.966  0.00  0.00    -0.392 OA
HETATM   28  H   UNK N   1      26.097  25.401  -2.065  0.00  0.00     0.210 HD
ENDBRANCH  21  27
ENDBRANCH  20  21
ENDBRANCH   5  19
TORSDOF 15
ENDMDL
MODEL 6
REMARK VINA RESULT:      -5.8     13.212     17.196
REMARK  15 active torsions:
REMARK  status: ('A' for Active; 'I' for Inactive)
REMARK    1  A    between atoms: C_1  and  C_2 
REMARK    2  A    between atoms: C_1  and  O_21 
REMARK    3  A    between atoms: C_2  and  C_3 
REMARK    4  A    between atoms: C_3  and  C_4 
REMARK    5  A    between atoms: C_4  and  C_5 
REMARK    6  A    between atoms: C_6  and  C_7 
REMARK    7  A    between atoms: C_8  and  C_7 
REMARK    8  A    between atoms: C_9  and  O_23 
REMARK    9  A    between atoms: C_12  and  C_13 
REMARK   10  A    between atoms: C_14  and  C_15 
REMARK   11  A    between atoms: C_15  and  C_16 
REMARK   12  A    between atoms: C_15  and  O_25 
REMARK   13  A    between atoms: C_16  and  C_17 
REMARK   14  A    between atoms: C_17  and  C_18 
REMARK   15  A    between atoms: C_18  and  C_19 
ROOT
HETATM    1  C   UNK N   1      33.208  17.626   7.037  0.00  0.00     0.033 C 
HETATM    2  C   UNK N   1      33.939  17.237   5.743  0.00  0.00     0.130 C 
HETATM    3  C   UNK N   1      32.840  16.591   4.900  0.00  0.00     0.111 C 
HETATM    4  C   UNK N   1      31.979  15.981   5.953  0.00  0.00     0.137 C 
HETATM    5  C   UNK N   1      32.364  16.370   7.341  0.00  0.00     0.084 C 
HETATM    6  O   UNK N   1      31.066  15.212   5.694  0.00  0.00    -0.297 OA
ENDROOT
BRANCH   1   7
HETATM    7  C   UNK N   1      34.183  18.051   8.144  0.00  0.00     0.035 C 
BRANCH   7   8
HETATM    8  C   UNK N   1      34.721  16.897   8.924  0.00  0.00    -0.030 C 
HETATM    9  C   UNK N   1      35.306  17.106  10.101  0.00  0.00    -0.031 C 
BRANCH   9  10
HETATM   10  C   UNK N   1      35.850  15.969  10.907  0.00  0.00     0.027 C 
BRANCH  10  11
HETATM   11  C   UNK N   1      34.723  15.125  11.480  0.00  0.00     0.014 C 
BRANCH  11  12
HETATM   12  C   UNK N   1      35.249  13.786  11.967  0.00  0.00     0.110 C 
BRANCH  12  13
HETATM   13  C   UNK N   1      35.614  13.865  13.413  0.00  0.00     0.139 C 
HETATM   14  O   UNK N   1      34.860  13.407  14.255  0.00  0.00    -0.650 OA
BRANCH  13  15
HETATM   15  O   UNK N   1      36.777  14.431  13.791  0.00  0.00    -0.776 OA
HETATM   16  H   UNK N   1      37.412  13.974  14.306  0.00  0.00     0.167 HD
ENDBRANCH  13  15
ENDBRANCH  12  13
ENDBRANCH  11  12
ENDBRANCH  10  11
ENDBRANCH   9  10
ENDBRANCH   7   8
ENDBRANCH   1   7
BRANCH   2  17
HETATM   17  O   UNK N   1      34.927  16.280   6.010  0.00  0.00    -0.395 OA
HETATM   18  H   UNK N   1      35.624  15.665   5.736  0.00  0.00     0.210 HD
ENDBRANCH   2  17
BRANCH   5  19
HETATM   19  C   UNK N   1      31.168  16.521   8.246  0.00  0.00    -0.016 C 
HETATM   20  C   UNK N   1      30.607  17.683   8.590  0.00  0.00     0.001 C 
BRANCH  20  21
HETATM   21  C   UNK N   1      29.465  17.741   9.566  0.00  0.00     0.140 C 
BRANCH  21  22
HETATM   22  C   UNK N   1      28.135  18.067   8.883  0.00  0.00     0.036 C 
BRANCH  22  23
HETATM   23  C   UNK N   1      28.291  19.171   7.848  0.00  0.00     0.003 C 
BRANCH  23  24
HETATM   24  C   UNK N   1      27.626  18.758   6.554  0.00  0.00    -0.000 C 
BRANCH  24  25
HETATM   25  C   UNK N   1      28.371  17.578   5.967  0.00  0.00    -0.005 C 
HETATM   26  C   UNK N   1      29.149  18.026   4.748  0.00  0.00     0.005 C 
ENDBRANCH  24  25
ENDBRANCH  23  24
ENDBRANCH  22  23
ENDBRANCH  21  22
BRANCH  21  27
HETATM   27  O   UNK N   1      29.740  18.733  10.505  0.00  0.00    -0.392 OA
HETATM   28  H   UNK N   1      29.209  19.310  11.076  0.00  0.00     0.210 HD
ENDBRANCH  21  27
ENDBRANCH  20  21
ENDBRANCH   5  19
TORSDOF 15
ENDMDL
MODEL 7
REMARK VINA RESULT:      -5.7     11.934     16.208
REMARK  15 active torsions:
REMARK  status: ('A' for Active; 'I' for Inactive)
REMARK    1  A    between atoms: C_1  and  C_2 
REMARK    2  A    between atoms: C_1  and  O_21 
REMARK    3  A    between atoms: C_2  and  C_3 
REMARK    4  A    between atoms: C_3  and  C_4 
REMARK    5  A    between atoms: C_4  and  C_5 
REMARK    6  A    between atoms: C_6  and  C_7 
REMARK    7  A    between atoms: C_8  and  C_7 
REMARK    8  A    between atoms: C_9  and  O_23 
REMARK    9  A    between atoms: C_12  and  C_13 
REMARK   10  A    between atoms: C_14  and  C_15 
REMARK   11  A    between atoms: C_15  and  C_16 
REMARK   12  A    between atoms: C_15  and  O_25 
REMARK   13  A    between atoms: C_16  and  C_17 
REMARK   14  A    between atoms: C_17  and  C_18 
REMARK   15  A    between atoms: C_18  and  C_19 
ROOT
HETATM    1  C   UNK N   1      29.528  17.289   8.292  0.00  0.00     0.033 C 
HETATM    2  C   UNK N   1      28.235  17.474   9.100  0.00  0.00     0.130 C 
HETATM    3  C   UNK N   1      27.232  16.584   8.366  0.00  0.00     0.111 C 
HETATM    4  C   UNK N   1      27.724  16.679   6.963  0.00  0.00     0.137 C 
HETATM    5  C   UNK N   1      29.033  17.384   6.834  0.00  0.00     0.084 C 
HETATM    6  O   UNK N   1      27.094  16.243   6.012  0.00  0.00    -0.297 OA
ENDROOT
BRANCH   1   7
HETATM    7  C   UNK N   1      30.607  18.305   8.692  0.00  0.00     0.035 C 
BRANCH   7   8
HETATM    8  C   UNK N   1      31.971  17.704   8.783  0.00  0.00    -0.030 C 
HETATM    9  C   UNK N   1      32.939  18.129   7.974  0.00  0.00    -0.031 C 
BRANCH   9  10
HETATM   10  C   UNK N   1      34.316  17.549   8.045  0.00  0.00     0.027 C 
BRANCH  10  11
HETATM   11  C   UNK N   1      34.298  16.200   8.747  0.00  0.00     0.014 C 
BRANCH  11  12
HETATM   12  C   UNK N   1      35.120  16.248  10.023  0.00  0.00     0.110 C 
BRANCH  12  13
HETATM   13  C   UNK N   1      34.555  15.313  11.042  0.00  0.00     0.139 C 
HETATM   14  O   UNK N   1      35.296  14.761  11.836  0.00  0.00    -0.650 OA
BRANCH  13  15
HETATM   15  O   UNK N   1      33.228  15.086  11.093  0.00  0.00    -0.776 OA
HETATM   16  H   UNK N   1      32.804  14.463  10.535  0.00  0.00     0.167 HD
ENDBRANCH  13  15
ENDBRANCH  12  13
ENDBRANCH  11  12
ENDBRANCH  10  11
ENDBRANCH   9  10
ENDBRANCH   7   8
ENDBRANCH   1   7
BRANCH   2  17
HETATM   17  O   UNK N   1      27.800  18.803   9.027  0.00  0.00    -0.395 OA
HETATM   18  H   UNK N   1      27.244  19.543   9.316  0.00  0.00     0.210 HD
ENDBRANCH   2  17
BRANCH   5  19
HETATM   19  C   UNK N   1      29.898  16.792   5.750  0.00  0.00    -0.016 C 
HETATM   20  C   UNK N   1      30.194  17.390   4.593  0.00  0.00     0.001 C 
BRANCH  20  21
HETATM   21  C   UNK N   1      30.999  16.688   3.535  0.00  0.00     0.140 C 
BRANCH  21  22
HETATM   22  C   UNK N   1      32.467  17.121   3.540  0.00  0.00     0.036 C 
BRANCH  22  23
HETATM   23  C   UNK N   1      33.383  16.002   3.066  0.00  0.00     0.003 C 
BRANCH  23  24
HETATM   24  C   UNK N   1      33.131  14.754   3.882  0.00  0.00    -0.000 C 
BRANCH  24  25
HETATM   25  C   UNK N   1      33.490  15.024   5.328  0.00  0.00    -0.005 C 
HETATM   26  C   UNK N   1      32.531  14.283   6.234  0.00  0.00     0.005 C 
ENDBRANCH  24  25
ENDBRANCH  23  24
ENDBRANCH  22  23
ENDBRANCH  21  22
BRANCH  21  27
HETATM   27  O   UNK N   1      30.449  16.992   2.291  0.00  0.00    -0.392 OA
HETATM   28  H   UNK N   1      29.788  17.621   1.963  0.00  0.00     0.210 HD
ENDBRANCH  21  27
ENDBRANCH  20  21
ENDBRANCH   5  19
TORSDOF 15
ENDMDL
MODEL 8
REMARK VINA RESULT:      -5.7      2.250      6.193
REMARK  15 active torsions:
REMARK  status: ('A' for Active; 'I' for Inactive)
REMARK    1  A    between atoms: C_1  and  C_2 
REMARK    2  A    between atoms: C_1  and  O_21 
REMARK    3  A    between atoms: C_2  and  C_3 
REMARK    4  A    between atoms: C_3  and  C_4 
REMARK    5  A    between atoms: C_4  and  C_5 
REMARK    6  A    between atoms: C_6  and  C_7 
REMARK    7  A    between atoms: C_8  and  C_7 
REMARK    8  A    between atoms: C_9  and  O_23 
REMARK    9  A    between atoms: C_12  and  C_13 
REMARK   10  A    between atoms: C_14  and  C_15 
REMARK   11  A    between atoms: C_15  and  C_16 
REMARK   12  A    between atoms: C_15  and  O_25 
REMARK   13  A    between atoms: C_16  and  C_17 
REMARK   14  A    between atoms: C_17  and  C_18 
REMARK   15  A    between atoms: C_18  and  C_19 
ROOT
HETATM    1  C   UNK N   1      26.532  24.798  -5.447  0.00  0.00     0.033 C 
HETATM    2  C   UNK N   1      26.599  23.628  -6.440  0.00  0.00     0.130 C 
HETATM    3  C   UNK N   1      26.671  24.323  -7.799  0.00  0.00     0.111 C 
HETATM    4  C   UNK N   1      25.876  25.557  -7.542  0.00  0.00     0.137 C 
HETATM    5  C   UNK N   1      25.508  25.744  -6.108  0.00  0.00     0.084 C 
HETATM    6  O   UNK N   1      25.539  26.322  -8.433  0.00  0.00    -0.297 OA
ENDROOT
BRANCH   1   7
HETATM    7  C   UNK N   1      26.181  24.331  -4.028  0.00  0.00     0.035 C 
BRANCH   7   8
HETATM    8  C   UNK N   1      27.363  24.289  -3.117  0.00  0.00    -0.030 C 
HETATM    9  C   UNK N   1      28.188  23.244  -3.147  0.00  0.00    -0.031 C 
BRANCH   9  10
HETATM   10  C   UNK N   1      29.382  23.177  -2.249  0.00  0.00     0.027 C 
BRANCH  10  11
HETATM   11  C   UNK N   1      30.587  23.837  -2.902  0.00  0.00     0.014 C 
BRANCH  11  12
HETATM   12  C   UNK N   1      31.289  22.868  -3.838  0.00  0.00     0.110 C 
BRANCH  12  13
HETATM   13  C   UNK N   1      31.605  21.594  -3.125  0.00  0.00     0.139 C 
HETATM   14  O   UNK N   1      32.368  21.603  -2.174  0.00  0.00    -0.650 OA
BRANCH  13  15
HETATM   15  O   UNK N   1      31.042  20.435  -3.522  0.00  0.00    -0.776 OA
HETATM   16  H   UNK N   1      31.552  19.698  -3.792  0.00  0.00     0.167 HD
ENDBRANCH  13  15
ENDBRANCH  12  13
ENDBRANCH  11  12
ENDBRANCH  10  11
ENDBRANCH   9  10
ENDBRANCH   7   8
ENDBRANCH   1   7
BRANCH   2  17
HETATM   17  O   UNK N   1      25.422  22.870  -6.380  0.00  0.00    -0.395 OA
HETATM   18  H   UNK N   1      24.853  22.143  -6.674  0.00  0.00     0.210 HD
ENDBRANCH   2  17
BRANCH   5  19
HETATM   19  C   UNK N   1      25.515  27.196  -5.700  0.00  0.00    -0.016 C 
HETATM   20  C   UNK N   1      26.486  27.791  -5.003  0.00  0.00     0.001 C 
BRANCH  20  21
HETATM   21  C   UNK N   1      26.369  29.226  -4.569  0.00  0.00     0.140 C 
BRANCH  21  22
HETATM   22  C   UNK N   1      27.701  29.973  -4.669  0.00  0.00     0.036 C 
BRANCH  22  23
HETATM   23  C   UNK N   1      28.862  29.020  -4.908  0.00  0.00     0.003 C 
BRANCH  23  24
HETATM   24  C   UNK N   1      29.579  28.749  -3.603  0.00  0.00    -0.000 C 
BRANCH  24  25
HETATM   25  C   UNK N   1      30.207  27.373  -3.658  0.00  0.00    -0.005 C 
HETATM   26  C   UNK N   1      29.880  26.720  -4.984  0.00  0.00     0.005 C 
ENDBRANCH  24  25
ENDBRANCH  23  24
ENDBRANCH  22  23
ENDBRANCH  21  22
BRANCH  21  27
HETATM   27  O   UNK N   1      25.942  29.250  -3.242  0.00  0.00    -0.392 OA
HETATM   28  H   UNK N   1      25.137  29.530  -2.781  0.00  0.00     0.210 HD
ENDBRANCH  21  27
ENDBRANCH  20  21
ENDBRANCH   5  19
TORSDOF 15
ENDMDL
MODEL 9
REMARK VINA RESULT:      -5.6      1.655      6.787
REMARK  15 active torsions:
REMARK  status: ('A' for Active; 'I' for Inactive)
REMARK    1  A    between atoms: C_1  and  C_2 
REMARK    2  A    between atoms: C_1  and  O_21 
REMARK    3  A    between atoms: C_2  and  C_3 
REMARK    4  A    between atoms: C_3  and  C_4 
REMARK    5  A    between atoms: C_4  and  C_5 
REMARK    6  A    between atoms: C_6  and  C_7 
REMARK    7  A    between atoms: C_8  and  C_7 
REMARK    8  A    between atoms: C_9  and  O_23 
REMARK    9  A    between atoms: C_12  and  C_13 
REMARK   10  A    between atoms: C_14  and  C_15 
REMARK   11  A    between atoms: C_15  and  C_16 
REMARK   12  A    between atoms: C_15  and  O_25 
REMARK   13  A    between atoms: C_16  and  C_17 
REMARK   14  A    between atoms: C_17  and  C_18 
REMARK   15  A    between atoms: C_18  and  C_19 
ROOT
HETATM    1  C   UNK N   1      26.321  25.189  -3.746  0.00  0.00     0.033 C 
HETATM    2  C   UNK N   1      26.586  26.684  -3.513  0.00  0.00     0.130 C 
HETATM    3  C   UNK N   1      25.661  27.366  -4.521  0.00  0.00     0.111 C 
HETATM    4  C   UNK N   1      25.643  26.369  -5.628  0.00  0.00     0.137 C 
HETATM    5  C   UNK N   1      26.315  25.082  -5.286  0.00  0.00     0.084 C 
HETATM    6  O   UNK N   1      25.148  26.604  -6.720  0.00  0.00    -0.297 OA
ENDROOT
BRANCH   1   7
HETATM    7  C   UNK N   1      27.346  24.303  -3.025  0.00  0.00     0.035 C 
BRANCH   7   8
HETATM    8  C   UNK N   1      28.412  23.785  -3.933  0.00  0.00    -0.030 C 
HETATM    9  C   UNK N   1      29.693  23.893  -3.584  0.00  0.00    -0.031 C 
BRANCH   9  10
HETATM   10  C   UNK N   1      30.781  23.380  -4.471  0.00  0.00     0.027 C 
BRANCH  10  11
HETATM   11  C   UNK N   1      30.492  21.953  -4.912  0.00  0.00     0.014 C 
BRANCH  11  12
HETATM   12  C   UNK N   1      30.736  20.979  -3.772  0.00  0.00     0.110 C 
BRANCH  12  13
HETATM   13  C   UNK N   1      32.170  21.014  -3.356  0.00  0.00     0.139 C 
HETATM   14  O   UNK N   1      33.043  20.758  -4.168  0.00  0.00    -0.650 OA
BRANCH  13  15
HETATM   15  O   UNK N   1      32.504  21.336  -2.091  0.00  0.00    -0.776 OA
HETATM   16  H   UNK N   1      32.058  22.005  -1.610  0.00  0.00     0.167 HD
ENDBRANCH  13  15
ENDBRANCH  12  13
ENDBRANCH  11  12
ENDBRANCH  10  11
ENDBRANCH   9  10
ENDBRANCH   7   8
ENDBRANCH   1   7
BRANCH   2  17
HETATM   17  O   UNK N   1      27.913  26.999  -3.832  0.00  0.00    -0.395 OA
HETATM   18  H   UNK N   1      28.856  27.066  -3.616  0.00  0.00     0.210 HD
ENDBRANCH   2  17
BRANCH   5  19
HETATM   19  C   UNK N   1      25.630  23.893  -5.913  0.00  0.00    -0.016 C 
HETATM   20  C   UNK N   1      26.181  23.081  -6.818  0.00  0.00     0.001 C 
BRANCH  20  21
HETATM   21  C   UNK N   1      25.392  21.968  -7.450  0.00  0.00     0.140 C 
BRANCH  21  22
HETATM   22  C   UNK N   1      26.270  21.043  -8.297  0.00  0.00     0.036 C 
BRANCH  22  23
HETATM   23  C   UNK N   1      27.506  21.763  -8.817  0.00  0.00     0.003 C 
BRANCH  23  24
HETATM   24  C   UNK N   1      28.752  21.105  -8.267  0.00  0.00    -0.000 C 
BRANCH  24  25
HETATM   25  C   UNK N   1      28.409  19.708  -7.797  0.00  0.00    -0.005 C 
HETATM   26  C   UNK N   1      29.656  18.849  -7.815  0.00  0.00     0.005 C 
ENDBRANCH  24  25
ENDBRANCH  23  24
ENDBRANCH  22  23
ENDBRANCH  21  22
BRANCH  21  27
HETATM   27  O   UNK N   1      24.417  22.531  -8.270  0.00  0.00    -0.392 OA
HETATM   28  H   UNK N   1      24.419  23.109  -9.049  0.00  0.00     0.210 HD
ENDBRANCH  21  27
ENDBRANCH  20  21
ENDBRANCH   5  19
TORSDOF 15
ENDMDL
