REMARK  15 active torsions:
REMARK  status: ('A' for Active; 'I' for Inactive)
REMARK    1  A    between atoms: C_1  and  C_2 
REMARK    2  A    between atoms: C_1  and  O_21 
REMARK    3  A    between atoms: C_2  and  C_3 
REMARK    4  A    between atoms: C_3  and  C_4 
REMARK    5  A    between atoms: C_4  and  C_5 
REMARK    6  A    between atoms: C_6  and  C_7 
REMARK    7  A    between atoms: C_8  and  C_7 
REMARK    8  A    between atoms: C_9  and  O_23 
REMARK    9  A    between atoms: C_12  and  C_13 
REMARK   10  A    between atoms: C_14  and  C_15 
REMARK   11  A    between atoms: C_15  and  C_16 
REMARK   12  A    between atoms: C_15  and  O_25 
REMARK   13  A    between atoms: C_16  and  C_17 
REMARK   14  A    between atoms: C_17  and  C_18 
REMARK   15  A    between atoms: C_18  and  C_19 
ROOT
HETATM    1  C   UNK N   1       0.695   2.429  -0.258  0.00  0.00     0.033 C 
HETATM    2  C   UNK N   1       1.526   3.710  -0.423  0.00  0.00     0.130 C 
HETATM    3  C   UNK N   1       2.893   3.188  -0.865  0.00  0.00     0.111 C 
HETATM    4  C   UNK N   1       2.948   1.874  -0.164  0.00  0.00     0.137 C 
HETATM    5  C   UNK N   1       1.664   1.491   0.492  0.00  0.00     0.084 C 
HETATM    6  O   UNK N   1       3.963   1.196  -0.113  0.00  0.00    -0.297 OA
ENDROOT
BRANCH   1   7
HETATM    7  C   UNK N   1      -0.643   2.697   0.445  0.00  0.00     0.035 C 
BRANCH   7   8
HETATM    8  C   UNK N   1      -1.546   1.508   0.456  0.00  0.00    -0.030 C 
HETATM    9  C   UNK N   1      -1.879   0.937   1.612  0.00  0.00    -0.031 C 
BRANCH   9  10
HETATM   10  C   UNK N   1      -2.785  -0.252   1.654  0.00  0.00     0.027 C 
BRANCH  10  11
HETATM   11  C   UNK N   1      -4.218   0.149   1.340  0.00  0.00     0.014 C 
BRANCH  11  12
HETATM   12  C   UNK N   1      -4.531  -0.083  -0.128  0.00  0.00     0.110 C 
BRANCH  12  13
HETATM   13  C   UNK N   1      -5.298  -1.353  -0.302  0.00  0.00     0.139 C 
HETATM   14  O   UNK N   1      -6.421  -1.323  -0.776  0.00  0.00    -0.650 OA
BRANCH  13  15
HETATM   15  O   UNK N   1      -4.751  -2.532   0.053  0.00  0.00    -0.776 OA
HETATM   16  H   UNK N   1      -5.271  -3.271   0.301  0.00  0.00     0.167 HD
ENDBRANCH  13  15
ENDBRANCH  12  13
ENDBRANCH  11  12
ENDBRANCH  10  11
ENDBRANCH   9  10
ENDBRANCH   7   8
ENDBRANCH   1   7
BRANCH   2  17
HETATM   17  O   UNK N   1       1.667   4.362   0.809  0.00  0.00    -0.395 OA
HETATM   18  H   UNK N   1       2.107   4.503   1.661  0.00  0.00     0.210 HD
ENDBRANCH   2  17
BRANCH   5  19
HETATM   19  C   UNK N   1       1.408   0.006   0.427  0.00  0.00    -0.016 C 
HETATM   20  C   UNK N   1       0.479  -0.579  -0.333  0.00  0.00     0.001 C 
BRANCH  20  21
HETATM   21  C   UNK N   1       0.240  -2.062  -0.271  0.00  0.00     0.140 C 
BRANCH  21  22
HETATM   22  C   UNK N   1       1.493  -2.867  -0.624  0.00  0.00     0.036 C 
BRANCH  22  23
HETATM   23  C   UNK N   1       2.542  -2.783   0.475  0.00  0.00     0.003 C 
BRANCH  23  24
HETATM   24  C   UNK N   1       3.909  -2.570  -0.137  0.00  0.00    -0.000 C 
BRANCH  24  25
HETATM   25  C   UNK N   1       4.870  -2.114   0.940  0.00  0.00    -0.005 C 
HETATM   26  C   UNK N   1       6.241  -1.898   0.336  0.00  0.00     0.005 C 
ENDBRANCH  24  25
ENDBRANCH  23  24
ENDBRANCH  22  23
ENDBRANCH  21  22
BRANCH  21  27
HETATM   27  O   UNK N   1      -0.767  -2.383  -1.179  0.00  0.00    -0.392 OA
HETATM   28  H   UNK N   1      -1.310  -1.888  -1.812  0.00  0.00     0.210 HD
ENDBRANCH  21  27
ENDBRANCH  20  21
ENDBRANCH   5  19
TORSDOF 15
