REMARK  1 active torsions:
REMARK  status: ('A' for Active; 'I' for Inactive)
REMARK       I    between atoms: N_1  and  C_2 
REMARK    1  A    between atoms: C_6  and  C_7 
ROOT
HETATM    1  N   UNK N   1      -4.838  -0.947   0.000  0.00  0.00    -0.234 N 
HETATM    2  C   UNK N   1      -3.429  -0.983  -0.000  0.00  0.00     0.679 A 
HETATM    3  N   UNK N   1      -2.649   0.123  -0.000  0.00  0.00    -0.184 N 
HETATM    4  C   UNK N   1      -1.397  -0.342  -0.000  0.00  0.00     0.096 A 
HETATM    5  C   UNK N   1      -0.204   0.354  -0.000  0.00  0.00     0.048 A 
HETATM    6  C   UNK N   1       0.989  -0.395  -0.000  0.00  0.00    -0.008 A 
HETATM    7  N   UNK N   1      -2.705  -2.135  -0.000  0.00  0.00    -0.174 N 
ATOM      8  HN  UNK N   1      -3.046  -3.097  -0.000  1.00  0.00     0.186 HD
HETATM    9  C   UNK N   1      -3.073   1.515  -0.000  0.00  0.00     0.175 C 
HETATM   10  C   UNK N   1      -1.431  -1.698  -0.000  0.00  0.00     0.148 A 
HETATM   11  N   UNK N   1      -0.305  -2.454  -0.000  0.00  0.00    -0.349 N 
ATOM     12  HN  UNK N   1      -0.361  -3.473  -0.000  1.00  0.00     0.167 HD
HETATM   13  C   UNK N   1       0.912  -1.819  -0.000  0.00  0.00     0.102 A 
HETATM   14  H   UNK N   1      -5.309  -0.083   0.000  0.00  0.00     0.174 HD
HETATM   15  H   UNK N   1      -5.352  -1.787   0.000  0.00  0.00     0.174 HD
ENDROOT
BRANCH   6  16
HETATM   16  C   UNK N   1       2.288   0.314  -0.000  0.00  0.00    -0.025 A 
HETATM   17  C   UNK N   1       2.314   1.720   0.000  0.00  0.00     0.012 A 
HETATM   18  C   UNK N   1       3.526   2.410   0.000  0.00  0.00     0.001 A 
HETATM   19  C   UNK N   1       4.729   1.702   0.000  0.00  0.00     0.000 A 
HETATM   20  C   UNK N   1       4.718   0.303   0.000  0.00  0.00     0.001 A 
HETATM   21  C   UNK N   1       3.502  -0.390   0.000  0.00  0.00     0.012 A 
ENDBRANCH   6  16
TORSDOF 1
