MODEL 1
REMARK VINA RESULT:      -6.8      0.000      0.000
REMARK  1 active torsions:
REMARK  status: ('A' for Active; 'I' for Inactive)
REMARK       I    between atoms: N_1  and  C_2 
REMARK    1  A    between atoms: C_6  and  C_7 
ROOT
HETATM    1  N   UNK N   1      36.192  15.305  12.260  0.00  0.00    -0.234 N 
HETATM    2  C   UNK N   1      35.679  15.797  11.043  0.00  0.00     0.679 A 
HETATM    3  N   UNK N   1      35.549  15.047   9.924  0.00  0.00    -0.184 N 
HETATM    4  C   UNK N   1      35.033  15.877   9.014  0.00  0.00     0.096 A 
HETATM    5  C   UNK N   1      34.697  15.634   7.697  0.00  0.00     0.048 A 
HETATM    6  C   UNK N   1      34.164  16.703   6.951  0.00  0.00    -0.008 A 
HETATM    7  N   UNK N   1      35.259  17.079  10.866  0.00  0.00    -0.174 N 
ATOM      8  HN  UNK N   1      35.250  17.842  11.545  1.00  0.00     0.186 HD
HETATM    9  C   UNK N   1      35.893  13.645   9.744  0.00  0.00     0.175 C 
HETATM   10  C   UNK N   1      34.859  17.098   9.580  0.00  0.00     0.148 A 
HETATM   11  N   UNK N   1      34.349  18.151   8.896  0.00  0.00    -0.349 N 
ATOM     12  HN  UNK N   1      34.229  19.058   9.348  1.00  0.00     0.167 HD
HETATM   13  C   UNK N   1      33.996  17.972   7.581  0.00  0.00     0.102 A 
HETATM   14  H   UNK N   1      36.481  14.367  12.330  0.00  0.00     0.174 HD
HETATM   15  H   UNK N   1      36.263  15.900  13.041  0.00  0.00     0.174 HD
ENDROOT
BRANCH   6  16
HETATM   16  C   UNK N   1      33.792  16.483   5.535  0.00  0.00    -0.025 A 
HETATM   17  C   UNK N   1      33.030  17.451   4.857  0.00  0.00     0.012 A 
HETATM   18  C   UNK N   1      32.668  17.265   3.523  0.00  0.00     0.001 A 
HETATM   19  C   UNK N   1      33.063  16.108   2.850  0.00  0.00     0.000 A 
HETATM   20  C   UNK N   1      33.821  15.137   3.513  0.00  0.00     0.001 A 
HETATM   21  C   UNK N   1      34.185  15.323   4.851  0.00  0.00     0.012 A 
ENDBRANCH   6  16
TORSDOF 1
ENDMDL
MODEL 2
REMARK VINA RESULT:      -6.6      5.770     10.213
REMARK  1 active torsions:
REMARK  status: ('A' for Active; 'I' for Inactive)
REMARK       I    between atoms: N_1  and  C_2 
REMARK    1  A    between atoms: C_6  and  C_7 
ROOT
HETATM    1  N   UNK N   1      35.697  13.411   9.945  0.00  0.00    -0.234 N 
HETATM    2  C   UNK N   1      35.841  13.489  11.345  0.00  0.00     0.679 A 
HETATM    3  N   UNK N   1      35.325  12.580  12.205  0.00  0.00    -0.184 N 
HETATM    4  C   UNK N   1      35.682  13.016  13.416  0.00  0.00     0.096 A 
HETATM    5  C   UNK N   1      35.420  12.468  14.656  0.00  0.00     0.048 A 
HETATM    6  C   UNK N   1      35.921  13.142  15.787  0.00  0.00    -0.008 A 
HETATM    7  N   UNK N   1      36.513  14.488  11.978  0.00  0.00    -0.174 N 
ATOM      8  HN  UNK N   1      36.991  15.290  11.565  1.00  0.00     0.186 HD
HETATM    9  C   UNK N   1      34.552  11.389  11.888  0.00  0.00     0.175 C 
HETATM   10  C   UNK N   1      36.395  14.162  13.279  0.00  0.00     0.148 A 
HETATM   11  N   UNK N   1      36.894  14.839  14.343  0.00  0.00    -0.349 N 
ATOM     12  HN  UNK N   1      37.428  15.699  14.210  1.00  0.00     0.167 HD
HETATM   13  C   UNK N   1      36.667  14.344  15.603  0.00  0.00     0.102 A 
HETATM   14  H   UNK N   1      35.199  12.664   9.541  0.00  0.00     0.174 HD
HETATM   15  H   UNK N   1      36.095  14.104   9.369  0.00  0.00     0.174 HD
ENDROOT
BRANCH   6  16
HETATM   16  C   UNK N   1      35.662  12.587  17.134  0.00  0.00    -0.025 A 
HETATM   17  C   UNK N   1      35.790  11.204  17.354  0.00  0.00     0.012 A 
HETATM   18  C   UNK N   1      35.550  10.657  18.614  0.00  0.00     0.001 A 
HETATM   19  C   UNK N   1      35.179  11.488  19.673  0.00  0.00     0.000 A 
HETATM   20  C   UNK N   1      35.048  12.866  19.469  0.00  0.00     0.001 A 
HETATM   21  C   UNK N   1      35.288  13.415  18.204  0.00  0.00     0.012 A 
ENDBRANCH   6  16
TORSDOF 1
ENDMDL
MODEL 3
REMARK VINA RESULT:      -6.4      5.770     10.231
REMARK  1 active torsions:
REMARK  status: ('A' for Active; 'I' for Inactive)
REMARK       I    between atoms: N_1  and  C_2 
REMARK    1  A    between atoms: C_6  and  C_7 
ROOT
HETATM    1  N   UNK N   1      35.236  13.573   9.760  0.00  0.00    -0.234 N 
HETATM    2  C   UNK N   1      35.084  13.044  11.057  0.00  0.00     0.679 A 
HETATM    3  N   UNK N   1      35.458  13.695  12.183  0.00  0.00    -0.184 N 
HETATM    4  C   UNK N   1      35.147  12.861  13.179  0.00  0.00     0.096 A 
HETATM    5  C   UNK N   1      35.314  13.023  14.541  0.00  0.00     0.048 A 
HETATM    6  C   UNK N   1      34.893  11.972  15.379  0.00  0.00    -0.008 A 
HETATM    7  N   UNK N   1      34.545  11.821  11.313  0.00  0.00    -0.174 N 
ATOM      8  HN  UNK N   1      34.187  11.135  10.648  1.00  0.00     0.186 HD
HETATM    9  C   UNK N   1      36.066  15.013  12.293  0.00  0.00     0.175 C 
HETATM   10  C   UNK N   1      34.598  11.736  12.657  0.00  0.00     0.148 A 
HETATM   11  N   UNK N   1      34.181  10.704  13.430  0.00  0.00    -0.349 N 
ATOM     12  HN  UNK N   1      33.772   9.869  13.009  1.00  0.00     0.167 HD
HETATM   13  C   UNK N   1      34.321  10.805  14.792  0.00  0.00     0.102 A 
HETATM   14  H   UNK N   1      35.634  14.465   9.635  0.00  0.00     0.174 HD
HETATM   15  H   UNK N   1      34.945  13.051   8.978  0.00  0.00     0.174 HD
ENDROOT
BRANCH   6  16
HETATM   16  C   UNK N   1      35.054  12.106  16.844  0.00  0.00    -0.025 A 
HETATM   17  C   UNK N   1      35.007  13.381  17.436  0.00  0.00     0.012 A 
HETATM   18  C   UNK N   1      35.157  13.532  18.814  0.00  0.00     0.001 A 
HETATM   19  C   UNK N   1      35.356  12.410  19.619  0.00  0.00     0.000 A 
HETATM   20  C   UNK N   1      35.406  11.135  19.044  0.00  0.00     0.001 A 
HETATM   21  C   UNK N   1      35.255  10.983  17.661  0.00  0.00     0.012 A 
ENDBRANCH   6  16
TORSDOF 1
ENDMDL
MODEL 4
REMARK VINA RESULT:      -6.4      1.380      2.000
REMARK  1 active torsions:
REMARK  status: ('A' for Active; 'I' for Inactive)
REMARK       I    between atoms: N_1  and  C_2 
REMARK    1  A    between atoms: C_6  and  C_7 
ROOT
HETATM    1  N   UNK N   1      37.565  13.442  11.559  0.00  0.00    -0.234 N 
HETATM    2  C   UNK N   1      36.726  14.318  10.841  0.00  0.00     0.679 A 
HETATM    3  N   UNK N   1      36.147  14.003   9.658  0.00  0.00    -0.184 N 
HETATM    4  C   UNK N   1      35.446  15.089   9.322  0.00  0.00     0.096 A 
HETATM    5  C   UNK N   1      34.662  15.315   8.207  0.00  0.00     0.048 A 
HETATM    6  C   UNK N   1      34.025  16.566   8.100  0.00  0.00    -0.008 A 
HETATM    7  N   UNK N   1      36.411  15.572  11.261  0.00  0.00    -0.174 N 
ATOM      8  HN  UNK N   1      36.712  16.050  12.111  1.00  0.00     0.186 HD
HETATM    9  C   UNK N   1      36.259  12.759   8.912  0.00  0.00     0.175 C 
HETATM   10  C   UNK N   1      35.605  16.031  10.285  0.00  0.00     0.148 A 
HETATM   11  N   UNK N   1      35.009  17.247  10.217  0.00  0.00    -0.349 N 
ATOM     12  HN  UNK N   1      35.146  17.937  10.957  1.00  0.00     0.167 HD
HETATM   13  C   UNK N   1      34.216  17.531   9.133  0.00  0.00     0.102 A 
HETATM   14  H   UNK N   1      37.758  12.544  11.206  0.00  0.00     0.174 HD
HETATM   15  H   UNK N   1      37.957  13.728  12.415  0.00  0.00     0.174 HD
ENDROOT
BRANCH   6  16
HETATM   16  C   UNK N   1      33.176  16.847   6.920  0.00  0.00    -0.025 A 
HETATM   17  C   UNK N   1      33.776  17.221   5.704  0.00  0.00     0.012 A 
HETATM   18  C   UNK N   1      32.996  17.490   4.579  0.00  0.00     0.001 A 
HETATM   19  C   UNK N   1      31.606  17.389   4.656  0.00  0.00     0.000 A 
HETATM   20  C   UNK N   1      30.997  17.018   5.860  0.00  0.00     0.001 A 
HETATM   21  C   UNK N   1      31.778  16.748   6.989  0.00  0.00     0.012 A 
ENDBRANCH   6  16
TORSDOF 1
ENDMDL
MODEL 5
REMARK VINA RESULT:      -6.0      6.595      9.719
REMARK  1 active torsions:
REMARK  status: ('A' for Active; 'I' for Inactive)
REMARK       I    between atoms: N_1  and  C_2 
REMARK    1  A    between atoms: C_6  and  C_7 
ROOT
HETATM    1  N   UNK N   1      38.199  11.286   9.249  0.00  0.00    -0.234 N 
HETATM    2  C   UNK N   1      37.754  11.787  10.489  0.00  0.00     0.679 A 
HETATM    3  N   UNK N   1      37.540  11.014  11.579  0.00  0.00    -0.184 N 
HETATM    4  C   UNK N   1      37.131  11.864  12.525  0.00  0.00     0.096 A 
HETATM    5  C   UNK N   1      36.775  11.611  13.835  0.00  0.00     0.048 A 
HETATM    6  C   UNK N   1      36.377  12.706  14.627  0.00  0.00    -0.008 A 
HETATM    7  N   UNK N   1      37.491  13.102  10.719  0.00  0.00    -0.174 N 
ATOM      8  HN  UNK N   1      37.571  13.887  10.071  1.00  0.00     0.186 HD
HETATM    9  C   UNK N   1      37.714   9.575  11.702  0.00  0.00     0.175 C 
HETATM   10  C   UNK N   1      37.102  13.118  12.008  0.00  0.00     0.148 A 
HETATM   11  N   UNK N   1      36.725  14.197  12.738  0.00  0.00    -0.349 N 
ATOM     12  HN  UNK N   1      36.713  15.129  12.322  1.00  0.00     0.167 HD
HETATM   13  C   UNK N   1      36.359  14.009  14.048  0.00  0.00     0.102 A 
HETATM   14  H   UNK N   1      38.373  10.323   9.140  0.00  0.00     0.174 HD
HETATM   15  H   UNK N   1      38.337  11.899   8.491  0.00  0.00     0.174 HD
ENDROOT
BRANCH   6  16
HETATM   16  C   UNK N   1      35.988  12.475  16.036  0.00  0.00    -0.025 A 
HETATM   17  C   UNK N   1      35.594  13.563  16.836  0.00  0.00     0.012 A 
HETATM   18  C   UNK N   1      35.223  13.370  18.167  0.00  0.00     0.001 A 
HETATM   19  C   UNK N   1      35.241  12.087  18.715  0.00  0.00     0.000 A 
HETATM   20  C   UNK N   1      35.631  10.996  17.930  0.00  0.00     0.001 A 
HETATM   21  C   UNK N   1      36.003  11.188  16.595  0.00  0.00     0.012 A 
ENDBRANCH   6  16
TORSDOF 1
ENDMDL
MODEL 6
REMARK VINA RESULT:      -6.0     17.616     19.494
REMARK  1 active torsions:
REMARK  status: ('A' for Active; 'I' for Inactive)
REMARK       I    between atoms: N_1  and  C_2 
REMARK    1  A    between atoms: C_6  and  C_7 
ROOT
HETATM    1  N   UNK N   1      25.316  21.912  -8.625  0.00  0.00    -0.234 N 
HETATM    2  C   UNK N   1      25.537  22.958  -7.706  0.00  0.00     0.679 A 
HETATM    3  N   UNK N   1      25.861  24.221  -8.069  0.00  0.00    -0.184 N 
HETATM    4  C   UNK N   1      25.981  24.887  -6.917  0.00  0.00     0.096 A 
HETATM    5  C   UNK N   1      26.298  26.214  -6.702  0.00  0.00     0.048 A 
HETATM    6  C   UNK N   1      26.357  26.663  -5.368  0.00  0.00    -0.008 A 
HETATM    7  N   UNK N   1      25.448  22.807  -6.357  0.00  0.00    -0.174 N 
ATOM      8  HN  UNK N   1      25.221  21.964  -5.828  1.00  0.00     0.186 HD
HETATM    9  C   UNK N   1      26.042  24.745  -9.414  0.00  0.00     0.175 C 
HETATM   10  C   UNK N   1      25.732  24.037  -5.890  0.00  0.00     0.148 A 
HETATM   11  N   UNK N   1      25.779  24.431  -4.593  0.00  0.00    -0.349 N 
ATOM     12  HN  UNK N   1      25.588  23.770  -3.839  1.00  0.00     0.167 HD
HETATM   13  C   UNK N   1      26.090  25.739  -4.315  0.00  0.00     0.102 A 
HETATM   14  H   UNK N   1      25.394  22.080  -9.591  0.00  0.00     0.174 HD
HETATM   15  H   UNK N   1      25.082  21.013  -8.300  0.00  0.00     0.174 HD
ENDROOT
BRANCH   6  16
HETATM   16  C   UNK N   1      26.694  28.078  -5.095  0.00  0.00    -0.025 A 
HETATM   17  C   UNK N   1      26.074  28.748  -4.026  0.00  0.00     0.012 A 
HETATM   18  C   UNK N   1      26.375  30.081  -3.750  0.00  0.00     0.001 A 
HETATM   19  C   UNK N   1      27.302  30.762  -4.540  0.00  0.00     0.000 A 
HETATM   20  C   UNK N   1      27.927  30.108  -5.607  0.00  0.00     0.001 A 
HETATM   21  C   UNK N   1      27.625  28.770  -5.885  0.00  0.00     0.012 A 
ENDBRANCH   6  16
TORSDOF 1
ENDMDL
MODEL 7
REMARK VINA RESULT:      -5.8      8.362     11.313
REMARK  1 active torsions:
REMARK  status: ('A' for Active; 'I' for Inactive)
REMARK       I    between atoms: N_1  and  C_2 
REMARK    1  A    between atoms: C_6  and  C_7 
ROOT
HETATM    1  N   UNK N   1      34.436   8.739  21.707  0.00  0.00    -0.234 N 
HETATM    2  C   UNK N   1      34.654   9.767  20.767  0.00  0.00     0.679 A 
HETATM    3  N   UNK N   1      34.767   9.555  19.435  0.00  0.00    -0.184 N 
HETATM    4  C   UNK N   1      34.964  10.769  18.912  0.00  0.00     0.096 A 
HETATM    5  C   UNK N   1      35.143  11.136  17.593  0.00  0.00     0.048 A 
HETATM    6  C   UNK N   1      35.332  12.504  17.315  0.00  0.00    -0.008 A 
HETATM    7  N   UNK N   1      34.773  11.080  21.102  0.00  0.00    -0.174 N 
ATOM      8  HN  UNK N   1      34.726  11.504  22.029  1.00  0.00     0.186 HD
HETATM    9  C   UNK N   1      34.693   8.289  18.722  0.00  0.00     0.175 C 
HETATM   10  C   UNK N   1      34.967  11.684  19.913  0.00  0.00     0.148 A 
HETATM   11  N   UNK N   1      35.145  13.009  19.687  0.00  0.00    -0.349 N 
ATOM     12  HN  UNK N   1      35.143  13.676  20.460  1.00  0.00     0.167 HD
HETATM   13  C   UNK N   1      35.329  13.435  18.395  0.00  0.00     0.102 A 
HETATM   14  H   UNK N   1      34.358   7.805  21.407  0.00  0.00     0.174 HD
HETATM   15  H   UNK N   1      34.362   8.955  22.665  0.00  0.00     0.174 HD
ENDROOT
BRANCH   6  16
HETATM   16  C   UNK N   1      35.528  12.937  15.914  0.00  0.00    -0.025 A 
HETATM   17  C   UNK N   1      34.798  12.316  14.885  0.00  0.00     0.012 A 
HETATM   18  C   UNK N   1      34.966  12.707  13.557  0.00  0.00     0.001 A 
HETATM   19  C   UNK N   1      35.867  13.726  13.240  0.00  0.00     0.000 A 
HETATM   20  C   UNK N   1      36.600  14.352  14.255  0.00  0.00     0.001 A 
HETATM   21  C   UNK N   1      36.432  13.960  15.587  0.00  0.00     0.012 A 
ENDBRANCH   6  16
TORSDOF 1
ENDMDL
MODEL 8
REMARK VINA RESULT:      -5.8     13.196     16.382
REMARK  1 active torsions:
REMARK  status: ('A' for Active; 'I' for Inactive)
REMARK       I    between atoms: N_1  and  C_2 
REMARK    1  A    between atoms: C_6  and  C_7 
ROOT
HETATM    1  N   UNK N   1      31.753  20.308  -4.116  0.00  0.00    -0.234 N 
HETATM    2  C   UNK N   1      30.746  21.196  -4.545  0.00  0.00     0.679 A 
HETATM    3  N   UNK N   1      30.303  22.242  -3.809  0.00  0.00    -0.184 N 
HETATM    4  C   UNK N   1      29.364  22.817  -4.565  0.00  0.00     0.096 A 
HETATM    5  C   UNK N   1      28.585  23.927  -4.300  0.00  0.00     0.048 A 
HETATM    6  C   UNK N   1      27.659  24.325  -5.284  0.00  0.00    -0.008 A 
HETATM    7  N   UNK N   1      30.114  21.094  -5.745  0.00  0.00    -0.174 N 
ATOM      8  HN  UNK N   1      30.259  20.402  -6.481  1.00  0.00     0.186 HD
HETATM    9  C   UNK N   1      30.746  22.654  -2.486  0.00  0.00     0.175 C 
HETATM   10  C   UNK N   1      29.251  22.128  -5.727  0.00  0.00     0.148 A 
HETATM   11  N   UNK N   1      28.372  22.480  -6.699  0.00  0.00    -0.349 N 
ATOM     12  HN  UNK N   1      28.309  21.942  -7.564  1.00  0.00     0.167 HD
HETATM   13  C   UNK N   1      27.570  23.574  -6.494  0.00  0.00     0.102 A 
HETATM   14  H   UNK N   1      32.176  20.431  -3.236  0.00  0.00     0.174 HD
HETATM   15  H   UNK N   1      32.034  19.564  -4.697  0.00  0.00     0.174 HD
ENDROOT
BRANCH   6  16
HETATM   16  C   UNK N   1      26.806  25.508  -5.038  0.00  0.00    -0.025 A 
HETATM   17  C   UNK N   1      25.839  25.880  -5.989  0.00  0.00     0.012 A 
HETATM   18  C   UNK N   1      25.024  26.992  -5.779  0.00  0.00     0.001 A 
HETATM   19  C   UNK N   1      25.164  27.747  -4.614  0.00  0.00     0.000 A 
HETATM   20  C   UNK N   1      26.122  27.388  -3.659  0.00  0.00     0.001 A 
HETATM   21  C   UNK N   1      26.940  26.273  -3.869  0.00  0.00     0.012 A 
ENDBRANCH   6  16
TORSDOF 1
ENDMDL
MODEL 9
REMARK VINA RESULT:      -5.8     14.492     16.976
REMARK  1 active torsions:
REMARK  status: ('A' for Active; 'I' for Inactive)
REMARK       I    between atoms: N_1  and  C_2 
REMARK    1  A    between atoms: C_6  and  C_7 
ROOT
HETATM    1  N   UNK N   1      25.938  30.047  -3.686  0.00  0.00    -0.234 N 
HETATM    2  C   UNK N   1      26.253  28.690  -3.898  0.00  0.00     0.679 A 
HETATM    3  N   UNK N   1      27.460  28.146  -3.616  0.00  0.00    -0.184 N 
HETATM    4  C   UNK N   1      27.343  26.860  -3.958  0.00  0.00     0.096 A 
HETATM    5  C   UNK N   1      28.276  25.844  -3.880  0.00  0.00     0.048 A 
HETATM    6  C   UNK N   1      27.884  24.563  -4.313  0.00  0.00    -0.008 A 
HETATM    7  N   UNK N   1      25.376  27.783  -4.408  0.00  0.00    -0.174 N 
ATOM      8  HN  UNK N   1      24.410  27.933  -4.700  1.00  0.00     0.186 HD
HETATM    9  C   UNK N   1      28.632  28.809  -3.064  0.00  0.00     0.175 C 
HETATM   10  C   UNK N   1      26.091  26.643  -4.433  0.00  0.00     0.148 A 
HETATM   11  N   UNK N   1      25.676  25.424  -4.860  0.00  0.00    -0.349 N 
ATOM     12  HN  UNK N   1      24.728  25.290  -5.212  1.00  0.00     0.167 HD
HETATM   13  C   UNK N   1      26.559  24.374  -4.807  0.00  0.00     0.102 A 
HETATM   14  H   UNK N   1      26.614  30.658  -3.314  0.00  0.00     0.174 HD
HETATM   15  H   UNK N   1      25.041  30.385  -3.911  0.00  0.00     0.174 HD
ENDROOT
BRANCH   6  16
HETATM   16  C   UNK N   1      28.855  23.448  -4.246  0.00  0.00    -0.025 A 
HETATM   17  C   UNK N   1      29.497  23.157  -3.029  0.00  0.00     0.012 A 
HETATM   18  C   UNK N   1      30.416  22.111  -2.941  0.00  0.00     0.001 A 
HETATM   19  C   UNK N   1      30.705  21.342  -4.070  0.00  0.00     0.000 A 
HETATM   20  C   UNK N   1      30.073  21.621  -5.287  0.00  0.00     0.001 A 
HETATM   21  C   UNK N   1      29.151  22.670  -5.376  0.00  0.00     0.012 A 
ENDBRANCH   6  16
TORSDOF 1
ENDMDL
