MODEL 1
REMARK VINA RESULT:      -6.5      0.000      0.000
REMARK  5 active torsions:
REMARK  status: ('A' for Active; 'I' for Inactive)
REMARK    1  A    between atoms: O_1  and  C_2 
REMARK    2  A    between atoms: C_5  and  C_6 
REMARK    3  A    between atoms: C_7  and  C_8 
REMARK    4  A    between atoms: C_10  and  O_11 
REMARK    5  A    between atoms: C_13  and  O_14 
ROOT
HETATM    1  C   UNK N   1      35.726  13.766  13.296  0.00  0.00    -0.031 A 
HETATM    2  C   UNK N   1      34.988  12.898  12.488  0.00  0.00     0.048 A 
HETATM    3  C   UNK N   1      34.811  13.185  11.133  0.00  0.00     0.069 A 
HETATM    4  C   UNK N   1      35.372  14.341  10.582  0.00  0.00     0.073 A 
HETATM    5  C   UNK N   1      36.112  15.212  11.389  0.00  0.00     0.069 A 
HETATM    6  C   UNK N   1      36.289  14.925  12.742  0.00  0.00     0.048 A 
ENDROOT
BRANCH   1   7
HETATM    7  C   UNK N   1      35.898  13.444  14.715  0.00  0.00     0.012 C 
HETATM    8  C   UNK N   1      34.941  12.831  15.416  0.00  0.00     0.012 C 
BRANCH   8   9
HETATM    9  C   UNK N   1      35.113  12.509  16.834  0.00  0.00    -0.036 A 
HETATM   10  C   UNK N   1      35.029  13.505  17.820  0.00  0.00     0.014 A 
HETATM   11  C   UNK N   1      35.196  13.174  19.166  0.00  0.00     0.037 A 
HETATM   12  C   UNK N   1      35.446  11.848  19.530  0.00  0.00     0.065 A 
HETATM   13  C   UNK N   1      35.530  10.854  18.552  0.00  0.00     0.037 A 
HETATM   14  C   UNK N   1      35.363  11.184  17.205  0.00  0.00     0.014 A 
BRANCH  12  15
HETATM   15  O   UNK N   1      35.606  11.531  20.825  0.00  0.00    -0.361 OA
HETATM   16  H   UNK N   1      36.438  11.653  21.237  0.00  0.00     0.217 HD
ENDBRANCH  12  15
ENDBRANCH   8   9
ENDBRANCH   1   7
BRANCH   3  17
HETATM   17  O   UNK N   1      34.100  12.349  10.358  0.00  0.00    -0.361 OA
HETATM   18  H   UNK N   1      34.532  11.838   9.701  0.00  0.00     0.217 HD
ENDBRANCH   3  17
BRANCH   5  19
HETATM   19  O   UNK N   1      36.653  16.323  10.865  0.00  0.00    -0.361 OA
HETATM   20  H   UNK N   1      36.120  17.079  10.720  0.00  0.00     0.217 HD
ENDBRANCH   5  19
TORSDOF 5
ENDMDL
MODEL 2
REMARK VINA RESULT:      -6.4      0.099      2.329
REMARK  5 active torsions:
REMARK  status: ('A' for Active; 'I' for Inactive)
REMARK    1  A    between atoms: O_1  and  C_2 
REMARK    2  A    between atoms: C_5  and  C_6 
REMARK    3  A    between atoms: C_7  and  C_8 
REMARK    4  A    between atoms: C_10  and  O_11 
REMARK    5  A    between atoms: C_13  and  O_14 
ROOT
HETATM    1  C   UNK N   1      35.677  13.724  13.219  0.00  0.00    -0.031 A 
HETATM    2  C   UNK N   1      36.268  14.879  12.699  0.00  0.00     0.048 A 
HETATM    3  C   UNK N   1      36.116  15.195  11.348  0.00  0.00     0.069 A 
HETATM    4  C   UNK N   1      35.371  14.356  10.512  0.00  0.00     0.073 A 
HETATM    5  C   UNK N   1      34.779  13.200  11.030  0.00  0.00     0.069 A 
HETATM    6  C   UNK N   1      34.931  12.884  12.379  0.00  0.00     0.048 A 
ENDROOT
BRANCH   1   7
HETATM    7  C   UNK N   1      35.851  13.413  14.641  0.00  0.00     0.012 C 
HETATM    8  C   UNK N   1      34.925  12.742  15.329  0.00  0.00     0.012 C 
BRANCH   8   9
HETATM    9  C   UNK N   1      35.097  12.430  16.750  0.00  0.00    -0.036 A 
HETATM   10  C   UNK N   1      35.320  11.114  17.183  0.00  0.00     0.014 A 
HETATM   11  C   UNK N   1      35.482  10.842  18.542  0.00  0.00     0.037 A 
HETATM   12  C   UNK N   1      35.421  11.882  19.472  0.00  0.00     0.065 A 
HETATM   13  C   UNK N   1      35.199  13.194  19.045  0.00  0.00     0.037 A 
HETATM   14  C   UNK N   1      35.037  13.468  17.685  0.00  0.00     0.014 A 
BRANCH  12  15
HETATM   15  O   UNK N   1      35.577  11.620  20.779  0.00  0.00    -0.361 OA
HETATM   16  H   UNK N   1      34.936  11.915  21.396  0.00  0.00     0.217 HD
ENDBRANCH  12  15
ENDBRANCH   8   9
ENDBRANCH   1   7
BRANCH   3  17
HETATM   17  O   UNK N   1      36.685  16.305  10.851  0.00  0.00    -0.361 OA
HETATM   18  H   UNK N   1      37.316  16.776  11.359  0.00  0.00     0.217 HD
ENDBRANCH   3  17
BRANCH   5  19
HETATM   19  O   UNK N   1      34.064  12.392  10.231  0.00  0.00    -0.361 OA
HETATM   20  H   UNK N   1      33.913  11.502  10.480  0.00  0.00     0.217 HD
ENDBRANCH   5  19
TORSDOF 5
ENDMDL
MODEL 3
REMARK VINA RESULT:      -6.1     20.316     23.665
REMARK  5 active torsions:
REMARK  status: ('A' for Active; 'I' for Inactive)
REMARK    1  A    between atoms: O_1  and  C_2 
REMARK    2  A    between atoms: C_5  and  C_6 
REMARK    3  A    between atoms: C_7  and  C_8 
REMARK    4  A    between atoms: C_10  and  O_11 
REMARK    5  A    between atoms: C_13  and  O_14 
ROOT
HETATM    1  C   UNK N   1      30.090  23.416  -3.820  0.00  0.00    -0.031 A 
HETATM    2  C   UNK N   1      29.740  22.593  -4.894  0.00  0.00     0.048 A 
HETATM    3  C   UNK N   1      30.300  21.319  -5.011  0.00  0.00     0.069 A 
HETATM    4  C   UNK N   1      31.213  20.865  -4.054  0.00  0.00     0.073 A 
HETATM    5  C   UNK N   1      31.566  21.687  -2.978  0.00  0.00     0.069 A 
HETATM    6  C   UNK N   1      31.006  22.958  -2.861  0.00  0.00     0.048 A 
ENDROOT
BRANCH   1   7
HETATM    7  C   UNK N   1      29.489  24.748  -3.718  0.00  0.00     0.012 C 
HETATM    8  C   UNK N   1      28.215  24.970  -4.052  0.00  0.00     0.012 C 
BRANCH   8   9
HETATM    9  C   UNK N   1      27.614  26.301  -3.951  0.00  0.00    -0.036 A 
HETATM   10  C   UNK N   1      26.257  26.462  -3.628  0.00  0.00     0.014 A 
HETATM   11  C   UNK N   1      25.706  27.741  -3.537  0.00  0.00     0.037 A 
HETATM   12  C   UNK N   1      26.507  28.862  -3.768  0.00  0.00     0.065 A 
HETATM   13  C   UNK N   1      27.858  28.706  -4.089  0.00  0.00     0.037 A 
HETATM   14  C   UNK N   1      28.411  27.426  -4.180  0.00  0.00     0.014 A 
BRANCH  12  15
HETATM   15  O   UNK N   1      25.976  30.091  -3.680  0.00  0.00    -0.361 OA
HETATM   16  H   UNK N   1      26.493  30.803  -3.357  0.00  0.00     0.217 HD
ENDBRANCH  12  15
ENDBRANCH   8   9
ENDBRANCH   1   7
BRANCH   3  17
HETATM   17  O   UNK N   1      29.962  20.531  -6.044  0.00  0.00    -0.361 OA
HETATM   18  H   UNK N   1      30.114  19.608  -5.998  0.00  0.00     0.217 HD
ENDBRANCH   3  17
BRANCH   5  19
HETATM   19  O   UNK N   1      32.442  21.255  -2.057  0.00  0.00    -0.361 OA
HETATM   20  H   UNK N   1      32.180  21.178  -1.162  0.00  0.00     0.217 HD
ENDBRANCH   5  19
TORSDOF 5
ENDMDL
MODEL 4
REMARK VINA RESULT:      -6.0     10.399     13.942
REMARK  5 active torsions:
REMARK  status: ('A' for Active; 'I' for Inactive)
REMARK    1  A    between atoms: O_1  and  C_2 
REMARK    2  A    between atoms: C_5  and  C_6 
REMARK    3  A    between atoms: C_7  and  C_8 
REMARK    4  A    between atoms: C_10  and  O_11 
REMARK    5  A    between atoms: C_13  and  O_14 
ROOT
HETATM    1  C   UNK N   1      27.165  19.053   4.389  0.00  0.00    -0.031 A 
HETATM    2  C   UNK N   1      26.208  18.300   5.074  0.00  0.00     0.048 A 
HETATM    3  C   UNK N   1      24.853  18.452   4.775  0.00  0.00     0.069 A 
HETATM    4  C   UNK N   1      24.451  19.359   3.789  0.00  0.00     0.073 A 
HETATM    5  C   UNK N   1      25.407  20.114   3.102  0.00  0.00     0.069 A 
HETATM    6  C   UNK N   1      26.760  19.962   3.400  0.00  0.00     0.048 A 
ENDROOT
BRANCH   1   7
HETATM    7  C   UNK N   1      28.582  18.876   4.720  0.00  0.00     0.012 C 
HETATM    8  C   UNK N   1      29.111  17.665   4.910  0.00  0.00     0.012 C 
BRANCH   8   9
HETATM    9  C   UNK N   1      30.527  17.487   5.241  0.00  0.00    -0.036 A 
HETATM   10  C   UNK N   1      30.931  17.142   6.540  0.00  0.00     0.014 A 
HETATM   11  C   UNK N   1      32.285  16.978   6.832  0.00  0.00     0.037 A 
HETATM   12  C   UNK N   1      33.240  17.158   5.828  0.00  0.00     0.065 A 
HETATM   13  C   UNK N   1      32.842  17.501   4.533  0.00  0.00     0.037 A 
HETATM   14  C   UNK N   1      31.486  17.666   4.240  0.00  0.00     0.014 A 
BRANCH  12  15
HETATM   15  O   UNK N   1      34.543  17.000   6.109  0.00  0.00    -0.361 OA
HETATM   16  H   UNK N   1      34.878  16.150   6.315  0.00  0.00     0.217 HD
ENDBRANCH  12  15
ENDBRANCH   8   9
ENDBRANCH   1   7
BRANCH   3  17
HETATM   17  O   UNK N   1      23.936  17.727   5.435  0.00  0.00    -0.361 OA
HETATM   18  H   UNK N   1      23.482  17.035   4.997  0.00  0.00     0.217 HD
ENDBRANCH   3  17
BRANCH   5  19
HETATM   19  O   UNK N   1      25.025  20.985   2.154  0.00  0.00    -0.361 OA
HETATM   20  H   UNK N   1      25.620  21.646   1.859  0.00  0.00     0.217 HD
ENDBRANCH   5  19
TORSDOF 5
ENDMDL
MODEL 5
REMARK VINA RESULT:      -5.9      1.475      7.531
REMARK  5 active torsions:
REMARK  status: ('A' for Active; 'I' for Inactive)
REMARK    1  A    between atoms: O_1  and  C_2 
REMARK    2  A    between atoms: C_5  and  C_6 
REMARK    3  A    between atoms: C_7  and  C_8 
REMARK    4  A    between atoms: C_10  and  O_11 
REMARK    5  A    between atoms: C_13  and  O_14 
ROOT
HETATM    1  C   UNK N   1      35.455  12.427  17.225  0.00  0.00    -0.031 A 
HETATM    2  C   UNK N   1      35.087  13.289  18.262  0.00  0.00     0.048 A 
HETATM    3  C   UNK N   1      35.042  12.821  19.577  0.00  0.00     0.069 A 
HETATM    4  C   UNK N   1      35.364  11.490  19.859  0.00  0.00     0.073 A 
HETATM    5  C   UNK N   1      35.732  10.625  18.823  0.00  0.00     0.069 A 
HETATM    6  C   UNK N   1      35.778  11.092  17.510  0.00  0.00     0.048 A 
ENDROOT
BRANCH   1   7
HETATM    7  C   UNK N   1      35.495  12.940  15.853  0.00  0.00     0.012 C 
HETATM    8  C   UNK N   1      36.548  12.732  15.058  0.00  0.00     0.012 C 
BRANCH   8   9
HETATM    9  C   UNK N   1      36.590  13.245  13.687  0.00  0.00    -0.036 A 
HETATM   10  C   UNK N   1      37.110  12.470  12.638  0.00  0.00     0.014 A 
HETATM   11  C   UNK N   1      37.139  12.980  11.339  0.00  0.00     0.037 A 
HETATM   12  C   UNK N   1      36.649  14.263  11.084  0.00  0.00     0.065 A 
HETATM   13  C   UNK N   1      36.131  15.037  12.126  0.00  0.00     0.037 A 
HETATM   14  C   UNK N   1      36.101  14.528  13.427  0.00  0.00     0.014 A 
BRANCH  12  15
HETATM   15  O   UNK N   1      36.678  14.752   9.835  0.00  0.00    -0.361 OA
HETATM   16  H   UNK N   1      37.267  15.447   9.617  0.00  0.00     0.217 HD
ENDBRANCH  12  15
ENDBRANCH   8   9
ENDBRANCH   1   7
BRANCH   3  17
HETATM   17  O   UNK N   1      34.688  13.652  20.571  0.00  0.00    -0.361 OA
HETATM   18  H   UNK N   1      33.807  13.655  20.888  0.00  0.00     0.217 HD
ENDBRANCH   3  17
BRANCH   5  19
HETATM   19  O   UNK N   1      36.042   9.346  19.089  0.00  0.00    -0.361 OA
HETATM   20  H   UNK N   1      36.015   8.706  18.406  0.00  0.00     0.217 HD
ENDBRANCH   5  19
TORSDOF 5
ENDMDL
MODEL 6
REMARK VINA RESULT:      -5.9     13.909     16.868
REMARK  5 active torsions:
REMARK  status: ('A' for Active; 'I' for Inactive)
REMARK    1  A    between atoms: O_1  and  C_2 
REMARK    2  A    between atoms: C_5  and  C_6 
REMARK    3  A    between atoms: C_7  and  C_8 
REMARK    4  A    between atoms: C_10  and  O_11 
REMARK    5  A    between atoms: C_13  and  O_14 
ROOT
HETATM    1  C   UNK N   1      22.447  13.392   9.366  0.00  0.00    -0.031 A 
HETATM    2  C   UNK N   1      21.355  12.943  10.112  0.00  0.00     0.048 A 
HETATM    3  C   UNK N   1      21.562  12.183  11.266  0.00  0.00     0.069 A 
HETATM    4  C   UNK N   1      22.862  11.871  11.675  0.00  0.00     0.073 A 
HETATM    5  C   UNK N   1      23.957  12.320  10.930  0.00  0.00     0.069 A 
HETATM    6  C   UNK N   1      23.750  13.079   9.778  0.00  0.00     0.048 A 
ENDROOT
BRANCH   1   7
HETATM    7  C   UNK N   1      22.205  14.188   8.159  0.00  0.00     0.012 C 
HETATM    8  C   UNK N   1      21.068  14.864   7.981  0.00  0.00     0.012 C 
BRANCH   8   9
HETATM    9  C   UNK N   1      20.825  15.660   6.776  0.00  0.00    -0.036 A 
HETATM   10  C   UNK N   1      21.670  16.724   6.426  0.00  0.00     0.014 A 
HETATM   11  C   UNK N   1      21.420  17.468   5.273  0.00  0.00     0.037 A 
HETATM   12  C   UNK N   1      20.324  17.151   4.465  0.00  0.00     0.065 A 
HETATM   13  C   UNK N   1      19.481  16.092   4.810  0.00  0.00     0.037 A 
HETATM   14  C   UNK N   1      19.731  15.346   5.965  0.00  0.00     0.014 A 
BRANCH  12  15
HETATM   15  O   UNK N   1      20.084  17.867   3.355  0.00  0.00    -0.361 OA
HETATM   16  H   UNK N   1      19.695  17.457   2.609  0.00  0.00     0.217 HD
ENDBRANCH  12  15
ENDBRANCH   8   9
ENDBRANCH   1   7
BRANCH   3  17
HETATM   17  O   UNK N   1      20.510  11.752  11.981  0.00  0.00    -0.361 OA
HETATM   18  H   UNK N   1      19.652  11.762  11.606  0.00  0.00     0.217 HD
ENDBRANCH   3  17
BRANCH   5  19
HETATM   19  O   UNK N   1      25.206  12.023  11.319  0.00  0.00    -0.361 OA
HETATM   20  H   UNK N   1      25.937  12.326  10.818  0.00  0.00     0.217 HD
ENDBRANCH   5  19
TORSDOF 5
ENDMDL
MODEL 7
REMARK VINA RESULT:      -5.7     19.992     22.721
REMARK  5 active torsions:
REMARK  status: ('A' for Active; 'I' for Inactive)
REMARK    1  A    between atoms: O_1  and  C_2 
REMARK    2  A    between atoms: C_5  and  C_6 
REMARK    3  A    between atoms: C_7  and  C_8 
REMARK    4  A    between atoms: C_10  and  O_11 
REMARK    5  A    between atoms: C_13  and  O_14 
ROOT
HETATM    1  C   UNK N   1      28.344  23.467  -4.958  0.00  0.00    -0.031 A 
HETATM    2  C   UNK N   1      27.466  23.254  -6.024  0.00  0.00     0.048 A 
HETATM    3  C   UNK N   1      26.220  23.884  -6.040  0.00  0.00     0.069 A 
HETATM    4  C   UNK N   1      25.850  24.730  -4.990  0.00  0.00     0.073 A 
HETATM    5  C   UNK N   1      26.727  24.946  -3.922  0.00  0.00     0.069 A 
HETATM    6  C   UNK N   1      27.971  24.316  -3.906  0.00  0.00     0.048 A 
ENDROOT
BRANCH   1   7
HETATM    7  C   UNK N   1      29.646  22.795  -4.963  0.00  0.00     0.012 C 
HETATM    8  C   UNK N   1      30.022  21.987  -3.968  0.00  0.00     0.012 C 
BRANCH   8   9
HETATM    9  C   UNK N   1      31.323  21.315  -3.972  0.00  0.00    -0.036 A 
HETATM   10  C   UNK N   1      32.277  21.574  -2.975  0.00  0.00     0.014 A 
HETATM   11  C   UNK N   1      33.510  20.921  -3.000  0.00  0.00     0.037 A 
HETATM   12  C   UNK N   1      33.794  20.008  -4.019  0.00  0.00     0.065 A 
HETATM   13  C   UNK N   1      32.846  19.747  -5.012  0.00  0.00     0.037 A 
HETATM   14  C   UNK N   1      31.611  20.401  -4.989  0.00  0.00     0.014 A 
BRANCH  12  15
HETATM   15  O   UNK N   1      34.980  19.380  -4.041  0.00  0.00    -0.361 OA
HETATM   16  H   UNK N   1      35.518  19.423  -4.807  0.00  0.00     0.217 HD
ENDBRANCH  12  15
ENDBRANCH   8   9
ENDBRANCH   1   7
BRANCH   3  17
HETATM   17  O   UNK N   1      25.378  23.677  -7.065  0.00  0.00    -0.361 OA
HETATM   18  H   UNK N   1      25.309  24.312  -7.750  0.00  0.00     0.217 HD
ENDBRANCH   3  17
BRANCH   5  19
HETATM   19  O   UNK N   1      26.375  25.757  -2.912  0.00  0.00    -0.361 OA
HETATM   20  H   UNK N   1      26.433  25.456  -2.028  0.00  0.00     0.217 HD
ENDBRANCH   5  19
TORSDOF 5
ENDMDL
MODEL 8
REMARK VINA RESULT:      -5.7     20.146     23.443
REMARK  5 active torsions:
REMARK  status: ('A' for Active; 'I' for Inactive)
REMARK    1  A    between atoms: O_1  and  C_2 
REMARK    2  A    between atoms: C_5  and  C_6 
REMARK    3  A    between atoms: C_7  and  C_8 
REMARK    4  A    between atoms: C_10  and  O_11 
REMARK    5  A    between atoms: C_13  and  O_14 
ROOT
HETATM    1  C   UNK N   1      30.040  22.736  -3.814  0.00  0.00    -0.031 A 
HETATM    2  C   UNK N   1      31.000  22.509  -2.825  0.00  0.00     0.048 A 
HETATM    3  C   UNK N   1      31.898  21.448  -2.952  0.00  0.00     0.069 A 
HETATM    4  C   UNK N   1      31.839  20.610  -4.071  0.00  0.00     0.073 A 
HETATM    5  C   UNK N   1      30.879  20.835  -5.062  0.00  0.00     0.069 A 
HETATM    6  C   UNK N   1      29.982  21.894  -4.935  0.00  0.00     0.048 A 
ENDROOT
BRANCH   1   7
HETATM    7  C   UNK N   1      29.107  23.855  -3.659  0.00  0.00     0.012 C 
HETATM    8  C   UNK N   1      29.312  25.028  -4.265  0.00  0.00     0.012 C 
BRANCH   8   9
HETATM    9  C   UNK N   1      28.381  26.147  -4.110  0.00  0.00    -0.036 A 
HETATM   10  C   UNK N   1      28.770  27.462  -4.411  0.00  0.00     0.014 A 
HETATM   11  C   UNK N   1      27.865  28.513  -4.255  0.00  0.00     0.037 A 
HETATM   12  C   UNK N   1      26.570  28.254  -3.799  0.00  0.00     0.065 A 
HETATM   13  C   UNK N   1      26.179  26.947  -3.499  0.00  0.00     0.037 A 
HETATM   14  C   UNK N   1      27.084  25.894  -3.654  0.00  0.00     0.014 A 
BRANCH  12  15
HETATM   15  O   UNK N   1      25.700  29.265  -3.650  0.00  0.00    -0.361 OA
HETATM   16  H   UNK N   1      25.755  30.016  -4.207  0.00  0.00     0.217 HD
ENDBRANCH  12  15
ENDBRANCH   8   9
ENDBRANCH   1   7
BRANCH   3  17
HETATM   17  O   UNK N   1      32.820  21.233  -2.000  0.00  0.00    -0.361 OA
HETATM   18  H   UNK N   1      32.936  21.856  -1.310  0.00  0.00     0.217 HD
ENDBRANCH   3  17
BRANCH   5  19
HETATM   19  O   UNK N   1      30.818  20.033  -6.137  0.00  0.00    -0.361 OA
HETATM   20  H   UNK N   1      30.214  19.318  -6.154  0.00  0.00     0.217 HD
ENDBRANCH   5  19
TORSDOF 5
ENDMDL
MODEL 9
REMARK VINA RESULT:      -5.7      1.468      7.379
REMARK  5 active torsions:
REMARK  status: ('A' for Active; 'I' for Inactive)
REMARK    1  A    between atoms: O_1  and  C_2 
REMARK    2  A    between atoms: C_5  and  C_6 
REMARK    3  A    between atoms: C_7  and  C_8 
REMARK    4  A    between atoms: C_10  and  O_11 
REMARK    5  A    between atoms: C_13  and  O_14 
ROOT
HETATM    1  C   UNK N   1      35.530  12.073  17.167  0.00  0.00    -0.031 A 
HETATM    2  C   UNK N   1      35.905  10.788  17.570  0.00  0.00     0.048 A 
HETATM    3  C   UNK N   1      35.901  10.451  18.925  0.00  0.00     0.069 A 
HETATM    4  C   UNK N   1      35.522  11.399  19.881  0.00  0.00     0.073 A 
HETATM    5  C   UNK N   1      35.147  12.685  19.481  0.00  0.00     0.069 A 
HETATM    6  C   UNK N   1      35.151  13.021  18.128  0.00  0.00     0.048 A 
ENDROOT
BRANCH   1   7
HETATM    7  C   UNK N   1      35.542  12.403  15.740  0.00  0.00     0.012 C 
HETATM    8  C   UNK N   1      36.561  13.060  15.181  0.00  0.00     0.012 C 
BRANCH   8   9
HETATM    9  C   UNK N   1      36.574  13.391  13.754  0.00  0.00    -0.036 A 
HETATM   10  C   UNK N   1      37.068  12.485  12.803  0.00  0.00     0.014 A 
HETATM   11  C   UNK N   1      37.070  12.822  11.449  0.00  0.00     0.037 A 
HETATM   12  C   UNK N   1      36.579  14.065  11.041  0.00  0.00     0.065 A 
HETATM   13  C   UNK N   1      36.087  14.970  11.985  0.00  0.00     0.037 A 
HETATM   14  C   UNK N   1      36.085  14.633  13.341  0.00  0.00     0.014 A 
BRANCH  12  15
HETATM   15  O   UNK N   1      36.581  14.389   9.738  0.00  0.00    -0.361 OA
HETATM   16  H   UNK N   1      35.869  14.876   9.376  0.00  0.00     0.217 HD
ENDBRANCH  12  15
ENDBRANCH   8   9
ENDBRANCH   1   7
BRANCH   3  17
HETATM   17  O   UNK N   1      36.261   9.216  19.309  0.00  0.00    -0.361 OA
HETATM   18  H   UNK N   1      35.612   8.547  19.406  0.00  0.00     0.217 HD
ENDBRANCH   3  17
BRANCH   5  19
HETATM   19  O   UNK N   1      34.783  13.597  20.396  0.00  0.00    -0.361 OA
HETATM   20  H   UNK N   1      35.425  13.969  20.967  0.00  0.00     0.217 HD
ENDBRANCH   5  19
TORSDOF 5
ENDMDL
