MODEL 1
REMARK VINA RESULT:      -7.3      0.000      0.000
REMARK  7 active torsions:
REMARK  status: ('A' for Active; 'I' for Inactive)
REMARK    1  A    between atoms: C_1  and  O_2 
REMARK    2  A    between atoms: C_1  and  C_4 
REMARK    3  A    between atoms: C_4  and  O_7 
REMARK    4  A    between atoms: O_7  and  C_8 
REMARK    5  A    between atoms: C_11  and  C_14 
REMARK    6  A    between atoms: C_14  and  C_15 
REMARK       I    between atoms: C_15  and  N_17 
REMARK    7  A    between atoms: N_17  and  C_18 
ROOT
HETATM    1  C   UNK N   1      32.077  16.424   8.083  0.00  0.00     0.070 A 
HETATM    2  C   UNK N   1      31.980  15.324   7.225  0.00  0.00     0.037 A 
HETATM    3  C   UNK N   1      30.926  15.230   6.314  0.00  0.00     0.010 A 
HETATM    4  C   UNK N   1      29.967  16.246   6.237  0.00  0.00    -0.049 A 
HETATM    5  C   UNK N   1      31.124  17.452   7.989  0.00  0.00     0.037 A 
HETATM    6  C   UNK N   1      30.078  17.365   7.072  0.00  0.00     0.010 A 
ENDROOT
BRANCH   4   7
HETATM    7  C   UNK N   1      28.821  16.077   5.288  0.00  0.00     0.141 C 
BRANCH   7   8
HETATM    8  C   UNK N   1      29.089  16.462   3.853  0.00  0.00     0.226 C 
HETATM    9  O   UNK N   1      29.861  15.794   3.186  0.00  0.00    -0.273 OA
HETATM   10  N   UNK N   1      28.572  17.604   3.327  0.00  0.00    -0.327 N 
HETATM   11  H   UNK N   1      28.867  17.868   2.424  0.00  0.00     0.169 HD
BRANCH  10  12
HETATM   12  C   UNK N   1      27.635  18.442   3.990  0.00  0.00     0.035 A 
HETATM   13  C   UNK N   1      28.051  19.509   4.806  0.00  0.00     0.036 A 
HETATM   14  C   UNK N   1      27.108  20.331   5.426  0.00  0.00    -0.059 A 
HETATM   15  C   UNK N   1      25.745  20.101   5.228  0.00  0.00     0.013 A 
HETATM   16  C   UNK N   1      27.557  21.455   6.289  0.00  0.00     0.048 C 
HETATM   17  C   UNK N   1      25.326  19.037   4.422  0.00  0.00    -0.059 A 
HETATM   18  C   UNK N   1      26.269  18.204   3.815  0.00  0.00     0.036 A 
HETATM   19  C   UNK N   1      23.877  18.805   4.192  0.00  0.00     0.048 C 
ENDBRANCH  10  12
ENDBRANCH   7   8
ENDBRANCH   4   7
BRANCH   1  20
HETATM   20  O   UNK N   1      33.084  16.458   8.996  0.00  0.00    -0.330 OA
BRANCH  20  21
HETATM   21  C   UNK N   1      34.434  16.691   8.749  0.00  0.00     0.145 C 
HETATM   22  C   UNK N   1      35.097  15.489   8.088  0.00  0.00     0.058 C 
HETATM   23  C   UNK N   1      35.113  16.881  10.096  0.00  0.00     0.058 C 
BRANCH  21  24
HETATM   24  C   UNK N   1      34.619  17.937   7.897  0.00  0.00     0.175 C 
HETATM   25  O   UNK N   1      34.879  19.009   8.419  0.00  0.00    -0.648 OA
BRANCH  24  26
HETATM   26  O   UNK N   1      34.501  17.874   6.555  0.00  0.00    -0.774 OA
HETATM   27  H   UNK N   1      35.203  17.676   5.966  0.00  0.00     0.167 HD
ENDBRANCH  24  26
ENDBRANCH  21  24
ENDBRANCH  20  21
ENDBRANCH   1  20
TORSDOF 7
ENDMDL
MODEL 2
REMARK VINA RESULT:      -7.3     11.694     13.719
REMARK  7 active torsions:
REMARK  status: ('A' for Active; 'I' for Inactive)
REMARK    1  A    between atoms: C_1  and  O_2 
REMARK    2  A    between atoms: C_1  and  C_4 
REMARK    3  A    between atoms: C_4  and  O_7 
REMARK    4  A    between atoms: O_7  and  C_8 
REMARK    5  A    between atoms: C_11  and  C_14 
REMARK    6  A    between atoms: C_14  and  C_15 
REMARK       I    between atoms: C_15  and  N_17 
REMARK    7  A    between atoms: N_17  and  C_18 
ROOT
HETATM    1  C   UNK N   1      30.276  23.483  -3.585  0.00  0.00     0.070 A 
HETATM    2  C   UNK N   1      29.250  23.192  -2.682  0.00  0.00     0.037 A 
HETATM    3  C   UNK N   1      27.994  23.786  -2.825  0.00  0.00     0.010 A 
HETATM    4  C   UNK N   1      27.745  24.662  -3.887  0.00  0.00    -0.049 A 
HETATM    5  C   UNK N   1      30.017  24.347  -4.661  0.00  0.00     0.037 A 
HETATM    6  C   UNK N   1      28.760  24.930  -4.813  0.00  0.00     0.010 A 
ENDROOT
BRANCH   4   7
HETATM    7  C   UNK N   1      26.403  25.322  -3.970  0.00  0.00     0.141 C 
BRANCH   7   8
HETATM    8  C   UNK N   1      25.693  25.210  -5.297  0.00  0.00     0.226 C 
HETATM    9  O   UNK N   1      25.079  24.191  -5.566  0.00  0.00    -0.273 OA
HETATM   10  N   UNK N   1      25.818  26.180  -6.241  0.00  0.00    -0.327 N 
HETATM   11  H   UNK N   1      25.428  26.009  -7.129  0.00  0.00     0.169 HD
BRANCH  10  12
HETATM   12  C   UNK N   1      26.473  27.425  -6.033  0.00  0.00     0.035 A 
HETATM   13  C   UNK N   1      26.154  28.249  -4.940  0.00  0.00     0.036 A 
HETATM   14  C   UNK N   1      26.830  29.456  -4.747  0.00  0.00    -0.059 A 
HETATM   15  C   UNK N   1      27.836  29.841  -5.636  0.00  0.00     0.013 A 
HETATM   16  C   UNK N   1      26.486  30.323  -3.590  0.00  0.00     0.048 C 
HETATM   17  C   UNK N   1      28.152  29.028  -6.729  0.00  0.00    -0.059 A 
HETATM   18  C   UNK N   1      27.464  27.829  -6.932  0.00  0.00     0.036 A 
HETATM   19  C   UNK N   1      29.236  29.425  -7.663  0.00  0.00     0.048 C 
ENDBRANCH  10  12
ENDBRANCH   7   8
ENDBRANCH   4   7
BRANCH   1  20
HETATM   20  O   UNK N   1      31.503  22.930  -3.385  0.00  0.00    -0.330 OA
BRANCH  20  21
HETATM   21  C   UNK N   1      32.062  21.855  -4.068  0.00  0.00     0.145 C 
HETATM   22  C   UNK N   1      32.699  22.296  -5.380  0.00  0.00     0.058 C 
HETATM   23  C   UNK N   1      30.928  20.909  -4.427  0.00  0.00     0.058 C 
BRANCH  21  24
HETATM   24  C   UNK N   1      33.080  21.134  -3.198  0.00  0.00     0.175 C 
HETATM   25  O   UNK N   1      34.061  20.609  -3.701  0.00  0.00    -0.648 OA
BRANCH  24  26
HETATM   26  O   UNK N   1      32.916  21.066  -1.861  0.00  0.00    -0.774 OA
HETATM   27  H   UNK N   1      33.358  20.460  -1.299  0.00  0.00     0.167 HD
ENDBRANCH  24  26
ENDBRANCH  21  24
ENDBRANCH  20  21
ENDBRANCH   1  20
TORSDOF 7
ENDMDL
MODEL 3
REMARK VINA RESULT:      -7.2      1.982      3.025
REMARK  7 active torsions:
REMARK  status: ('A' for Active; 'I' for Inactive)
REMARK    1  A    between atoms: C_1  and  O_2 
REMARK    2  A    between atoms: C_1  and  C_4 
REMARK    3  A    between atoms: C_4  and  O_7 
REMARK    4  A    between atoms: O_7  and  C_8 
REMARK    5  A    between atoms: C_11  and  C_14 
REMARK    6  A    between atoms: C_14  and  C_15 
REMARK       I    between atoms: C_15  and  N_17 
REMARK    7  A    between atoms: N_17  and  C_18 
ROOT
HETATM    1  C   UNK N   1      34.151  15.709   7.443  0.00  0.00     0.070 A 
HETATM    2  C   UNK N   1      34.397  17.000   6.969  0.00  0.00     0.037 A 
HETATM    3  C   UNK N   1      33.531  17.590   6.045  0.00  0.00     0.010 A 
HETATM    4  C   UNK N   1      32.398  16.901   5.601  0.00  0.00    -0.049 A 
HETATM    5  C   UNK N   1      33.001  15.028   7.010  0.00  0.00     0.037 A 
HETATM    6  C   UNK N   1      32.130  15.620   6.098  0.00  0.00     0.010 A 
ENDROOT
BRANCH   4   7
HETATM    7  C   UNK N   1      31.529  17.547   4.566  0.00  0.00     0.141 C 
BRANCH   7   8
HETATM    8  C   UNK N   1      30.437  16.681   3.986  0.00  0.00     0.226 C 
HETATM    9  O   UNK N   1      30.703  15.900   3.088  0.00  0.00    -0.273 OA
HETATM   10  N   UNK N   1      29.142  16.836   4.372  0.00  0.00    -0.327 N 
HETATM   11  H   UNK N   1      28.454  16.326   3.885  0.00  0.00     0.169 HD
BRANCH  10  12
HETATM   12  C   UNK N   1      28.715  17.683   5.430  0.00  0.00     0.035 A 
HETATM   13  C   UNK N   1      28.814  17.286   6.775  0.00  0.00     0.036 A 
HETATM   14  C   UNK N   1      28.408  18.147   7.797  0.00  0.00    -0.059 A 
HETATM   15  C   UNK N   1      27.912  19.415   7.483  0.00  0.00     0.013 A 
HETATM   16  C   UNK N   1      28.514  17.719   9.215  0.00  0.00     0.048 C 
HETATM   17  C   UNK N   1      27.805  19.812   6.146  0.00  0.00    -0.059 A 
HETATM   18  C   UNK N   1      28.195  18.943   5.123  0.00  0.00     0.036 A 
HETATM   19  C   UNK N   1      27.298  21.167   5.811  0.00  0.00     0.048 C 
ENDBRANCH  10  12
ENDBRANCH   7   8
ENDBRANCH   4   7
BRANCH   1  20
HETATM   20  O   UNK N   1      35.043  15.143   8.299  0.00  0.00    -0.330 OA
BRANCH  20  21
HETATM   21  C   UNK N   1      34.964  15.098   9.688  0.00  0.00     0.145 C 
HETATM   22  C   UNK N   1      35.399  13.742  10.229  0.00  0.00     0.058 C 
HETATM   23  C   UNK N   1      33.501  15.271  10.062  0.00  0.00     0.058 C 
BRANCH  21  24
HETATM   24  C   UNK N   1      35.792  16.211  10.311  0.00  0.00     0.175 C 
HETATM   25  O   UNK N   1      35.373  17.357  10.328  0.00  0.00    -0.648 OA
BRANCH  24  26
HETATM   26  O   UNK N   1      36.998  15.947  10.855  0.00  0.00    -0.774 OA
HETATM   27  H   UNK N   1      37.421  15.111  10.833  0.00  0.00     0.167 HD
ENDBRANCH  24  26
ENDBRANCH  21  24
ENDBRANCH  20  21
ENDBRANCH   1  20
TORSDOF 7
ENDMDL
MODEL 4
REMARK VINA RESULT:      -7.1     12.236     15.188
REMARK  7 active torsions:
REMARK  status: ('A' for Active; 'I' for Inactive)
REMARK    1  A    between atoms: C_1  and  O_2 
REMARK    2  A    between atoms: C_1  and  C_4 
REMARK    3  A    between atoms: C_4  and  O_7 
REMARK    4  A    between atoms: O_7  and  C_8 
REMARK    5  A    between atoms: C_11  and  C_14 
REMARK    6  A    between atoms: C_14  and  C_15 
REMARK       I    between atoms: C_15  and  N_17 
REMARK    7  A    between atoms: N_17  and  C_18 
ROOT
HETATM    1  C   UNK N   1      25.851  27.454  -3.925  0.00  0.00     0.070 A 
HETATM    2  C   UNK N   1      25.237  27.289  -5.170  0.00  0.00     0.037 A 
HETATM    3  C   UNK N   1      25.236  26.040  -5.796  0.00  0.00     0.010 A 
HETATM    4  C   UNK N   1      25.831  24.938  -5.173  0.00  0.00    -0.049 A 
HETATM    5  C   UNK N   1      26.429  26.341  -3.293  0.00  0.00     0.037 A 
HETATM    6  C   UNK N   1      26.417  25.092  -3.912  0.00  0.00     0.010 A 
ENDROOT
BRANCH   4   7
HETATM    7  C   UNK N   1      25.858  23.631  -5.905  0.00  0.00     0.141 C 
BRANCH   7   8
HETATM    8  C   UNK N   1      26.563  23.637  -7.240  0.00  0.00     0.226 C 
HETATM    9  O   UNK N   1      25.905  23.630  -8.267  0.00  0.00    -0.273 OA
HETATM   10  N   UNK N   1      27.917  23.536  -7.317  0.00  0.00    -0.327 N 
HETATM   11  H   UNK N   1      28.319  23.431  -8.210  0.00  0.00     0.169 HD
BRANCH  10  12
HETATM   12  C   UNK N   1      28.790  23.574  -6.196  0.00  0.00     0.035 A 
HETATM   13  C   UNK N   1      29.147  22.404  -5.502  0.00  0.00     0.036 A 
HETATM   14  C   UNK N   1      30.026  22.467  -4.419  0.00  0.00    -0.059 A 
HETATM   15  C   UNK N   1      30.562  23.696  -4.028  0.00  0.00     0.013 A 
HETATM   16  C   UNK N   1      30.396  21.226  -3.690  0.00  0.00     0.048 C 
HETATM   17  C   UNK N   1      30.206  24.863  -4.710  0.00  0.00    -0.059 A 
HETATM   18  C   UNK N   1      29.313  24.803  -5.784  0.00  0.00     0.036 A 
HETATM   19  C   UNK N   1      30.793  26.168  -4.310  0.00  0.00     0.048 C 
ENDBRANCH  10  12
ENDBRANCH   7   8
ENDBRANCH   4   7
BRANCH   1  20
HETATM   20  O   UNK N   1      25.883  28.694  -3.369  0.00  0.00    -0.330 OA
BRANCH  20  21
HETATM   21  C   UNK N   1      26.891  29.646  -3.493  0.00  0.00     0.145 C 
HETATM   22  C   UNK N   1      26.337  31.062  -3.399  0.00  0.00     0.058 C 
HETATM   23  C   UNK N   1      27.483  29.497  -4.885  0.00  0.00     0.058 C 
BRANCH  21  24
HETATM   24  C   UNK N   1      27.971  29.426  -2.446  0.00  0.00     0.175 C 
HETATM   25  O   UNK N   1      27.721  29.572  -1.260  0.00  0.00    -0.648 OA
BRANCH  24  26
HETATM   26  O   UNK N   1      29.219  29.066  -2.811  0.00  0.00    -0.774 OA
HETATM   27  H   UNK N   1      30.004  29.373  -2.402  0.00  0.00     0.167 HD
ENDBRANCH  24  26
ENDBRANCH  21  24
ENDBRANCH  20  21
ENDBRANCH   1  20
TORSDOF 7
ENDMDL
MODEL 5
REMARK VINA RESULT:      -7.1      1.984      3.281
REMARK  7 active torsions:
REMARK  status: ('A' for Active; 'I' for Inactive)
REMARK    1  A    between atoms: C_1  and  O_2 
REMARK    2  A    between atoms: C_1  and  C_4 
REMARK    3  A    between atoms: C_4  and  O_7 
REMARK    4  A    between atoms: O_7  and  C_8 
REMARK    5  A    between atoms: C_11  and  C_14 
REMARK    6  A    between atoms: C_14  and  C_15 
REMARK       I    between atoms: C_15  and  N_17 
REMARK    7  A    between atoms: N_17  and  C_18 
ROOT
HETATM    1  C   UNK N   1      31.566  16.930   8.047  0.00  0.00     0.070 A 
HETATM    2  C   UNK N   1      30.966  17.999   8.719  0.00  0.00     0.037 A 
HETATM    3  C   UNK N   1      29.691  18.437   8.352  0.00  0.00     0.010 A 
HETATM    4  C   UNK N   1      28.995  17.798   7.321  0.00  0.00    -0.049 A 
HETATM    5  C   UNK N   1      30.856  16.277   7.026  0.00  0.00     0.037 A 
HETATM    6  C   UNK N   1      29.579  16.706   6.667  0.00  0.00     0.010 A 
ENDROOT
BRANCH   4   7
HETATM    7  C   UNK N   1      27.656  18.337   6.920  0.00  0.00     0.141 C 
BRANCH   7   8
HETATM    8  C   UNK N   1      27.673  19.497   5.954  0.00  0.00     0.226 C 
HETATM    9  O   UNK N   1      27.858  20.627   6.375  0.00  0.00    -0.273 OA
HETATM   10  N   UNK N   1      27.375  19.317   4.640  0.00  0.00    -0.327 N 
HETATM   11  H   UNK N   1      27.290  20.119   4.075  0.00  0.00     0.169 HD
BRANCH  10  12
HETATM   12  C   UNK N   1      27.179  18.050   4.027  0.00  0.00     0.035 A 
HETATM   13  C   UNK N   1      28.261  17.284   3.557  0.00  0.00     0.036 A 
HETATM   14  C   UNK N   1      28.041  16.032   2.980  0.00  0.00    -0.059 A 
HETATM   15  C   UNK N   1      26.742  15.531   2.878  0.00  0.00     0.013 A 
HETATM   16  C   UNK N   1      29.191  15.231   2.485  0.00  0.00     0.048 C 
HETATM   17  C   UNK N   1      25.661  16.290   3.337  0.00  0.00    -0.059 A 
HETATM   18  C   UNK N   1      25.879  17.551   3.899  0.00  0.00     0.036 A 
HETATM   19  C   UNK N   1      24.281  15.749   3.250  0.00  0.00     0.048 C 
ENDBRANCH  10  12
ENDBRANCH   7   8
ENDBRANCH   4   7
BRANCH   1  20
HETATM   20  O   UNK N   1      32.829  16.564   8.392  0.00  0.00    -0.330 OA
BRANCH  20  21
HETATM   21  C   UNK N   1      34.016  16.963   7.784  0.00  0.00     0.145 C 
HETATM   22  C   UNK N   1      33.762  17.578   6.414  0.00  0.00     0.058 C 
HETATM   23  C   UNK N   1      34.849  15.713   7.556  0.00  0.00     0.058 C 
BRANCH  21  24
HETATM   24  C   UNK N   1      34.776  17.936   8.672  0.00  0.00     0.175 C 
HETATM   25  O   UNK N   1      34.955  19.089   8.314  0.00  0.00    -0.648 OA
BRANCH  24  26
HETATM   26  O   UNK N   1      35.261  17.539   9.867  0.00  0.00    -0.774 OA
HETATM   27  H   UNK N   1      35.084  17.967  10.683  0.00  0.00     0.167 HD
ENDBRANCH  24  26
ENDBRANCH  21  24
ENDBRANCH  20  21
ENDBRANCH   1  20
TORSDOF 7
ENDMDL
MODEL 6
REMARK VINA RESULT:      -7.0     11.592     14.733
REMARK  7 active torsions:
REMARK  status: ('A' for Active; 'I' for Inactive)
REMARK    1  A    between atoms: C_1  and  O_2 
REMARK    2  A    between atoms: C_1  and  C_4 
REMARK    3  A    between atoms: C_4  and  O_7 
REMARK    4  A    between atoms: O_7  and  C_8 
REMARK    5  A    between atoms: C_11  and  C_14 
REMARK    6  A    between atoms: C_14  and  C_15 
REMARK       I    between atoms: C_15  and  N_17 
REMARK    7  A    between atoms: N_17  and  C_18 
ROOT
HETATM    1  C   UNK N   1      28.825  27.181  -3.779  0.00  0.00     0.070 A 
HETATM    2  C   UNK N   1      30.204  27.306  -3.590  0.00  0.00     0.037 A 
HETATM    3  C   UNK N   1      31.022  26.174  -3.593  0.00  0.00     0.010 A 
HETATM    4  C   UNK N   1      30.471  24.906  -3.805  0.00  0.00    -0.049 A 
HETATM    5  C   UNK N   1      28.278  25.909  -4.012  0.00  0.00     0.037 A 
HETATM    6  C   UNK N   1      29.095  24.780  -4.027  0.00  0.00     0.010 A 
ENDROOT
BRANCH   4   7
HETATM    7  C   UNK N   1      31.375  23.713  -3.741  0.00  0.00     0.141 C 
BRANCH   7   8
HETATM    8  C   UNK N   1      30.974  22.631  -2.769  0.00  0.00     0.226 C 
HETATM    9  O   UNK N   1      30.734  22.923  -1.609  0.00  0.00    -0.273 OA
HETATM   10  N   UNK N   1      30.984  21.322  -3.136  0.00  0.00    -0.327 N 
HETATM   11  H   UNK N   1      30.823  20.647  -2.437  0.00  0.00     0.169 HD
BRANCH  10  12
HETATM   12  C   UNK N   1      31.210  20.861  -4.462  0.00  0.00     0.035 A 
HETATM   13  C   UNK N   1      32.466  20.379  -4.869  0.00  0.00     0.036 A 
HETATM   14  C   UNK N   1      32.653  19.910  -6.171  0.00  0.00    -0.059 A 
HETATM   15  C   UNK N   1      31.586  19.909  -7.071  0.00  0.00     0.013 A 
HETATM   16  C   UNK N   1      33.985  19.404  -6.593  0.00  0.00     0.048 C 
HETATM   17  C   UNK N   1      30.336  20.394  -6.674  0.00  0.00    -0.059 A 
HETATM   18  C   UNK N   1      30.152  20.878  -5.376  0.00  0.00     0.036 A 
HETATM   19  C   UNK N   1      29.194  20.373  -7.623  0.00  0.00     0.048 C 
ENDBRANCH  10  12
ENDBRANCH   7   8
ENDBRANCH   4   7
BRANCH   1  20
HETATM   20  O   UNK N   1      28.050  28.297  -3.716  0.00  0.00    -0.330 OA
BRANCH  20  21
HETATM   21  C   UNK N   1      27.047  28.675  -4.603  0.00  0.00     0.145 C 
HETATM   22  C   UNK N   1      27.428  28.360  -6.044  0.00  0.00     0.058 C 
HETATM   23  C   UNK N   1      26.905  30.185  -4.508  0.00  0.00     0.058 C 
BRANCH  21  24
HETATM   24  C   UNK N   1      25.729  28.009  -4.242  0.00  0.00     0.175 C 
HETATM   25  O   UNK N   1      25.389  27.904  -3.075  0.00  0.00    -0.648 OA
BRANCH  24  26
HETATM   26  O   UNK N   1      24.918  27.525  -5.206  0.00  0.00    -0.774 OA
HETATM   27  H   UNK N   1      24.146  27.017  -5.048  0.00  0.00     0.167 HD
ENDBRANCH  24  26
ENDBRANCH  21  24
ENDBRANCH  20  21
ENDBRANCH   1  20
TORSDOF 7
ENDMDL
MODEL 7
REMARK VINA RESULT:      -7.0     11.278     15.618
REMARK  7 active torsions:
REMARK  status: ('A' for Active; 'I' for Inactive)
REMARK    1  A    between atoms: C_1  and  O_2 
REMARK    2  A    between atoms: C_1  and  C_4 
REMARK    3  A    between atoms: C_4  and  O_7 
REMARK    4  A    between atoms: O_7  and  C_8 
REMARK    5  A    between atoms: C_11  and  C_14 
REMARK    6  A    between atoms: C_14  and  C_15 
REMARK       I    between atoms: C_15  and  N_17 
REMARK    7  A    between atoms: N_17  and  C_18 
ROOT
HETATM    1  C   UNK N   1      34.783  12.233  15.688  0.00  0.00     0.070 A 
HETATM    2  C   UNK N   1      34.987  13.287  16.583  0.00  0.00     0.037 A 
HETATM    3  C   UNK N   1      35.221  13.030  17.936  0.00  0.00     0.010 A 
HETATM    4  C   UNK N   1      35.274  11.713  18.404  0.00  0.00    -0.049 A 
HETATM    5  C   UNK N   1      34.857  10.911  16.159  0.00  0.00     0.037 A 
HETATM    6  C   UNK N   1      35.103  10.653  17.506  0.00  0.00     0.010 A 
ENDROOT
BRANCH   4   7
HETATM    7  C   UNK N   1      35.469  11.483  19.872  0.00  0.00     0.141 C 
BRANCH   7   8
HETATM    8  C   UNK N   1      36.248  10.247  20.249  0.00  0.00     0.226 C 
HETATM    9  O   UNK N   1      37.433  10.175  19.972  0.00  0.00    -0.273 OA
HETATM   10  N   UNK N   1      35.626   9.167  20.793  0.00  0.00    -0.327 N 
HETATM   11  H   UNK N   1      36.156   8.346  20.918  0.00  0.00     0.169 HD
BRANCH  10  12
HETATM   12  C   UNK N   1      34.263   9.143  21.195  0.00  0.00     0.035 A 
HETATM   13  C   UNK N   1      33.259   8.619  20.362  0.00  0.00     0.036 A 
HETATM   14  C   UNK N   1      31.931   8.586  20.792  0.00  0.00    -0.059 A 
HETATM   15  C   UNK N   1      31.598   9.066  22.061  0.00  0.00     0.013 A 
HETATM   16  C   UNK N   1      30.877   8.032  19.903  0.00  0.00     0.048 C 
HETATM   17  C   UNK N   1      32.591   9.594  22.891  0.00  0.00    -0.059 A 
HETATM   18  C   UNK N   1      33.917   9.642  22.455  0.00  0.00     0.036 A 
HETATM   19  C   UNK N   1      32.242  10.084  24.249  0.00  0.00     0.048 C 
ENDBRANCH  10  12
ENDBRANCH   7   8
ENDBRANCH   4   7
BRANCH   1  20
HETATM   20  O   UNK N   1      34.503  12.520  14.389  0.00  0.00    -0.330 OA
BRANCH  20  21
HETATM   21  C   UNK N   1      35.408  12.617  13.336  0.00  0.00     0.145 C 
HETATM   22  C   UNK N   1      35.082  11.627  12.225  0.00  0.00     0.058 C 
HETATM   23  C   UNK N   1      36.775  12.235  13.877  0.00  0.00     0.058 C 
BRANCH  21  24
HETATM   24  C   UNK N   1      35.447  14.036  12.789  0.00  0.00     0.175 C 
HETATM   25  O   UNK N   1      34.575  14.431  12.032  0.00  0.00    -0.648 OA
BRANCH  24  26
HETATM   26  O   UNK N   1      36.444  14.877  13.134  0.00  0.00    -0.774 OA
HETATM   27  H   UNK N   1      37.128  14.673  13.742  0.00  0.00     0.167 HD
ENDBRANCH  24  26
ENDBRANCH  21  24
ENDBRANCH  20  21
ENDBRANCH   1  20
TORSDOF 7
ENDMDL
MODEL 8
REMARK VINA RESULT:      -6.9     12.125     14.201
REMARK  7 active torsions:
REMARK  status: ('A' for Active; 'I' for Inactive)
REMARK    1  A    between atoms: C_1  and  O_2 
REMARK    2  A    between atoms: C_1  and  C_4 
REMARK    3  A    between atoms: C_4  and  O_7 
REMARK    4  A    between atoms: O_7  and  C_8 
REMARK    5  A    between atoms: C_11  and  C_14 
REMARK    6  A    between atoms: C_14  and  C_15 
REMARK       I    between atoms: C_15  and  N_17 
REMARK    7  A    between atoms: N_17  and  C_18 
ROOT
HETATM    1  C   UNK N   1      29.734  21.975  -5.368  0.00  0.00     0.070 A 
HETATM    2  C   UNK N   1      29.039  23.088  -4.886  0.00  0.00     0.037 A 
HETATM    3  C   UNK N   1      28.239  23.846  -5.744  0.00  0.00     0.010 A 
HETATM    4  C   UNK N   1      28.109  23.487  -7.089  0.00  0.00    -0.049 A 
HETATM    5  C   UNK N   1      29.585  21.605  -6.715  0.00  0.00     0.037 A 
HETATM    6  C   UNK N   1      28.777  22.353  -7.569  0.00  0.00     0.010 A 
ENDROOT
BRANCH   4   7
HETATM    7  C   UNK N   1      27.289  24.361  -7.987  0.00  0.00     0.141 C 
BRANCH   7   8
HETATM    8  C   UNK N   1      25.816  24.440  -7.666  0.00  0.00     0.226 C 
HETATM    9  O   UNK N   1      25.082  23.520  -7.984  0.00  0.00    -0.273 OA
HETATM   10  N   UNK N   1      25.276  25.567  -7.131  0.00  0.00    -0.327 N 
HETATM   11  H   UNK N   1      24.296  25.610  -7.044  0.00  0.00     0.169 HD
BRANCH  10  12
HETATM   12  C   UNK N   1      26.031  26.687  -6.686  0.00  0.00     0.035 A 
HETATM   13  C   UNK N   1      25.811  27.269  -5.425  0.00  0.00     0.036 A 
HETATM   14  C   UNK N   1      26.583  28.353  -5.005  0.00  0.00    -0.059 A 
HETATM   15  C   UNK N   1      27.587  28.857  -5.834  0.00  0.00     0.013 A 
HETATM   16  C   UNK N   1      26.342  28.963  -3.671  0.00  0.00     0.048 C 
HETATM   17  C   UNK N   1      27.806  28.286  -7.092  0.00  0.00    -0.059 A 
HETATM   18  C   UNK N   1      27.022  27.211  -7.520  0.00  0.00     0.036 A 
HETATM   19  C   UNK N   1      28.888  28.806  -7.966  0.00  0.00     0.048 C 
ENDBRANCH  10  12
ENDBRANCH   7   8
ENDBRANCH   4   7
BRANCH   1  20
HETATM   20  O   UNK N   1      30.547  21.290  -4.520  0.00  0.00    -0.330 OA
BRANCH  20  21
HETATM   21  C   UNK N   1      31.864  21.596  -4.188  0.00  0.00     0.145 C 
HETATM   22  C   UNK N   1      32.342  22.854  -4.903  0.00  0.00     0.058 C 
HETATM   23  C   UNK N   1      32.732  20.452  -4.685  0.00  0.00     0.058 C 
BRANCH  21  24
HETATM   24  C   UNK N   1      32.020  21.748  -2.683  0.00  0.00     0.175 C 
HETATM   25  O   UNK N   1      31.253  22.457  -2.051  0.00  0.00    -0.648 OA
BRANCH  24  26
HETATM   26  O   UNK N   1      33.004  21.101  -2.026  0.00  0.00    -0.774 OA
HETATM   27  H   UNK N   1      33.762  21.513  -1.660  0.00  0.00     0.167 HD
ENDBRANCH  24  26
ENDBRANCH  21  24
ENDBRANCH  20  21
ENDBRANCH   1  20
TORSDOF 7
ENDMDL
MODEL 9
REMARK VINA RESULT:      -6.9     11.109     15.353
REMARK  7 active torsions:
REMARK  status: ('A' for Active; 'I' for Inactive)
REMARK    1  A    between atoms: C_1  and  O_2 
REMARK    2  A    between atoms: C_1  and  C_4 
REMARK    3  A    between atoms: C_4  and  O_7 
REMARK    4  A    between atoms: O_7  and  C_8 
REMARK    5  A    between atoms: C_11  and  C_14 
REMARK    6  A    between atoms: C_14  and  C_15 
REMARK       I    between atoms: C_15  and  N_17 
REMARK    7  A    between atoms: N_17  and  C_18 
ROOT
HETATM    1  C   UNK N   1      34.675  12.400  15.630  0.00  0.00     0.070 A 
HETATM    2  C   UNK N   1      34.764  11.059  16.015  0.00  0.00     0.037 A 
HETATM    3  C   UNK N   1      35.068  10.723  17.337  0.00  0.00     0.010 A 
HETATM    4  C   UNK N   1      35.267  11.726  18.291  0.00  0.00    -0.049 A 
HETATM    5  C   UNK N   1      34.855  13.404  16.596  0.00  0.00     0.037 A 
HETATM    6  C   UNK N   1      35.146  13.069  17.917  0.00  0.00     0.010 A 
ENDROOT
BRANCH   4   7
HETATM    7  C   UNK N   1      35.649  11.323  19.682  0.00  0.00     0.141 C 
BRANCH   7   8
HETATM    8  C   UNK N   1      36.304   9.970  19.822  0.00  0.00     0.226 C 
HETATM    9  O   UNK N   1      37.433   9.803  19.392  0.00  0.00    -0.273 OA
HETATM   10  N   UNK N   1      35.617   8.907  20.317  0.00  0.00    -0.327 N 
HETATM   11  H   UNK N   1      36.051   8.024  20.284  0.00  0.00     0.169 HD
BRANCH  10  12
HETATM   12  C   UNK N   1      34.314   8.985  20.881  0.00  0.00     0.035 A 
HETATM   13  C   UNK N   1      34.090   9.575  22.137  0.00  0.00     0.036 A 
HETATM   14  C   UNK N   1      32.796   9.659  22.656  0.00  0.00    -0.059 A 
HETATM   15  C   UNK N   1      31.717   9.165  21.920  0.00  0.00     0.013 A 
HETATM   16  C   UNK N   1      32.569  10.283  23.985  0.00  0.00     0.048 C 
HETATM   17  C   UNK N   1      31.935   8.571  20.673  0.00  0.00    -0.059 A 
HETATM   18  C   UNK N   1      33.231   8.471  20.161  0.00  0.00     0.036 A 
HETATM   19  C   UNK N   1      30.786   8.065  19.879  0.00  0.00     0.048 C 
ENDBRANCH  10  12
ENDBRANCH   7   8
ENDBRANCH   4   7
BRANCH   1  20
HETATM   20  O   UNK N   1      34.432  12.693  14.324  0.00  0.00    -0.330 OA
BRANCH  20  21
HETATM   21  C   UNK N   1      35.355  12.722  13.283  0.00  0.00     0.145 C 
HETATM   22  C   UNK N   1      35.215  11.504  12.378  0.00  0.00     0.058 C 
HETATM   23  C   UNK N   1      36.739  12.650  13.905  0.00  0.00     0.058 C 
BRANCH  21  24
HETATM   24  C   UNK N   1      35.217  14.004  12.476  0.00  0.00     0.175 C 
HETATM   25  O   UNK N   1      36.119  14.825  12.462  0.00  0.00    -0.648 OA
BRANCH  24  26
HETATM   26  O   UNK N   1      34.098  14.249  11.764  0.00  0.00    -0.774 OA
HETATM   27  H   UNK N   1      33.655  13.618  11.232  0.00  0.00     0.167 HD
ENDBRANCH  24  26
ENDBRANCH  21  24
ENDBRANCH  20  21
ENDBRANCH   1  20
TORSDOF 7
ENDMDL
