REMARK  7 active torsions:
REMARK  status: ('A' for Active; 'I' for Inactive)
REMARK    1  A    between atoms: C_1  and  O_2 
REMARK    2  A    between atoms: C_1  and  C_4 
REMARK    3  A    between atoms: C_4  and  O_7 
REMARK    4  A    between atoms: O_7  and  C_8 
REMARK    5  A    between atoms: C_11  and  C_14 
REMARK    6  A    between atoms: C_14  and  C_15 
REMARK       I    between atoms: C_15  and  N_17 
REMARK    7  A    between atoms: N_17  and  C_18 
ROOT
HETATM    1  C   UNK N   1       0.103   2.935   0.134  0.00  0.00     0.070 A 
HETATM    2  C   UNK N   1       0.963   2.290   1.027  0.00  0.00     0.037 A 
HETATM    3  C   UNK N   1       0.749   0.953   1.372  0.00  0.00     0.010 A 
HETATM    4  C   UNK N   1      -0.317   0.242   0.811  0.00  0.00    -0.049 A 
HETATM    5  C   UNK N   1      -0.954   2.212  -0.443  0.00  0.00     0.037 A 
HETATM    6  C   UNK N   1      -1.161   0.875  -0.109  0.00  0.00     0.010 A 
ENDROOT
BRANCH   4   7
HETATM    7  C   UNK N   1      -0.545  -1.171   1.253  0.00  0.00     0.141 C 
BRANCH   7   8
HETATM    8  C   UNK N   1      -1.577  -1.949   0.473  0.00  0.00     0.226 C 
HETATM    9  O   UNK N   1      -2.728  -1.548   0.433  0.00  0.00    -0.273 OA
HETATM   10  N   UNK N   1      -1.270  -3.147  -0.092  0.00  0.00    -0.327 N 
HETATM   11  H   UNK N   1      -2.004  -3.667  -0.493  0.00  0.00     0.169 HD
BRANCH  10  12
HETATM   12  C   UNK N   1       0.039  -3.699  -0.144  0.00  0.00     0.035 A 
HETATM   13  C   UNK N   1       1.174  -2.886  -0.308  0.00  0.00     0.036 A 
HETATM   14  C   UNK N   1       2.450  -3.453  -0.332  0.00  0.00    -0.059 A 
HETATM   15  C   UNK N   1       2.602  -4.833  -0.181  0.00  0.00     0.013 A 
HETATM   16  C   UNK N   1       3.644  -2.586  -0.508  0.00  0.00     0.048 C 
HETATM   17  C   UNK N   1       1.476  -5.647  -0.024  0.00  0.00    -0.059 A 
HETATM   18  C   UNK N   1       0.198  -5.082  -0.017  0.00  0.00     0.036 A 
HETATM   19  C   UNK N   1       1.637  -7.112   0.159  0.00  0.00     0.048 C 
ENDBRANCH  10  12
ENDBRANCH   7   8
ENDBRANCH   4   7
BRANCH   1  20
HETATM   20  O   UNK N   1       0.307   4.252  -0.138  0.00  0.00    -0.330 OA
BRANCH  20  21
HETATM   21  C   UNK N   1      -0.587   5.135  -0.736  0.00  0.00     0.145 C 
HETATM   22  C   UNK N   1      -1.002   4.657  -2.122  0.00  0.00     0.058 C 
HETATM   23  C   UNK N   1       0.141   6.455  -0.927  0.00  0.00     0.058 C 
BRANCH  21  24
HETATM   24  C   UNK N   1      -1.810   5.342   0.144  0.00  0.00     0.175 C 
HETATM   25  O   UNK N   1      -2.546   4.405   0.409  0.00  0.00    -0.648 OA
BRANCH  24  26
HETATM   26  O   UNK N   1      -2.097   6.561   0.645  0.00  0.00    -0.774 OA
HETATM   27  H   UNK N   1      -1.463   7.157   0.994  0.00  0.00     0.167 HD
ENDBRANCH  24  26
ENDBRANCH  21  24
ENDBRANCH  20  21
ENDBRANCH   1  20
TORSDOF 7
