MODEL 1
REMARK VINA RESULT:      -3.7      0.000      0.000
REMARK  3 active torsions:
REMARK  status: ('A' for Active; 'I' for Inactive)
REMARK    1  A    between atoms: C_1  and  C_3 
REMARK    2  A    between atoms: C_1  and  O_6 
REMARK    3  A    between atoms: N_2  and  C_3 
ROOT
HETATM    1  C   UNK N   1      34.642  18.223   8.128  0.00  0.00     0.157 C 
HETATM    2  O   UNK N   1      34.422  18.116   6.930  0.00  0.00    -0.649 OA
ENDROOT
BRANCH   1   3
HETATM    3  C   UNK N   1      34.154  17.193   9.098  0.00  0.00     0.224 C 
BRANCH   3   4
HETATM    4  N   UNK N   1      34.901  17.225  10.343  0.00  0.00    -0.417 N 
HETATM    5  C   UNK N   1      35.667  15.994  10.381  0.00  0.00     0.140 C 
HETATM    6  H   UNK N   1      34.890  17.962  11.048  0.00  0.00     0.153 HD
ENDBRANCH   3   4
ENDBRANCH   1   3
BRANCH   1   7
HETATM    7  O   UNK N   1      35.332  19.283   8.586  0.00  0.00    -0.775 OA
HETATM    8  H   UNK N   1      35.659  19.923   7.986  0.00  0.00     0.167 HD
ENDBRANCH   1   7
TORSDOF 3
ENDMDL
MODEL 2
REMARK VINA RESULT:      -3.5      1.457      2.297
REMARK  3 active torsions:
REMARK  status: ('A' for Active; 'I' for Inactive)
REMARK    1  A    between atoms: C_1  and  C_3 
REMARK    2  A    between atoms: C_1  and  O_6 
REMARK    3  A    between atoms: N_2  and  C_3 
ROOT
HETATM    1  C   UNK N   1      34.629  18.265   8.107  0.00  0.00     0.157 C 
HETATM    2  O   UNK N   1      35.268  19.219   8.530  0.00  0.00    -0.649 OA
ENDROOT
BRANCH   1   3
HETATM    3  C   UNK N   1      34.081  17.229   9.038  0.00  0.00     0.224 C 
BRANCH   3   4
HETATM    4  N   UNK N   1      32.628  17.220   9.044  0.00  0.00    -0.417 N 
HETATM    5  C   UNK N   1      32.236  15.893   8.611  0.00  0.00     0.140 C 
HETATM    6  H   UNK N   1      32.010  17.990   9.301  0.00  0.00     0.153 HD
ENDBRANCH   3   4
ENDBRANCH   1   3
BRANCH   1   7
HETATM    7  O   UNK N   1      34.413  18.142   6.785  0.00  0.00    -0.775 OA
HETATM    8  H   UNK N   1      33.821  18.723   6.351  0.00  0.00     0.167 HD
ENDBRANCH   1   7
TORSDOF 3
ENDMDL
MODEL 3
REMARK VINA RESULT:      -3.4     16.400     16.511
REMARK  3 active torsions:
REMARK  status: ('A' for Active; 'I' for Inactive)
REMARK    1  A    between atoms: C_1  and  C_3 
REMARK    2  A    between atoms: C_1  and  O_6 
REMARK    3  A    between atoms: N_2  and  C_3 
ROOT
HETATM    1  C   UNK N   1      20.677  20.974   1.009  0.00  0.00     0.157 C 
HETATM    2  O   UNK N   1      20.948  20.337  -0.000  0.00  0.00    -0.649 OA
ENDROOT
BRANCH   1   3
HETATM    3  C   UNK N   1      20.528  20.294   2.334  0.00  0.00     0.224 C 
BRANCH   3   4
HETATM    4  N   UNK N   1      19.410  19.367   2.343  0.00  0.00    -0.417 N 
HETATM    5  C   UNK N   1      19.978  18.059   2.607  0.00  0.00     0.140 C 
HETATM    6  H   UNK N   1      18.425  19.590   2.195  0.00  0.00     0.153 HD
ENDBRANCH   3   4
ENDBRANCH   1   3
BRANCH   1   7
HETATM    7  O   UNK N   1      20.511  22.306   0.931  0.00  0.00    -0.775 OA
HETATM    8  H   UNK N   1      19.833  22.723   1.424  0.00  0.00     0.167 HD
ENDBRANCH   1   7
TORSDOF 3
ENDMDL
MODEL 4
REMARK VINA RESULT:      -3.4     13.149     13.644
REMARK  3 active torsions:
REMARK  status: ('A' for Active; 'I' for Inactive)
REMARK    1  A    between atoms: C_1  and  C_3 
REMARK    2  A    between atoms: C_1  and  O_6 
REMARK    3  A    between atoms: N_2  and  C_3 
ROOT
HETATM    1  C   UNK N   1      23.890  12.048  11.954  0.00  0.00     0.157 C 
HETATM    2  O   UNK N   1      23.618  12.012  13.146  0.00  0.00    -0.649 OA
ENDROOT
BRANCH   1   3
HETATM    3  C   UNK N   1      22.885  11.642  10.921  0.00  0.00     0.224 C 
BRANCH   3   4
HETATM    4  N   UNK N   1      21.523  11.870  11.372  0.00  0.00    -0.417 N 
HETATM    5  C   UNK N   1      20.961  12.853  10.466  0.00  0.00     0.140 C 
HETATM    6  H   UNK N   1      21.056  11.429  12.165  0.00  0.00     0.153 HD
ENDBRANCH   3   4
ENDBRANCH   1   3
BRANCH   1   7
HETATM    7  O   UNK N   1      25.109  12.456  11.560  0.00  0.00    -0.775 OA
HETATM    8  H   UNK N   1      25.727  11.835  11.232  0.00  0.00     0.167 HD
ENDBRANCH   1   7
TORSDOF 3
ENDMDL
MODEL 5
REMARK VINA RESULT:      -3.3     15.575     15.930
REMARK  3 active torsions:
REMARK  status: ('A' for Active; 'I' for Inactive)
REMARK    1  A    between atoms: C_1  and  C_3 
REMARK    2  A    between atoms: C_1  and  O_6 
REMARK    3  A    between atoms: N_2  and  C_3 
ROOT
HETATM    1  C   UNK N   1      20.974  20.717   2.827  0.00  0.00     0.157 C 
HETATM    2  O   UNK N   1      20.339  20.602   3.867  0.00  0.00    -0.649 OA
ENDROOT
BRANCH   1   3
HETATM    3  C   UNK N   1      20.721  19.811   1.663  0.00  0.00     0.224 C 
BRANCH   3   4
HETATM    4  N   UNK N   1      19.631  18.887   1.924  0.00  0.00    -0.417 N 
HETATM    5  C   UNK N   1      20.169  17.560   1.694  0.00  0.00     0.140 C 
HETATM    6  H   UNK N   1      18.680  19.123   2.210  0.00  0.00     0.153 HD
ENDBRANCH   3   4
ENDBRANCH   1   3
BRANCH   1   7
HETATM    7  O   UNK N   1      21.915  21.672   2.724  0.00  0.00    -0.775 OA
HETATM    8  H   UNK N   1      22.628  21.694   3.331  0.00  0.00     0.167 HD
ENDBRANCH   1   7
TORSDOF 3
ENDMDL
MODEL 6
REMARK VINA RESULT:      -3.1      2.598      3.264
REMARK  3 active torsions:
REMARK  status: ('A' for Active; 'I' for Inactive)
REMARK    1  A    between atoms: C_1  and  C_3 
REMARK    2  A    between atoms: C_1  and  O_6 
REMARK    3  A    between atoms: N_2  and  C_3 
ROOT
HETATM    1  C   UNK N   1      35.758  16.374  10.674  0.00  0.00     0.157 C 
HETATM    2  O   UNK N   1      35.513  17.518  10.316  0.00  0.00    -0.649 OA
ENDROOT
BRANCH   1   3
HETATM    3  C   UNK N   1      34.667  15.358  10.809  0.00  0.00     0.224 C 
BRANCH   3   4
HETATM    4  N   UNK N   1      33.454  15.771  10.126  0.00  0.00    -0.417 N 
HETATM    5  C   UNK N   1      33.048  14.640   9.314  0.00  0.00     0.140 C 
HETATM    6  H   UNK N   1      32.983  16.673  10.201  0.00  0.00     0.153 HD
ENDBRANCH   3   4
ENDBRANCH   1   3
BRANCH   1   7
HETATM    7  O   UNK N   1      37.024  16.020  10.952  0.00  0.00    -0.775 OA
HETATM    8  H   UNK N   1      37.697  16.146  10.312  0.00  0.00     0.167 HD
ENDBRANCH   1   7
TORSDOF 3
ENDMDL
MODEL 7
REMARK VINA RESULT:      -3.0     11.333     11.826
REMARK  3 active torsions:
REMARK  status: ('A' for Active; 'I' for Inactive)
REMARK    1  A    between atoms: C_1  and  C_3 
REMARK    2  A    between atoms: C_1  and  O_6 
REMARK    3  A    between atoms: N_2  and  C_3 
ROOT
HETATM    1  C   UNK N   1      44.385  22.332   4.271  0.00  0.00     0.157 C 
HETATM    2  O   UNK N   1      43.869  22.574   5.354  0.00  0.00    -0.649 OA
ENDROOT
BRANCH   1   3
HETATM    3  C   UNK N   1      43.559  22.243   3.026  0.00  0.00     0.224 C 
BRANCH   3   4
HETATM    4  N   UNK N   1      42.761  23.439   2.819  0.00  0.00    -0.417 N 
HETATM    5  C   UNK N   1      41.693  23.054   1.916  0.00  0.00     0.140 C 
HETATM    6  H   UNK N   1      42.917  24.361   3.226  0.00  0.00     0.153 HD
ENDBRANCH   3   4
ENDBRANCH   1   3
BRANCH   1   7
HETATM    7  O   UNK N   1      45.714  22.141   4.194  0.00  0.00    -0.775 OA
HETATM    8  H   UNK N   1      46.294  22.686   4.687  0.00  0.00     0.167 HD
ENDBRANCH   1   7
TORSDOF 3
ENDMDL
MODEL 8
REMARK VINA RESULT:      -3.0     17.793     18.223
REMARK  3 active torsions:
REMARK  status: ('A' for Active; 'I' for Inactive)
REMARK    1  A    between atoms: C_1  and  C_3 
REMARK    2  A    between atoms: C_1  and  O_6 
REMARK    3  A    between atoms: N_2  and  C_3 
ROOT
HETATM    1  C   UNK N   1      48.582  18.944  20.085  0.00  0.00     0.157 C 
HETATM    2  O   UNK N   1      48.806  17.824  19.645  0.00  0.00    -0.649 OA
ENDROOT
BRANCH   1   3
HETATM    3  C   UNK N   1      49.504  20.086  19.792  0.00  0.00     0.224 C 
BRANCH   3   4
HETATM    4  N   UNK N   1      48.785  21.340  19.654  0.00  0.00    -0.417 N 
HETATM    5  C   UNK N   1      49.590  22.339  20.331  0.00  0.00     0.140 C 
HETATM    6  H   UNK N   1      47.896  21.490  19.177  0.00  0.00     0.153 HD
ENDBRANCH   3   4
ENDBRANCH   1   3
BRANCH   1   7
HETATM    7  O   UNK N   1      47.493  19.156  20.845  0.00  0.00    -0.775 OA
HETATM    8  H   UNK N   1      46.824  19.740  20.550  0.00  0.00     0.167 HD
ENDBRANCH   1   7
TORSDOF 3
ENDMDL
MODEL 9
REMARK VINA RESULT:      -2.9      2.441      3.282
REMARK  3 active torsions:
REMARK  status: ('A' for Active; 'I' for Inactive)
REMARK    1  A    between atoms: C_1  and  C_3 
REMARK    2  A    between atoms: C_1  and  O_6 
REMARK    3  A    between atoms: N_2  and  C_3 
ROOT
HETATM    1  C   UNK N   1      34.553  18.127   8.418  0.00  0.00     0.157 C 
HETATM    2  O   UNK N   1      35.225  19.148   8.464  0.00  0.00    -0.649 OA
ENDROOT
BRANCH   1   3
HETATM    3  C   UNK N   1      34.057  17.587   7.113  0.00  0.00     0.224 C 
BRANCH   3   4
HETATM    4  N   UNK N   1      32.610  17.467   7.092  0.00  0.00    -0.417 N 
HETATM    5  C   UNK N   1      32.248  17.244   5.705  0.00  0.00     0.140 C 
HETATM    6  H   UNK N   1      31.976  17.527   7.888  0.00  0.00     0.153 HD
ENDBRANCH   3   4
ENDBRANCH   1   3
BRANCH   1   7
HETATM    7  O   UNK N   1      34.252  17.476   9.555  0.00  0.00    -0.775 OA
HETATM    8  H   UNK N   1      33.927  17.950  10.294  0.00  0.00     0.167 HD
ENDBRANCH   1   7
TORSDOF 3
ENDMDL
