MODEL 1
REMARK VINA RESULT:      -5.4      0.000      0.000
REMARK  2 active torsions:
REMARK  status: ('A' for Active; 'I' for Inactive)
REMARK    1  A    between atoms: C_4  and  N_8 
REMARK    2  A    between atoms: C_6  and  N_9 
ROOT
HETATM    1  C   UNK N   1      32.393  17.841   8.390  0.00  0.00     0.038 A 
HETATM    2  C   UNK N   1      31.326  17.433   7.584  0.00  0.00     0.029 A 
HETATM    3  C   UNK N   1      33.908  17.478   6.550  0.00  0.00     0.073 A 
HETATM    4  C   UNK N   1      33.695  17.864   7.874  0.00  0.00     0.105 A 
HETATM    5  C   UNK N   1      31.540  17.044   6.255  0.00  0.00     0.067 A 
HETATM    6  C   UNK N   1      32.859  17.065   5.722  0.00  0.00     0.127 A 
HETATM    7 Cl   UNK N   1      30.129  16.549   5.327  0.00  0.00    -0.082 Cl
ENDROOT
BRANCH   4   8
HETATM    8  N   UNK N   1      34.798  18.275   8.673  0.00  0.00    -0.116 N 
HETATM    9  O   UNK N   1      35.180  17.582   9.568  0.00  0.00    -0.532 OA
HETATM   10  O   UNK N   1      35.350  19.312   8.456  0.00  0.00    -0.532 OA
ENDBRANCH   4   8
BRANCH   6  11
HETATM   11  N   UNK N   1      33.174  16.686   4.377  0.00  0.00    -0.114 N 
HETATM   12  O   UNK N   1      32.859  17.372   3.453  0.00  0.00    -0.532 OA
HETATM   13  O   UNK N   1      33.761  15.667   4.171  0.00  0.00    -0.532 OA
ENDBRANCH   6  11
TORSDOF 2
ENDMDL
MODEL 2
REMARK VINA RESULT:      -5.4     12.098     12.812
REMARK  2 active torsions:
REMARK  status: ('A' for Active; 'I' for Inactive)
REMARK    1  A    between atoms: C_4  and  N_8 
REMARK    2  A    between atoms: C_6  and  N_9 
ROOT
HETATM    1  C   UNK N   1      23.220  11.495   9.416  0.00  0.00     0.038 A 
HETATM    2  C   UNK N   1      22.566  11.768   8.211  0.00  0.00     0.029 A 
HETATM    3  C   UNK N   1      21.915  13.208  10.500  0.00  0.00     0.073 A 
HETATM    4  C   UNK N   1      22.895  12.217  10.571  0.00  0.00     0.105 A 
HETATM    5  C   UNK N   1      21.581  12.762   8.139  0.00  0.00     0.067 A 
HETATM    6  C   UNK N   1      21.245  13.502   9.308  0.00  0.00     0.127 A 
HETATM    7 Cl   UNK N   1      20.820  13.027   6.574  0.00  0.00    -0.082 Cl
ENDROOT
BRANCH   4   8
HETATM    8  N   UNK N   1      23.546  11.959  11.810  0.00  0.00    -0.116 N 
HETATM    9  O   UNK N   1      24.739  11.924  11.864  0.00  0.00    -0.532 OA
HETATM   10  O   UNK N   1      22.906  11.775  12.802  0.00  0.00    -0.532 OA
ENDBRANCH   4   8
BRANCH   6  11
HETATM   11  N   UNK N   1      20.254  14.535   9.331  0.00  0.00    -0.114 N 
HETATM   12  O   UNK N   1      19.164  14.336   9.773  0.00  0.00    -0.532 OA
HETATM   13  O   UNK N   1      20.517  15.618   8.901  0.00  0.00    -0.532 OA
ENDBRANCH   6  11
TORSDOF 2
ENDMDL
MODEL 3
REMARK VINA RESULT:      -5.2     12.127     13.087
REMARK  2 active torsions:
REMARK  status: ('A' for Active; 'I' for Inactive)
REMARK    1  A    between atoms: C_4  and  N_8 
REMARK    2  A    between atoms: C_6  and  N_9 
ROOT
HETATM    1  C   UNK N   1      20.301  18.529   2.096  0.00  0.00     0.038 A 
HETATM    2  C   UNK N   1      19.769  17.437   2.788  0.00  0.00     0.029 A 
HETATM    3  C   UNK N   1      21.489  19.196   4.085  0.00  0.00     0.073 A 
HETATM    4  C   UNK N   1      21.167  19.417   2.746  0.00  0.00     0.105 A 
HETATM    5  C   UNK N   1      20.092  17.214   4.133  0.00  0.00     0.067 A 
HETATM    6  C   UNK N   1      20.971  18.111   4.801  0.00  0.00     0.127 A 
HETATM    7 Cl   UNK N   1      19.368  15.810   4.910  0.00  0.00    -0.082 Cl
ENDROOT
BRANCH   4   8
HETATM    8  N   UNK N   1      21.723  20.537   2.065  0.00  0.00    -0.116 N 
HETATM    9  O   UNK N   1      22.306  21.381   2.677  0.00  0.00    -0.532 OA
HETATM   10  O   UNK N   1      21.610  20.641   0.881  0.00  0.00    -0.532 OA
ENDBRANCH   4   8
BRANCH   6  11
HETATM   11  N   UNK N   1      21.358  17.965   6.172  0.00  0.00    -0.114 N 
HETATM   12  O   UNK N   1      20.987  18.735   7.004  0.00  0.00    -0.532 OA
HETATM   13  O   UNK N   1      22.064  17.057   6.495  0.00  0.00    -0.532 OA
ENDBRANCH   6  11
TORSDOF 2
ENDMDL
MODEL 4
REMARK VINA RESULT:      -5.2      3.166      4.331
REMARK  2 active torsions:
REMARK  status: ('A' for Active; 'I' for Inactive)
REMARK    1  A    between atoms: C_4  and  N_8 
REMARK    2  A    between atoms: C_6  and  N_9 
ROOT
HETATM    1  C   UNK N   1      30.418  17.322   7.112  0.00  0.00     0.038 A 
HETATM    2  C   UNK N   1      31.525  16.880   6.382  0.00  0.00     0.029 A 
HETATM    3  C   UNK N   1      31.898  18.277   8.758  0.00  0.00     0.073 A 
HETATM    4  C   UNK N   1      30.601  18.026   8.309  0.00  0.00     0.105 A 
HETATM    5  C   UNK N   1      32.828  17.131   6.833  0.00  0.00     0.067 A 
HETATM    6  C   UNK N   1      33.024  17.846   8.048  0.00  0.00     0.127 A 
HETATM    7 Cl   UNK N   1      34.151  16.531   5.839  0.00  0.00    -0.082 Cl
ENDROOT
BRANCH   4   8
HETATM    8  N   UNK N   1      29.491  18.487   9.071  0.00  0.00    -0.116 N 
HETATM    9  O   UNK N   1      29.629  18.756  10.228  0.00  0.00    -0.532 OA
HETATM   10  O   UNK N   1      28.418  18.609   8.563  0.00  0.00    -0.532 OA
ENDBRANCH   4   8
BRANCH   6  11
HETATM   11  N   UNK N   1      34.315  18.149   8.586  0.00  0.00    -0.114 N 
HETATM   12  O   UNK N   1      34.917  19.119   8.238  0.00  0.00    -0.532 OA
HETATM   13  O   UNK N   1      34.804  17.423   9.399  0.00  0.00    -0.532 OA
ENDBRANCH   6  11
TORSDOF 2
ENDMDL
MODEL 5
REMARK VINA RESULT:      -5.1      2.800      3.906
REMARK  2 active torsions:
REMARK  status: ('A' for Active; 'I' for Inactive)
REMARK    1  A    between atoms: C_4  and  N_8 
REMARK    2  A    between atoms: C_6  and  N_9 
ROOT
HETATM    1  C   UNK N   1      33.054  14.894  10.200  0.00  0.00     0.038 A 
HETATM    2  C   UNK N   1      32.285  15.371   9.134  0.00  0.00     0.029 A 
HETATM    3  C   UNK N   1      34.740  16.546   9.709  0.00  0.00     0.073 A 
HETATM    4  C   UNK N   1      34.291  15.483  10.493  0.00  0.00     0.105 A 
HETATM    5  C   UNK N   1      32.737  16.438   8.346  0.00  0.00     0.067 A 
HETATM    6  C   UNK N   1      33.992  17.042   8.636  0.00  0.00     0.127 A 
HETATM    7 Cl   UNK N   1      31.693  16.960   7.029  0.00  0.00    -0.082 Cl
ENDROOT
BRANCH   4   8
HETATM    8  N   UNK N   1      35.092  15.017  11.573  0.00  0.00    -0.116 N 
HETATM    9  O   UNK N   1      36.158  15.514  11.785  0.00  0.00    -0.532 OA
HETATM   10  O   UNK N   1      34.707  14.129  12.272  0.00  0.00    -0.532 OA
ENDBRANCH   4   8
BRANCH   6  11
HETATM   11  N   UNK N   1      34.534  18.136   7.888  0.00  0.00    -0.114 N 
HETATM   12  O   UNK N   1      34.972  19.101   8.435  0.00  0.00    -0.532 OA
HETATM   13  O   UNK N   1      34.550  18.087   6.694  0.00  0.00    -0.532 OA
ENDBRANCH   6  11
TORSDOF 2
ENDMDL
MODEL 6
REMARK VINA RESULT:      -5.1      3.096      4.130
REMARK  2 active torsions:
REMARK  status: ('A' for Active; 'I' for Inactive)
REMARK    1  A    between atoms: C_4  and  N_8 
REMARK    2  A    between atoms: C_6  and  N_9 
ROOT
HETATM    1  C   UNK N   1      32.015  17.212   6.271  0.00  0.00     0.038 A 
HETATM    2  C   UNK N   1      30.642  16.957   6.195  0.00  0.00     0.029 A 
HETATM    3  C   UNK N   1      31.755  17.862   8.578  0.00  0.00     0.073 A 
HETATM    4  C   UNK N   1      32.579  17.668   7.469  0.00  0.00     0.105 A 
HETATM    5  C   UNK N   1      29.814  17.152   7.308  0.00  0.00     0.067 A 
HETATM    6  C   UNK N   1      30.379  17.615   8.530  0.00  0.00     0.127 A 
HETATM    7 Cl   UNK N   1      28.101  16.802   7.106  0.00  0.00    -0.082 Cl
ENDROOT
BRANCH   4   8
HETATM    8  N   UNK N   1      33.973  17.934   7.574  0.00  0.00    -0.116 N 
HETATM    9  O   UNK N   1      34.446  18.246   8.626  0.00  0.00    -0.532 OA
HETATM   10  O   UNK N   1      34.679  17.849   6.614  0.00  0.00    -0.532 OA
ENDBRANCH   4   8
BRANCH   6  11
HETATM   11  N   UNK N   1      29.613  17.843   9.718  0.00  0.00    -0.114 N 
HETATM   12  O   UNK N   1      28.981  16.966  10.223  0.00  0.00    -0.532 OA
HETATM   13  O   UNK N   1      29.602  18.928  10.217  0.00  0.00    -0.532 OA
ENDBRANCH   6  11
TORSDOF 2
ENDMDL
MODEL 7
REMARK VINA RESULT:      -5.0     11.996     13.414
REMARK  2 active torsions:
REMARK  status: ('A' for Active; 'I' for Inactive)
REMARK    1  A    between atoms: C_4  and  N_8 
REMARK    2  A    between atoms: C_6  and  N_9 
ROOT
HETATM    1  C   UNK N   1      30.214  22.072  -4.685  0.00  0.00     0.038 A 
HETATM    2  C   UNK N   1      29.404  22.266  -5.808  0.00  0.00     0.029 A 
HETATM    3  C   UNK N   1      28.871  23.653  -3.456  0.00  0.00     0.073 A 
HETATM    4  C   UNK N   1      29.949  22.768  -3.499  0.00  0.00     0.105 A 
HETATM    5  C   UNK N   1      28.322  23.154  -5.766  0.00  0.00     0.067 A 
HETATM    6  C   UNK N   1      28.045  23.866  -4.565  0.00  0.00     0.127 A 
HETATM    7 Cl   UNK N   1      27.366  23.325  -7.234  0.00  0.00    -0.082 Cl
ENDROOT
BRANCH   4   8
HETATM    8  N   UNK N   1      30.758  22.589  -2.342  0.00  0.00    -0.116 N 
HETATM    9  O   UNK N   1      31.779  21.973  -2.415  0.00  0.00    -0.532 OA
HETATM   10  O   UNK N   1      30.424  23.052  -1.293  0.00  0.00    -0.532 OA
ENDBRANCH   4   8
BRANCH   6  11
HETATM   11  N   UNK N   1      26.962  24.793  -4.428  0.00  0.00    -0.114 N 
HETATM   12  O   UNK N   1      25.987  24.515  -3.799  0.00  0.00    -0.532 OA
HETATM   13  O   UNK N   1      27.030  25.866  -4.949  0.00  0.00    -0.532 OA
ENDBRANCH   6  11
TORSDOF 2
ENDMDL
MODEL 8
REMARK VINA RESULT:      -5.0      9.862     11.129
REMARK  2 active torsions:
REMARK  status: ('A' for Active; 'I' for Inactive)
REMARK    1  A    between atoms: C_4  and  N_8 
REMARK    2  A    between atoms: C_6  and  N_9 
ROOT
HETATM    1  C   UNK N   1      35.215  11.411  17.758  0.00  0.00     0.038 A 
HETATM    2  C   UNK N   1      35.282  10.599  16.622  0.00  0.00     0.029 A 
HETATM    3  C   UNK N   1      35.360  13.367  16.355  0.00  0.00     0.073 A 
HETATM    4  C   UNK N   1      35.255  12.805  17.628  0.00  0.00     0.105 A 
HETATM    5  C   UNK N   1      35.387  11.163  15.343  0.00  0.00     0.067 A 
HETATM    6  C   UNK N   1      35.428  12.578  15.201  0.00  0.00     0.127 A 
HETATM    7 Cl   UNK N   1      35.464  10.052  13.980  0.00  0.00    -0.082 Cl
ENDROOT
BRANCH   4   8
HETATM    8  N   UNK N   1      35.189  13.655  18.768  0.00  0.00    -0.116 N 
HETATM    9  O   UNK N   1      35.054  13.184  19.858  0.00  0.00    -0.532 OA
HETATM   10  O   UNK N   1      35.267  14.840  18.644  0.00  0.00    -0.532 OA
ENDBRANCH   4   8
BRANCH   6  11
HETATM   11  N   UNK N   1      35.535  13.243  13.938  0.00  0.00    -0.114 N 
HETATM   12  O   UNK N   1      34.604  13.310  13.195  0.00  0.00    -0.532 OA
HETATM   13  O   UNK N   1      36.572  13.742  13.616  0.00  0.00    -0.532 OA
ENDBRANCH   6  11
TORSDOF 2
ENDMDL
MODEL 9
REMARK VINA RESULT:      -4.8     10.776     11.325
REMARK  2 active torsions:
REMARK  status: ('A' for Active; 'I' for Inactive)
REMARK    1  A    between atoms: C_4  and  N_8 
REMARK    2  A    between atoms: C_6  and  N_9 
ROOT
HETATM    1  C   UNK N   1      42.509  20.711   3.629  0.00  0.00     0.038 A 
HETATM    2  C   UNK N   1      41.478  20.447   2.723  0.00  0.00     0.029 A 
HETATM    3  C   UNK N   1      42.730  22.931   2.713  0.00  0.00     0.073 A 
HETATM    4  C   UNK N   1      43.142  21.961   3.627  0.00  0.00     0.105 A 
HETATM    5  C   UNK N   1      41.063  21.420   1.804  0.00  0.00     0.067 A 
HETATM    6  C   UNK N   1      41.701  22.693   1.795  0.00  0.00     0.127 A 
HETATM    7 Cl   UNK N   1      39.756  20.985   0.708  0.00  0.00    -0.082 Cl
ENDROOT
BRANCH   4   8
HETATM    8  N   UNK N   1      44.195  22.256   4.538  0.00  0.00    -0.116 N 
HETATM    9  O   UNK N   1      43.947  22.728   5.607  0.00  0.00    -0.532 OA
HETATM   10  O   UNK N   1      45.330  22.034   4.243  0.00  0.00    -0.532 OA
ENDBRANCH   4   8
BRANCH   6  11
HETATM   11  N   UNK N   1      41.345  23.748   0.895  0.00  0.00    -0.114 N 
HETATM   12  O   UNK N   1      41.533  23.648  -0.279  0.00  0.00    -0.532 OA
HETATM   13  O   UNK N   1      40.852  24.749   1.321  0.00  0.00    -0.532 OA
ENDBRANCH   6  11
TORSDOF 2
ENDMDL
