MODEL 1
REMARK VINA RESULT:      -7.4      0.000      0.000
REMARK  1 active torsions:
REMARK  status: ('A' for Active; 'I' for Inactive)
REMARK    1  A    between atoms: C_5  and  C_13 
ROOT
HETATM    1  C   UNK N   1      27.619  19.455   6.433  0.00  0.00     0.045 A 
HETATM    2  C   UNK N   1      27.677  20.845   6.451  0.00  0.00     0.033 A 
HETATM    3  C   UNK N   1      26.725  21.280   5.544  0.00  0.00     0.043 A 
HETATM    4  C   UNK N   1      26.148  20.133   5.028  0.00  0.00     0.116 A 
HETATM    5  N   UNK N   1      26.685  19.040   5.574  0.00  0.00    -0.342 N 
HETATM    6  C   UNK N   1      26.305  17.669   5.261  0.00  0.00     0.157 C 
HETATM    7  C   UNK N   1      25.127  20.064   4.034  0.00  0.00     0.117 C 
HETATM    8  N   UNK N   1      24.304  19.940   3.235  0.00  0.00    -0.190 NA
ENDROOT
BRANCH   1   9
HETATM    9  C   UNK N   1      28.430  18.583   7.270  0.00  0.00    -0.009 A 
HETATM   10  C   UNK N   1      29.351  17.785   6.632  0.00  0.00     0.026 A 
HETATM   11  C   UNK N   1      30.266  17.048   7.351  0.00  0.00     0.004 A 
HETATM   12  C   UNK N   1      31.306  16.270   6.596  0.00  0.00     0.092 A 
HETATM   13  C   UNK N   1      30.245  17.092   8.753  0.00  0.00     0.044 A 
HETATM   14  C   UNK N   1      30.632  15.167   5.800  0.00  0.00     0.052 C 
HETATM   15  O   UNK N   1      32.257  15.686   7.419  0.00  0.00    -0.311 OA
HETATM   16  C   UNK N   1      32.000  17.212   5.619  0.00  0.00     0.052 C 
HETATM   17  C   UNK N   1      32.226  15.686   8.779  0.00  0.00     0.215 A 
HETATM   18  N   UNK N   1      31.212  16.379   9.479  0.00  0.00    -0.327 N 
HETATM   19  S   UNK N   1      33.202  14.933   9.505  0.00  0.00    -0.033 SA
HETATM   20  H   UNK N   1      31.185  16.362  10.464  0.00  0.00     0.169 HD
HETATM   21  C   UNK N   1      29.283  17.856   9.419  0.00  0.00     0.031 A 
HETATM   22  C   UNK N   1      28.379  18.612   8.673  0.00  0.00     0.016 A 
ENDBRANCH   1   9
TORSDOF 1
ENDMDL
MODEL 2
REMARK VINA RESULT:      -7.3      3.199      7.342
REMARK  1 active torsions:
REMARK  status: ('A' for Active; 'I' for Inactive)
REMARK    1  A    between atoms: C_5  and  C_13 
ROOT
HETATM    1  C   UNK N   1      32.521  16.068   7.749  0.00  0.00     0.045 A 
HETATM    2  C   UNK N   1      32.489  14.776   8.264  0.00  0.00     0.033 A 
HETATM    3  C   UNK N   1      33.492  14.718   9.218  0.00  0.00     0.043 A 
HETATM    4  C   UNK N   1      34.074  15.974   9.225  0.00  0.00     0.116 A 
HETATM    5  N   UNK N   1      33.479  16.782   8.346  0.00  0.00    -0.342 N 
HETATM    6  C   UNK N   1      33.838  18.173   8.103  0.00  0.00     0.157 C 
HETATM    7  C   UNK N   1      35.173  16.401  10.028  0.00  0.00     0.117 C 
HETATM    8  N   UNK N   1      36.058  16.807  10.648  0.00  0.00    -0.190 NA
ENDROOT
BRANCH   1   9
HETATM    9  C   UNK N   1      31.606  16.579   6.740  0.00  0.00    -0.009 A 
HETATM   10  C   UNK N   1      30.328  16.881   7.150  0.00  0.00     0.026 A 
HETATM   11  C   UNK N   1      29.445  17.515   6.304  0.00  0.00     0.004 A 
HETATM   12  C   UNK N   1      28.096  17.903   6.841  0.00  0.00     0.092 A 
HETATM   13  C   UNK N   1      29.844  17.835   4.997  0.00  0.00     0.044 A 
HETATM   14  C   UNK N   1      27.306  16.650   7.173  0.00  0.00     0.052 C 
HETATM   15  O   UNK N   1      27.350  18.658   5.950  0.00  0.00    -0.311 OA
HETATM   16  C   UNK N   1      28.298  18.698   8.125  0.00  0.00     0.052 C 
HETATM   17  C   UNK N   1      27.706  18.942   4.668  0.00  0.00     0.215 A 
HETATM   18  N   UNK N   1      28.958  18.526   4.157  0.00  0.00    -0.327 N 
HETATM   19  S   UNK N   1      26.782  19.622   3.814  0.00  0.00    -0.033 SA
HETATM   20  H   UNK N   1      29.204  18.719   3.223  0.00  0.00     0.169 HD
HETATM   21  C   UNK N   1      31.120  17.488   4.546  0.00  0.00     0.031 A 
HETATM   22  C   UNK N   1      32.007  16.866   5.425  0.00  0.00     0.016 A 
ENDBRANCH   1   9
TORSDOF 1
ENDMDL
MODEL 3
REMARK VINA RESULT:      -7.1      3.759      6.888
REMARK  1 active torsions:
REMARK  status: ('A' for Active; 'I' for Inactive)
REMARK    1  A    between atoms: C_5  and  C_13 
ROOT
HETATM    1  C   UNK N   1      30.465  17.241   5.240  0.00  0.00     0.045 A 
HETATM    2  C   UNK N   1      31.125  17.191   4.016  0.00  0.00     0.033 A 
HETATM    3  C   UNK N   1      32.477  17.276   4.306  0.00  0.00     0.043 A 
HETATM    4  C   UNK N   1      32.559  17.375   5.684  0.00  0.00     0.116 A 
HETATM    5  N   UNK N   1      31.345  17.345   6.238  0.00  0.00    -0.342 N 
HETATM    6  C   UNK N   1      31.071  17.422   7.667  0.00  0.00     0.157 C 
HETATM    7  C   UNK N   1      33.748  17.511   6.461  0.00  0.00     0.117 C 
HETATM    8  N   UNK N   1      34.670  17.621   7.146  0.00  0.00    -0.190 NA
ENDROOT
BRANCH   1   9
HETATM    9  C   UNK N   1      29.023  17.146   5.406  0.00  0.00    -0.009 A 
HETATM   10  C   UNK N   1      28.293  18.296   5.206  0.00  0.00     0.026 A 
HETATM   11  C   UNK N   1      26.916  18.264   5.187  0.00  0.00     0.004 A 
HETATM   12  C   UNK N   1      26.179  19.535   4.871  0.00  0.00     0.092 A 
HETATM   13  C   UNK N   1      26.246  17.050   5.396  0.00  0.00     0.044 A 
HETATM   14  C   UNK N   1      26.414  20.544   5.981  0.00  0.00     0.052 C 
HETATM   15  O   UNK N   1      24.811  19.355   4.737  0.00  0.00    -0.311 OA
HETATM   16  C   UNK N   1      26.739  20.109   3.574  0.00  0.00     0.052 C 
HETATM   17  C   UNK N   1      24.144  18.194   4.976  0.00  0.00     0.215 A 
HETATM   18  N   UNK N   1      24.845  17.015   5.323  0.00  0.00    -0.327 N 
HETATM   19  S   UNK N   1      22.714  18.180   4.925  0.00  0.00    -0.033 SA
HETATM   20  H   UNK N   1      24.356  16.181   5.511  0.00  0.00     0.169 HD
HETATM   21  C   UNK N   1      26.969  15.882   5.652  0.00  0.00     0.031 A 
HETATM   22  C   UNK N   1      28.363  15.930   5.646  0.00  0.00     0.016 A 
ENDBRANCH   1   9
TORSDOF 1
ENDMDL
MODEL 4
REMARK VINA RESULT:      -7.0      3.429      6.739
REMARK  1 active torsions:
REMARK  status: ('A' for Active; 'I' for Inactive)
REMARK    1  A    between atoms: C_5  and  C_13 
ROOT
HETATM    1  C   UNK N   1      32.448  17.356   8.330  0.00  0.00     0.045 A 
HETATM    2  C   UNK N   1      33.358  18.360   8.011  0.00  0.00     0.033 A 
HETATM    3  C   UNK N   1      34.592  17.914   8.456  0.00  0.00     0.043 A 
HETATM    4  C   UNK N   1      34.360  16.671   9.020  0.00  0.00     0.116 A 
HETATM    5  N   UNK N   1      33.070  16.340   8.933  0.00  0.00    -0.342 N 
HETATM    6  C   UNK N   1      32.486  15.098   9.421  0.00  0.00     0.157 C 
HETATM    7  C   UNK N   1      35.324  15.822   9.640  0.00  0.00     0.117 C 
HETATM    8  N   UNK N   1      36.054  15.091  10.154  0.00  0.00    -0.190 NA
ENDROOT
BRANCH   1   9
HETATM    9  C   UNK N   1      31.030  17.394   8.008  0.00  0.00    -0.009 A 
HETATM   10  C   UNK N   1      30.643  16.814   6.822  0.00  0.00     0.026 A 
HETATM   11  C   UNK N   1      29.310  16.663   6.511  0.00  0.00     0.004 A 
HETATM   12  C   UNK N   1      28.951  15.938   5.245  0.00  0.00     0.092 A 
HETATM   13  C   UNK N   1      28.332  17.127   7.403  0.00  0.00     0.044 A 
HETATM   14  C   UNK N   1      29.421  16.747   4.049  0.00  0.00     0.052 C 
HETATM   15  O   UNK N   1      27.589  15.719   5.107  0.00  0.00    -0.311 OA
HETATM   16  C   UNK N   1      29.677  14.597   5.233  0.00  0.00     0.052 C 
HETATM   17  C   UNK N   1      26.627  16.198   5.941  0.00  0.00     0.215 A 
HETATM   18  N   UNK N   1      26.975  16.924   7.104  0.00  0.00    -0.327 N 
HETATM   19  S   UNK N   1      25.249  16.007   5.610  0.00  0.00    -0.033 SA
HETATM   20  H   UNK N   1      26.275  17.283   7.697  0.00  0.00     0.169 HD
HETATM   21  C   UNK N   1      28.706  17.766   8.588  0.00  0.00     0.031 A 
HETATM   22  C   UNK N   1      30.061  17.890   8.896  0.00  0.00     0.016 A 
ENDBRANCH   1   9
TORSDOF 1
ENDMDL
MODEL 5
REMARK VINA RESULT:      -6.9      4.663      7.997
REMARK  1 active torsions:
REMARK  status: ('A' for Active; 'I' for Inactive)
REMARK    1  A    between atoms: C_5  and  C_13 
ROOT
HETATM    1  C   UNK N   1      27.455  18.244   5.508  0.00  0.00     0.045 A 
HETATM    2  C   UNK N   1      28.075  17.015   5.305  0.00  0.00     0.033 A 
HETATM    3  C   UNK N   1      28.935  16.838   6.376  0.00  0.00     0.043 A 
HETATM    4  C   UNK N   1      28.789  17.967   7.164  0.00  0.00     0.116 A 
HETATM    5  N   UNK N   1      27.892  18.803   6.639  0.00  0.00    -0.342 N 
HETATM    6  C   UNK N   1      27.494  20.081   7.216  0.00  0.00     0.157 C 
HETATM    7  C   UNK N   1      29.488  18.261   8.372  0.00  0.00     0.117 C 
HETATM    8  N   UNK N   1      30.019  18.558   9.353  0.00  0.00    -0.190 NA
ENDROOT
BRANCH   1   9
HETATM    9  C   UNK N   1      26.440  18.812   4.634  0.00  0.00    -0.009 A 
HETATM   10  C   UNK N   1      25.176  18.275   4.713  0.00  0.00     0.026 A 
HETATM   11  C   UNK N   1      24.120  18.851   4.041  0.00  0.00     0.004 A 
HETATM   12  C   UNK N   1      22.747  18.274   4.243  0.00  0.00     0.092 A 
HETATM   13  C   UNK N   1      24.339  19.986   3.247  0.00  0.00     0.044 A 
HETATM   14  C   UNK N   1      22.701  16.869   3.670  0.00  0.00     0.052 C 
HETATM   15  O   UNK N   1      21.747  19.018   3.636  0.00  0.00    -0.311 OA
HETATM   16  C   UNK N   1      22.472  18.192   5.740  0.00  0.00     0.052 C 
HETATM   17  C   UNK N   1      21.947  20.096   2.830  0.00  0.00     0.215 A 
HETATM   18  N   UNK N   1      23.250  20.599   2.606  0.00  0.00    -0.327 N 
HETATM   19  S   UNK N   1      20.832  20.693   2.162  0.00  0.00    -0.033 SA
HETATM   20  H   UNK N   1      23.392  21.369   2.009  0.00  0.00     0.169 HD
HETATM   21  C   UNK N   1      25.626  20.514   3.112  0.00  0.00     0.031 A 
HETATM   22  C   UNK N   1      26.678  19.930   3.817  0.00  0.00     0.016 A 
ENDBRANCH   1   9
TORSDOF 1
ENDMDL
MODEL 6
REMARK VINA RESULT:      -6.8      1.471      2.680
REMARK  1 active torsions:
REMARK  status: ('A' for Active; 'I' for Inactive)
REMARK    1  A    between atoms: C_5  and  C_13 
ROOT
HETATM    1  C   UNK N   1      27.341  18.892   4.760  0.00  0.00     0.045 A 
HETATM    2  C   UNK N   1      27.338  20.181   4.238  0.00  0.00     0.033 A 
HETATM    3  C   UNK N   1      26.029  20.442   3.866  0.00  0.00     0.043 A 
HETATM    4  C   UNK N   1      25.316  19.298   4.182  0.00  0.00     0.116 A 
HETATM    5  N   UNK N   1      26.110  18.374   4.726  0.00  0.00    -0.342 N 
HETATM    6  C   UNK N   1      25.682  17.057   5.180  0.00  0.00     0.157 C 
HETATM    7  C   UNK N   1      23.924  19.072   3.963  0.00  0.00     0.117 C 
HETATM    8  N   UNK N   1      22.807  18.827   3.813  0.00  0.00    -0.190 NA
ENDROOT
BRANCH   1   9
HETATM    9  C   UNK N   1      28.512  18.225   5.308  0.00  0.00    -0.009 A 
HETATM   10  C   UNK N   1      28.675  18.270   6.674  0.00  0.00     0.026 A 
HETATM   11  C   UNK N   1      29.663  17.537   7.292  0.00  0.00     0.004 A 
HETATM   12  C   UNK N   1      29.730  17.555   8.793  0.00  0.00     0.092 A 
HETATM   13  C   UNK N   1      30.531  16.751   6.521  0.00  0.00     0.044 A 
HETATM   14  C   UNK N   1      30.090  18.952   9.266  0.00  0.00     0.052 C 
HETATM   15  O   UNK N   1      30.666  16.672   9.310  0.00  0.00    -0.311 OA
HETATM   16  C   UNK N   1      28.353  17.202   9.343  0.00  0.00     0.052 C 
HETATM   17  C   UNK N   1      31.541  15.935   8.574  0.00  0.00     0.215 A 
HETATM   18  N   UNK N   1      31.503  15.966   7.161  0.00  0.00    -0.327 N 
HETATM   19  S   UNK N   1      32.544  15.161   9.239  0.00  0.00    -0.033 SA
HETATM   20  H   UNK N   1      32.149  15.443   6.632  0.00  0.00     0.169 HD
HETATM   21  C   UNK N   1      30.414  16.733   5.128  0.00  0.00     0.031 A 
HETATM   22  C   UNK N   1      29.393  17.466   4.522  0.00  0.00     0.016 A 
ENDBRANCH   1   9
TORSDOF 1
ENDMDL
MODEL 7
REMARK VINA RESULT:      -6.7     14.424     15.997
REMARK  1 active torsions:
REMARK  status: ('A' for Active; 'I' for Inactive)
REMARK    1  A    between atoms: C_5  and  C_13 
ROOT
HETATM    1  C   UNK N   1      25.948  25.616  -7.425  0.00  0.00     0.045 A 
HETATM    2  C   UNK N   1      25.867  26.172  -8.698  0.00  0.00     0.033 A 
HETATM    3  C   UNK N   1      25.712  25.108  -9.572  0.00  0.00     0.043 A 
HETATM    4  C   UNK N   1      25.711  23.972  -8.782  0.00  0.00     0.116 A 
HETATM    5  N   UNK N   1      25.845  24.287  -7.492  0.00  0.00    -0.342 N 
HETATM    6  C   UNK N   1      25.876  23.332  -6.392  0.00  0.00     0.157 C 
HETATM    7  C   UNK N   1      25.603  22.621  -9.229  0.00  0.00     0.117 C 
HETATM    8  N   UNK N   1      25.519  21.509  -9.525  0.00  0.00    -0.190 NA
ENDROOT
BRANCH   1   9
HETATM    9  C   UNK N   1      26.079  26.383  -6.196  0.00  0.00    -0.009 A 
HETATM   10  C   UNK N   1      27.356  26.644  -5.755  0.00  0.00     0.026 A 
HETATM   11  C   UNK N   1      27.576  27.492  -4.692  0.00  0.00     0.004 A 
HETATM   12  C   UNK N   1      28.996  27.812  -4.319  0.00  0.00     0.092 A 
HETATM   13  C   UNK N   1      26.486  28.080  -4.034  0.00  0.00     0.044 A 
HETATM   14  C   UNK N   1      29.680  26.554  -3.811  0.00  0.00     0.052 C 
HETATM   15  O   UNK N   1      29.097  28.782  -3.334  0.00  0.00    -0.311 OA
HETATM   16  C   UNK N   1      29.730  28.286  -5.568  0.00  0.00     0.052 C 
HETATM   17  C   UNK N   1      28.051  29.330  -2.660  0.00  0.00     0.215 A 
HETATM   18  N   UNK N   1      26.719  28.983  -2.986  0.00  0.00    -0.327 N 
HETATM   19  S   UNK N   1      28.305  30.228  -1.575  0.00  0.00    -0.033 SA
HETATM   20  H   UNK N   1      25.966  29.370  -2.483  0.00  0.00     0.169 HD
HETATM   21  C   UNK N   1      25.180  27.785  -4.434  0.00  0.00     0.031 A 
HETATM   22  C   UNK N   1      24.977  26.940  -5.526  0.00  0.00     0.016 A 
ENDBRANCH   1   9
TORSDOF 1
ENDMDL
MODEL 8
REMARK VINA RESULT:      -6.6      2.058      2.432
REMARK  1 active torsions:
REMARK  status: ('A' for Active; 'I' for Inactive)
REMARK    1  A    between atoms: C_5  and  C_13 
ROOT
HETATM    1  C   UNK N   1      28.416  17.560   5.354  0.00  0.00     0.045 A 
HETATM    2  C   UNK N   1      28.117  18.784   4.764  0.00  0.00     0.033 A 
HETATM    3  C   UNK N   1      27.112  18.531   3.844  0.00  0.00     0.043 A 
HETATM    4  C   UNK N   1      26.861  17.172   3.929  0.00  0.00     0.116 A 
HETATM    5  N   UNK N   1      27.643  16.598   4.845  0.00  0.00    -0.342 N 
HETATM    6  C   UNK N   1      27.634  15.182   5.191  0.00  0.00     0.157 C 
HETATM    7  C   UNK N   1      25.920  16.428   3.156  0.00  0.00     0.117 C 
HETATM    8  N   UNK N   1      25.179  15.770   2.566  0.00  0.00    -0.190 NA
ENDROOT
BRANCH   1   9
HETATM    9  C   UNK N   1      29.398  17.370   6.411  0.00  0.00    -0.009 A 
HETATM   10  C   UNK N   1      30.648  16.940   6.032  0.00  0.00     0.026 A 
HETATM   11  C   UNK N   1      31.682  16.885   6.941  0.00  0.00     0.004 A 
HETATM   12  C   UNK N   1      33.046  16.498   6.445  0.00  0.00     0.092 A 
HETATM   13  C   UNK N   1      31.454  17.250   8.276  0.00  0.00     0.044 A 
HETATM   14  C   UNK N   1      33.021  15.055   5.973  0.00  0.00     0.052 C 
HETATM   15  O   UNK N   1      34.033  16.615   7.412  0.00  0.00    -0.311 OA
HETATM   16  C   UNK N   1      33.400  17.385   5.258  0.00  0.00     0.052 C 
HETATM   17  C   UNK N   1      33.821  16.928   8.719  0.00  0.00     0.215 A 
HETATM   18  N   UNK N   1      32.523  17.241   9.185  0.00  0.00    -0.327 N 
HETATM   19  S   UNK N   1      34.915  16.888   9.640  0.00  0.00    -0.033 SA
HETATM   20  H   UNK N   1      32.371  17.450  10.136  0.00  0.00     0.169 HD
HETATM   21  C   UNK N   1      30.177  17.639   8.691  0.00  0.00     0.031 A 
HETATM   22  C   UNK N   1      29.148  17.709   7.751  0.00  0.00     0.016 A 
ENDBRANCH   1   9
TORSDOF 1
ENDMDL
MODEL 9
REMARK VINA RESULT:      -6.5      8.331     11.861
REMARK  1 active torsions:
REMARK  status: ('A' for Active; 'I' for Inactive)
REMARK    1  A    between atoms: C_5  and  C_13 
ROOT
HETATM    1  C   UNK N   1      36.479  14.068  15.142  0.00  0.00     0.045 A 
HETATM    2  C   UNK N   1      37.215  15.141  15.636  0.00  0.00     0.033 A 
HETATM    3  C   UNK N   1      36.917  15.221  16.986  0.00  0.00     0.043 A 
HETATM    4  C   UNK N   1      36.019  14.196  17.232  0.00  0.00     0.116 A 
HETATM    5  N   UNK N   1      35.767  13.503  16.120  0.00  0.00    -0.342 N 
HETATM    6  C   UNK N   1      34.873  12.357  16.027  0.00  0.00     0.157 C 
HETATM    7  C   UNK N   1      35.399  13.886  18.479  0.00  0.00     0.117 C 
HETATM    8  N   UNK N   1      34.865  13.583  19.457  0.00  0.00    -0.190 NA
ENDROOT
BRANCH   1   9
HETATM    9  C   UNK N   1      36.521  13.602  13.764  0.00  0.00    -0.009 A 
HETATM   10  C   UNK N   1      35.876  14.374  12.824  0.00  0.00     0.026 A 
HETATM   11  C   UNK N   1      35.996  14.097  11.480  0.00  0.00     0.004 A 
HETATM   12  C   UNK N   1      35.346  15.031  10.499  0.00  0.00     0.092 A 
HETATM   13  C   UNK N   1      36.765  13.000  11.063  0.00  0.00     0.044 A 
HETATM   14  C   UNK N   1      33.837  14.961  10.660  0.00  0.00     0.052 C 
HETATM   15  O   UNK N   1      35.651  14.737   9.180  0.00  0.00    -0.311 OA
HETATM   16  C   UNK N   1      35.797  16.453  10.814  0.00  0.00     0.052 C 
HETATM   17  C   UNK N   1      36.360  13.656   8.758  0.00  0.00     0.215 A 
HETATM   18  N   UNK N   1      36.925  12.754   9.690  0.00  0.00    -0.327 N 
HETATM   19  S   UNK N   1      36.492  13.402   7.357  0.00  0.00    -0.033 SA
HETATM   20  H   UNK N   1      37.424  11.963   9.380  0.00  0.00     0.169 HD
HETATM   21  C   UNK N   1      37.384  12.174  12.005  0.00  0.00     0.031 A 
HETATM   22  C   UNK N   1      37.268  12.484  13.361  0.00  0.00     0.016 A 
ENDBRANCH   1   9
TORSDOF 1
ENDMDL
