MODEL 1
REMARK VINA RESULT:      -4.8      0.000      0.000
REMARK  2 active torsions:
REMARK  status: ('A' for Active; 'I' for Inactive)
REMARK    1  A    between atoms: C_4  and  C_7 
REMARK    2  A    between atoms: C_4  and  O_10 
ROOT
HETATM    1  C   UNK N   1      36.221  14.594  17.181  0.00  0.00    -0.087 C 
HETATM    2  C   UNK N   1      35.388  13.797  17.873  0.00  0.00    -0.021 C 
HETATM    3  C   UNK N   1      34.937  12.451  17.366  0.00  0.00     0.065 C 
HETATM    4  C   UNK N   1      35.110  12.290  15.848  0.00  0.00     0.064 C 
HETATM    5  C   UNK N   1      36.519  12.739  15.461  0.00  0.00     0.042 C 
HETATM    6  C   UNK N   1      36.775  14.203  15.832  0.00  0.00     0.036 C 
HETATM    7  C   UNK N   1      36.590  15.919  17.749  0.00  0.00     0.043 C 
ENDROOT
BRANCH   4   8
HETATM    8  C   UNK N   1      34.905  10.826  15.414  0.00  0.00     0.012 C 
HETATM    9  C   UNK N   1      34.823   9.867  16.596  0.00  0.00     0.012 C 
HETATM   10  C   UNK N   1      33.677  10.643  14.536  0.00  0.00     0.012 C 
ENDBRANCH   4   8
BRANCH   4  11
HETATM   11  O   UNK N   1      34.180  13.096  15.184  0.00  0.00    -0.389 OA
HETATM   12  H   UNK N   1      33.849  14.008  15.216  0.00  0.00     0.210 HD
ENDBRANCH   4  11
TORSDOF 2
ENDMDL
MODEL 2
REMARK VINA RESULT:      -4.7     26.128     27.149
REMARK  2 active torsions:
REMARK  status: ('A' for Active; 'I' for Inactive)
REMARK    1  A    between atoms: C_4  and  C_7 
REMARK    2  A    between atoms: C_4  and  O_10 
ROOT
HETATM    1  C   UNK N   1      26.012  25.315  -4.971  0.00  0.00    -0.087 C 
HETATM    2  C   UNK N   1      25.238  26.253  -5.544  0.00  0.00    -0.021 C 
HETATM    3  C   UNK N   1      25.432  27.728  -5.303  0.00  0.00     0.065 C 
HETATM    4  C   UNK N   1      26.232  28.031  -4.027  0.00  0.00     0.064 C 
HETATM    5  C   UNK N   1      27.486  27.156  -4.011  0.00  0.00     0.042 C 
HETATM    6  C   UNK N   1      27.143  25.664  -4.035  0.00  0.00     0.036 C 
HETATM    7  C   UNK N   1      25.728  23.879  -5.247  0.00  0.00     0.043 C 
ENDROOT
BRANCH   4   8
HETATM    8  C   UNK N   1      26.645  29.514  -3.964  0.00  0.00     0.012 C 
HETATM    9  C   UNK N   1      27.357  29.871  -2.665  0.00  0.00     0.012 C 
HETATM   10  C   UNK N   1      27.514  29.929  -5.140  0.00  0.00     0.012 C 
ENDBRANCH   4   8
BRANCH   4  11
HETATM   11  O   UNK N   1      25.455  27.726  -2.905  0.00  0.00    -0.389 OA
HETATM   12  H   UNK N   1      24.734  28.119  -2.386  0.00  0.00     0.210 HD
ENDBRANCH   4  11
TORSDOF 2
ENDMDL
MODEL 3
REMARK VINA RESULT:      -4.7      1.513      2.979
REMARK  2 active torsions:
REMARK  status: ('A' for Active; 'I' for Inactive)
REMARK    1  A    between atoms: C_4  and  C_7 
REMARK    2  A    between atoms: C_4  and  O_10 
ROOT
HETATM    1  C   UNK N   1      35.319  12.424  18.436  0.00  0.00    -0.087 C 
HETATM    2  C   UNK N   1      35.560  11.326  17.698  0.00  0.00    -0.021 C 
HETATM    3  C   UNK N   1      35.871  11.386  16.224  0.00  0.00     0.065 C 
HETATM    4  C   UNK N   1      35.426  12.702  15.568  0.00  0.00     0.064 C 
HETATM    5  C   UNK N   1      35.910  13.871  16.426  0.00  0.00     0.042 C 
HETATM    6  C   UNK N   1      35.340  13.813  17.847  0.00  0.00     0.036 C 
HETATM    7  C   UNK N   1      34.994  12.264  19.881  0.00  0.00     0.043 C 
ENDROOT
BRANCH   4   8
HETATM    8  C   UNK N   1      36.002  12.841  14.146  0.00  0.00     0.012 C 
HETATM    9  C   UNK N   1      36.369  14.279  13.798  0.00  0.00     0.012 C 
HETATM   10  C   UNK N   1      37.210  11.947  13.916  0.00  0.00     0.012 C 
ENDBRANCH   4   8
BRANCH   4  11
HETATM   11  O   UNK N   1      34.029  12.741  15.499  0.00  0.00    -0.389 OA
HETATM   12  H   UNK N   1      33.264  12.560  16.069  0.00  0.00     0.210 HD
ENDBRANCH   4  11
TORSDOF 2
ENDMDL
MODEL 4
REMARK VINA RESULT:      -4.7      1.757      2.749
REMARK  2 active torsions:
REMARK  status: ('A' for Active; 'I' for Inactive)
REMARK    1  A    between atoms: C_4  and  C_7 
REMARK    2  A    between atoms: C_4  and  O_10 
ROOT
HETATM    1  C   UNK N   1      35.195  12.193  18.278  0.00  0.00    -0.087 C 
HETATM    2  C   UNK N   1      34.986  13.204  17.417  0.00  0.00    -0.021 C 
HETATM    3  C   UNK N   1      34.852  12.995  15.930  0.00  0.00     0.065 C 
HETATM    4  C   UNK N   1      35.436  11.656  15.454  0.00  0.00     0.064 C 
HETATM    5  C   UNK N   1      34.916  10.540  16.360  0.00  0.00     0.042 C 
HETATM    6  C   UNK N   1      35.314  10.759  17.823  0.00  0.00     0.036 C 
HETATM    7  C   UNK N   1      35.342  12.499  19.727  0.00  0.00     0.043 C 
ENDROOT
BRANCH   4   8
HETATM    8  C   UNK N   1      35.036  11.357  13.997  0.00  0.00     0.012 C 
HETATM    9  C   UNK N   1      33.712  10.609  13.892  0.00  0.00     0.012 C 
HETATM   10  C   UNK N   1      34.971  12.611  13.140  0.00  0.00     0.012 C 
ENDBRANCH   4   8
BRANCH   4  11
HETATM   11  O   UNK N   1      36.832  11.698  15.544  0.00  0.00    -0.389 OA
HETATM   12  H   UNK N   1      37.561  12.296  15.315  0.00  0.00     0.210 HD
ENDBRANCH   4  11
TORSDOF 2
ENDMDL
MODEL 5
REMARK VINA RESULT:      -4.6     12.783     13.880
REMARK  2 active torsions:
REMARK  status: ('A' for Active; 'I' for Inactive)
REMARK    1  A    between atoms: C_4  and  C_7 
REMARK    2  A    between atoms: C_4  and  O_10 
ROOT
HETATM    1  C   UNK N   1      27.407  19.683   4.725  0.00  0.00    -0.087 C 
HETATM    2  C   UNK N   1      27.304  20.216   5.954  0.00  0.00    -0.021 C 
HETATM    3  C   UNK N   1      27.927  19.584   7.173  0.00  0.00     0.065 C 
HETATM    4  C   UNK N   1      28.255  18.095   6.978  0.00  0.00     0.064 C 
HETATM    5  C   UNK N   1      28.996  17.922   5.652  0.00  0.00     0.042 C 
HETATM    6  C   UNK N   1      28.159  18.401   4.462  0.00  0.00     0.036 C 
HETATM    7  C   UNK N   1      26.734  20.364   3.584  0.00  0.00     0.043 C 
ENDROOT
BRANCH   4   8
HETATM    8  C   UNK N   1      29.134  17.562   8.125  0.00  0.00     0.012 C 
HETATM    9  C   UNK N   1      30.574  17.307   7.695  0.00  0.00     0.012 C 
HETATM   10  C   UNK N   1      29.129  18.477   9.339  0.00  0.00     0.012 C 
ENDBRANCH   4   8
BRANCH   4  11
HETATM   11  O   UNK N   1      27.068  17.357   6.932  0.00  0.00    -0.389 OA
HETATM   12  H   UNK N   1      26.683  16.567   7.343  0.00  0.00     0.210 HD
ENDBRANCH   4  11
TORSDOF 2
ENDMDL
MODEL 6
REMARK VINA RESULT:      -4.5     10.128     11.117
REMARK  2 active torsions:
REMARK  status: ('A' for Active; 'I' for Inactive)
REMARK    1  A    between atoms: C_4  and  C_7 
REMARK    2  A    between atoms: C_4  and  O_10 
ROOT
HETATM    1  C   UNK N   1      29.376  17.791   8.323  0.00  0.00    -0.087 C 
HETATM    2  C   UNK N   1      30.395  18.326   9.018  0.00  0.00    -0.021 C 
HETATM    3  C   UNK N   1      31.834  18.192   8.590  0.00  0.00     0.065 C 
HETATM    4  C   UNK N   1      32.066  17.032   7.609  0.00  0.00     0.064 C 
HETATM    5  C   UNK N   1      31.017  17.106   6.499  0.00  0.00     0.042 C 
HETATM    6  C   UNK N   1      29.592  17.008   7.051  0.00  0.00     0.036 C 
HETATM    7  C   UNK N   1      27.989  17.952   8.838  0.00  0.00     0.043 C 
ENDROOT
BRANCH   4   8
HETATM    8  C   UNK N   1      33.473  17.098   6.986  0.00  0.00     0.012 C 
HETATM    9  C   UNK N   1      33.445  17.468   5.508  0.00  0.00     0.012 C 
HETATM   10  C   UNK N   1      34.393  18.058   7.723  0.00  0.00     0.012 C 
ENDBRANCH   4   8
BRANCH   4  11
HETATM   11  O   UNK N   1      31.923  15.814   8.284  0.00  0.00    -0.389 OA
HETATM   12  H   UNK N   1      31.533  14.938   8.135  0.00  0.00     0.210 HD
ENDBRANCH   4  11
TORSDOF 2
ENDMDL
MODEL 7
REMARK VINA RESULT:      -4.5     13.072     14.249
REMARK  2 active torsions:
REMARK  status: ('A' for Active; 'I' for Inactive)
REMARK    1  A    between atoms: C_4  and  C_7 
REMARK    2  A    between atoms: C_4  and  O_10 
ROOT
HETATM    1  C   UNK N   1      29.752  17.441   6.834  0.00  0.00    -0.087 C 
HETATM    2  C   UNK N   1      29.584  17.628   5.513  0.00  0.00    -0.021 C 
HETATM    3  C   UNK N   1      28.572  18.591   4.947  0.00  0.00     0.065 C 
HETATM    4  C   UNK N   1      27.466  18.960   5.948  0.00  0.00     0.064 C 
HETATM    5  C   UNK N   1      28.112  19.337   7.281  0.00  0.00     0.042 C 
HETATM    6  C   UNK N   1      28.937  18.186   7.863  0.00  0.00     0.036 C 
HETATM    7  C   UNK N   1      30.758  16.447   7.300  0.00  0.00     0.043 C 
ENDROOT
BRANCH   4   8
HETATM    8  C   UNK N   1      26.623  20.144   5.438  0.00  0.00     0.012 C 
HETATM    9  C   UNK N   1      26.966  21.455   6.135  0.00  0.00     0.012 C 
HETATM   10  C   UNK N   1      26.733  20.334   3.933  0.00  0.00     0.012 C 
ENDBRANCH   4   8
BRANCH   4  11
HETATM   11  O   UNK N   1      26.630  17.857   6.146  0.00  0.00    -0.389 OA
HETATM   12  H   UNK N   1      26.257  17.121   5.635  0.00  0.00     0.210 HD
ENDBRANCH   4  11
TORSDOF 2
ENDMDL
MODEL 8
REMARK VINA RESULT:      -4.4     13.842     15.948
REMARK  2 active torsions:
REMARK  status: ('A' for Active; 'I' for Inactive)
REMARK    1  A    between atoms: C_4  and  C_7 
REMARK    2  A    between atoms: C_4  and  O_10 
ROOT
HETATM    1  C   UNK N   1      22.529  12.582  10.719  0.00  0.00    -0.087 C 
HETATM    2  C   UNK N   1      23.296  13.076   9.731  0.00  0.00    -0.021 C 
HETATM    3  C   UNK N   1      22.730  13.853   8.569  0.00  0.00     0.065 C 
HETATM    4  C   UNK N   1      21.225  13.620   8.365  0.00  0.00     0.064 C 
HETATM    5  C   UNK N   1      20.515  13.770   9.710  0.00  0.00     0.042 C 
HETATM    6  C   UNK N   1      21.032  12.766  10.745  0.00  0.00     0.036 C 
HETATM    7  C   UNK N   1      23.174  11.803  11.811  0.00  0.00     0.043 C 
ENDROOT
BRANCH   4   8
HETATM    8  C   UNK N   1      20.635  14.629   7.362  0.00  0.00     0.012 C 
HETATM    9  C   UNK N   1      21.538  15.837   7.141  0.00  0.00     0.012 C 
HETATM   10  C   UNK N   1      20.310  13.996   6.019  0.00  0.00     0.012 C 
ENDBRANCH   4   8
BRANCH   4  11
HETATM   11  O   UNK N   1      21.014  12.324   7.884  0.00  0.00    -0.389 OA
HETATM   12  H   UNK N   1      20.306  11.660   7.861  0.00  0.00     0.210 HD
ENDBRANCH   4  11
TORSDOF 2
ENDMDL
MODEL 9
REMARK VINA RESULT:      -4.3      2.073      2.957
REMARK  2 active torsions:
REMARK  status: ('A' for Active; 'I' for Inactive)
REMARK    1  A    between atoms: C_4  and  C_7 
REMARK    2  A    between atoms: C_4  and  O_10 
ROOT
HETATM    1  C   UNK N   1      35.275  12.946  16.037  0.00  0.00    -0.087 C 
HETATM    2  C   UNK N   1      34.228  12.155  15.746  0.00  0.00    -0.021 C 
HETATM    3  C   UNK N   1      34.084  11.445  14.424  0.00  0.00     0.065 C 
HETATM    4  C   UNK N   1      34.945  12.063  13.312  0.00  0.00     0.064 C 
HETATM    5  C   UNK N   1      36.366  12.263  13.840  0.00  0.00     0.042 C 
HETATM    6  C   UNK N   1      36.398  13.189  15.059  0.00  0.00     0.036 C 
HETATM    7  C   UNK N   1      35.318  13.628  17.360  0.00  0.00     0.043 C 
ENDROOT
BRANCH   4   8
HETATM    8  C   UNK N   1      34.987  11.156  12.067  0.00  0.00     0.012 C 
HETATM    9  C   UNK N   1      33.973  10.019  12.133  0.00  0.00     0.012 C 
HETATM   10  C   UNK N   1      34.787  11.929  10.774  0.00  0.00     0.012 C 
ENDBRANCH   4   8
BRANCH   4  11
HETATM   11  O   UNK N   1      34.418  13.308  12.950  0.00  0.00    -0.389 OA
HETATM   12  H   UNK N   1      34.734  14.172  12.640  0.00  0.00     0.210 HD
ENDBRANCH   4  11
TORSDOF 2
ENDMDL
