MODEL 1
REMARK VINA RESULT:      -6.6      0.000      0.000
REMARK  7 active torsions:
REMARK  status: ('A' for Active; 'I' for Inactive)
REMARK       I    between atoms: N_1  and  C_2 
REMARK       I    between atoms: N_1  and  C_24 
REMARK    1  A    between atoms: C_2  and  O_4 
REMARK    2  A    between atoms: C_5  and  O_4 
REMARK    3  A    between atoms: C_15  and  C_11 
REMARK    4  A    between atoms: C_12  and  O_13 
REMARK    5  A    between atoms: C_17  and  C_18 
REMARK    6  A    between atoms: C_18  and  C_19 
REMARK    7  A    between atoms: C_24  and  C_26 
ROOT
HETATM    1  C   UNK N   1      21.103  14.007   8.028  0.00  0.00     0.163 C 
HETATM    2  C   UNK N   1      20.819  13.046   6.849  0.00  0.00     0.038 C 
HETATM    3  C   UNK N   1      21.378  13.501   5.495  0.00  0.00     0.043 C 
HETATM    4  C   UNK N   1      22.317  14.685   5.642  0.00  0.00     0.091 A 
HETATM    5  O   UNK N   1      23.639  14.257   5.870  0.00  0.00    -0.374 OA
HETATM    6  C   UNK N   1      23.371  14.843   4.617  0.00  0.00     0.207 A 
HETATM    7  C   UNK N   1      21.923  15.888   6.541  0.00  0.00     0.091 C 
HETATM    8  C   UNK N   1      20.874  15.497   7.642  0.00  0.00     0.160 C 
ENDROOT
BRANCH   1   9
HETATM    9  O   UNK N   1      20.390  13.599   9.142  0.00  0.00    -0.296 OA
BRANCH   9  10
HETATM   10  C   UNK N   1      21.018  12.974  10.180  0.00  0.00     0.367 C 
HETATM   11  N   UNK N   1      22.374  12.803  10.133  0.00  0.00    -0.272 N 
HETATM   12  C   UNK N   1      23.168  12.280  11.097  0.00  0.00     0.239 C 
HETATM   13  H   UNK N   1      22.822  13.093   9.305  0.00  0.00     0.174 HD
HETATM   14  O   UNK N   1      22.711  11.897  12.164  0.00  0.00    -0.272 OA
HETATM   15  O   UNK N   1      20.370  12.609  11.147  0.00  0.00    -0.238 OA
BRANCH  12  16
HETATM   16  C   UNK N   1      24.637  12.214  10.848  0.00  0.00     0.217 C 
HETATM   17 Cl   UNK N   1      25.086  13.345   9.548  0.00  0.00    -0.121 Cl
ENDBRANCH  12  16
ENDBRANCH   9  10
ENDBRANCH   1   9
BRANCH   8  18
HETATM   18  O   UNK N   1      19.524  15.866   7.395  0.00  0.00    -0.388 OA
HETATM   19  C   UNK N   1      19.031  16.767   8.343  0.00  0.00     0.202 C 
ENDBRANCH   8  18
BRANCH   7  20
HETATM   20  C   UNK N   1      21.619  17.113   5.650  0.00  0.00     0.093 A 
HETATM   21  O   UNK N   1      21.629  18.403   6.212  0.00  0.00    -0.369 OA
HETATM   22  C   UNK N   1      22.801  18.009   5.527  0.00  0.00     0.160 A 
HETATM   23  C   UNK N   1      20.609  17.031   4.510  0.00  0.00     0.049 C 
BRANCH  22  24
HETATM   24  C   UNK N   1      23.034  18.692   4.186  0.00  0.00     0.062 C 
BRANCH  24  25
HETATM   25  C   UNK N   1      24.360  19.423   4.181  0.00  0.00    -0.022 C 
HETATM   26  C   UNK N   1      25.546  18.898   3.815  0.00  0.00    -0.091 C 
HETATM   27  C   UNK N   1      26.765  19.751   3.868  0.00  0.00     0.042 C 
HETATM   28  C   UNK N   1      25.695  17.489   3.338  0.00  0.00     0.042 C 
ENDBRANCH  24  25
ENDBRANCH  22  24
ENDBRANCH   7  20
TORSDOF 7
ENDMDL
MODEL 2
REMARK VINA RESULT:      -6.5      2.685      4.566
REMARK  7 active torsions:
REMARK  status: ('A' for Active; 'I' for Inactive)
REMARK       I    between atoms: N_1  and  C_2 
REMARK       I    between atoms: N_1  and  C_24 
REMARK    1  A    between atoms: C_2  and  O_4 
REMARK    2  A    between atoms: C_5  and  O_4 
REMARK    3  A    between atoms: C_15  and  C_11 
REMARK    4  A    between atoms: C_12  and  O_13 
REMARK    5  A    between atoms: C_17  and  C_18 
REMARK    6  A    between atoms: C_18  and  C_19 
REMARK    7  A    between atoms: C_24  and  C_26 
ROOT
HETATM    1  C   UNK N   1      20.789  16.051   7.305  0.00  0.00     0.163 C 
HETATM    2  C   UNK N   1      21.011  17.540   6.945  0.00  0.00     0.038 C 
HETATM    3  C   UNK N   1      20.911  17.864   5.448  0.00  0.00     0.043 C 
HETATM    4  C   UNK N   1      20.362  16.694   4.654  0.00  0.00     0.091 A 
HETATM    5  O   UNK N   1      18.956  16.734   4.599  0.00  0.00    -0.374 OA
HETATM    6  C   UNK N   1      19.643  17.006   3.400  0.00  0.00     0.207 A 
HETATM    7  C   UNK N   1      20.902  15.259   4.900  0.00  0.00     0.091 C 
HETATM    8  C   UNK N   1      21.530  15.092   6.330  0.00  0.00     0.160 C 
ENDROOT
BRANCH   1   9
HETATM    9  O   UNK N   1      21.097  15.846   8.639  0.00  0.00    -0.296 OA
BRANCH   9  10
HETATM   10  C   UNK N   1      20.703  14.706   9.277  0.00  0.00     0.367 C 
HETATM   11  N   UNK N   1      21.652  13.835   9.733  0.00  0.00    -0.272 N 
HETATM   12  C   UNK N   1      21.451  12.703  10.450  0.00  0.00     0.239 C 
HETATM   13  H   UNK N   1      22.587  14.055   9.516  0.00  0.00     0.174 HD
HETATM   14  O   UNK N   1      20.329  12.346  10.777  0.00  0.00    -0.272 OA
HETATM   15  O   UNK N   1      19.515  14.498   9.463  0.00  0.00    -0.238 OA
BRANCH  12  16
HETATM   16  C   UNK N   1      22.640  11.910  10.874  0.00  0.00     0.217 C 
HETATM   17 Cl   UNK N   1      22.766  11.903  12.650  0.00  0.00    -0.121 Cl
ENDBRANCH  12  16
ENDBRANCH   9  10
ENDBRANCH   1   9
BRANCH   8  18
HETATM   18  O   UNK N   1      22.949  15.114   6.408  0.00  0.00    -0.388 OA
HETATM   19  C   UNK N   1      23.489  13.869   6.743  0.00  0.00     0.202 C 
ENDBRANCH   8  18
BRANCH   7  20
HETATM   20  C   UNK N   1      21.739  14.811   3.681  0.00  0.00     0.093 A 
HETATM   21  O   UNK N   1      22.072  13.453   3.525  0.00  0.00    -0.369 OA
HETATM   22  C   UNK N   1      20.962  13.917   2.782  0.00  0.00     0.160 A 
HETATM   23  C   UNK N   1      22.834  15.703   3.104  0.00  0.00     0.049 C 
BRANCH  22  24
HETATM   24  C   UNK N   1      21.192  14.050   1.282  0.00  0.00     0.062 C 
BRANCH  24  25
HETATM   25  C   UNK N   1      21.775  12.773   0.715  0.00  0.00    -0.022 C 
HETATM   26  C   UNK N   1      23.029  12.624   0.240  0.00  0.00    -0.091 C 
HETATM   27  C   UNK N   1      23.451  11.297  -0.288  0.00  0.00     0.042 C 
HETATM   28  C   UNK N   1      24.029  13.734   0.234  0.00  0.00     0.042 C 
ENDBRANCH  24  25
ENDBRANCH  22  24
ENDBRANCH   7  20
TORSDOF 7
ENDMDL
MODEL 3
REMARK VINA RESULT:      -6.5     12.337     16.817
REMARK  7 active torsions:
REMARK  status: ('A' for Active; 'I' for Inactive)
REMARK       I    between atoms: N_1  and  C_2 
REMARK       I    between atoms: N_1  and  C_24 
REMARK    1  A    between atoms: C_2  and  O_4 
REMARK    2  A    between atoms: C_5  and  O_4 
REMARK    3  A    between atoms: C_15  and  C_11 
REMARK    4  A    between atoms: C_12  and  O_13 
REMARK    5  A    between atoms: C_17  and  C_18 
REMARK    6  A    between atoms: C_18  and  C_19 
REMARK    7  A    between atoms: C_24  and  C_26 
ROOT
HETATM    1  C   UNK N   1      35.634  14.050  12.697  0.00  0.00     0.163 C 
HETATM    2  C   UNK N   1      36.500  13.223  11.717  0.00  0.00     0.038 C 
HETATM    3  C   UNK N   1      36.549  11.718  12.009  0.00  0.00     0.043 C 
HETATM    4  C   UNK N   1      35.529  11.314  13.058  0.00  0.00     0.091 A 
HETATM    5  O   UNK N   1      34.290  11.002  12.465  0.00  0.00    -0.374 OA
HETATM    6  C   UNK N   1      35.021   9.927  13.007  0.00  0.00     0.207 A 
HETATM    7  C   UNK N   1      35.367  12.152  14.355  0.00  0.00     0.091 C 
HETATM    8  C   UNK N   1      35.860  13.632  14.179  0.00  0.00     0.160 C 
ENDROOT
BRANCH   1   9
HETATM    9  O   UNK N   1      35.824  15.400  12.458  0.00  0.00    -0.296 OA
BRANCH   9  10
HETATM   10  C   UNK N   1      35.636  15.919  11.210  0.00  0.00     0.367 C 
HETATM   11  N   UNK N   1      34.410  15.801  10.617  0.00  0.00    -0.272 N 
HETATM   12  C   UNK N   1      34.021  16.318   9.427  0.00  0.00     0.239 C 
HETATM   13  H   UNK N   1      33.734  15.282  11.111  0.00  0.00     0.174 HD
HETATM   14  O   UNK N   1      34.783  16.983   8.740  0.00  0.00    -0.272 OA
HETATM   15  O   UNK N   1      36.549  16.511  10.657  0.00  0.00    -0.238 OA
BRANCH  12  16
HETATM   16  C   UNK N   1      32.617  16.092   8.979  0.00  0.00     0.217 C 
HETATM   17 Cl   UNK N   1      31.924  17.610   8.357  0.00  0.00    -0.121 Cl
ENDBRANCH  12  16
ENDBRANCH   9  10
ENDBRANCH   1   9
BRANCH   8  18
HETATM   18  O   UNK N   1      37.138  13.945  14.717  0.00  0.00    -0.388 OA
HETATM   19  C   UNK N   1      37.080  14.941  15.696  0.00  0.00     0.202 C 
ENDBRANCH   8  18
BRANCH   7  20
HETATM   20  C   UNK N   1      35.907  11.343  15.556  0.00  0.00     0.093 A 
HETATM   21  O   UNK N   1      35.747  11.843  16.861  0.00  0.00    -0.369 OA
HETATM   22  C   UNK N   1      34.807  10.874  16.441  0.00  0.00     0.160 A 
HETATM   23  C   UNK N   1      37.192  10.528  15.446  0.00  0.00     0.049 C 
BRANCH  22  24
HETATM   24  C   UNK N   1      34.954   9.501  17.083  0.00  0.00     0.062 C 
BRANCH  24  25
HETATM   25  C   UNK N   1      34.457   9.524  18.513  0.00  0.00    -0.022 C 
HETATM   26  C   UNK N   1      35.227   9.678  19.610  0.00  0.00    -0.091 C 
HETATM   27  C   UNK N   1      34.583   9.676  20.953  0.00  0.00     0.042 C 
HETATM   28  C   UNK N   1      36.707   9.867  19.540  0.00  0.00     0.042 C 
ENDBRANCH  24  25
ENDBRANCH  22  24
ENDBRANCH   7  20
TORSDOF 7
ENDMDL
MODEL 4
REMARK VINA RESULT:      -6.5      9.671     12.891
REMARK  7 active torsions:
REMARK  status: ('A' for Active; 'I' for Inactive)
REMARK       I    between atoms: N_1  and  C_2 
REMARK       I    between atoms: N_1  and  C_24 
REMARK    1  A    between atoms: C_2  and  O_4 
REMARK    2  A    between atoms: C_5  and  O_4 
REMARK    3  A    between atoms: C_15  and  C_11 
REMARK    4  A    between atoms: C_12  and  O_13 
REMARK    5  A    between atoms: C_17  and  C_18 
REMARK    6  A    between atoms: C_18  and  C_19 
REMARK    7  A    between atoms: C_24  and  C_26 
ROOT
HETATM    1  C   UNK N   1      32.394  15.827   7.129  0.00  0.00     0.163 C 
HETATM    2  C   UNK N   1      32.988  14.765   6.173  0.00  0.00     0.038 C 
HETATM    3  C   UNK N   1      33.759  13.634   6.864  0.00  0.00     0.043 C 
HETATM    4  C   UNK N   1      33.564  13.656   8.369  0.00  0.00     0.091 A 
HETATM    5  O   UNK N   1      32.434  12.905   8.744  0.00  0.00    -0.374 OA
HETATM    6  C   UNK N   1      33.691  12.369   9.085  0.00  0.00     0.207 A 
HETATM    7  C   UNK N   1      33.671  14.992   9.152  0.00  0.00     0.091 C 
HETATM    8  C   UNK N   1      33.396  16.244   8.244  0.00  0.00     0.160 C 
ENDROOT
BRANCH   1   9
HETATM    9  O   UNK N   1      31.899  16.890   6.392  0.00  0.00    -0.296 OA
BRANCH   9  10
HETATM   10  C   UNK N   1      30.562  17.160   6.373  0.00  0.00     0.367 C 
HETATM   11  N   UNK N   1      29.887  17.273   7.557  0.00  0.00    -0.272 N 
HETATM   12  C   UNK N   1      28.587  17.611   7.731  0.00  0.00     0.239 C 
HETATM   13  H   UNK N   1      30.404  17.087   8.374  0.00  0.00     0.174 HD
HETATM   14  O   UNK N   1      27.861  17.868   6.782  0.00  0.00    -0.272 OA
HETATM   15  O   UNK N   1      29.995  17.333   5.306  0.00  0.00    -0.238 OA
BRANCH  12  16
HETATM   16  C   UNK N   1      28.058  17.705   9.122  0.00  0.00     0.217 C 
HETATM   17 Cl   UNK N   1      29.237  17.022  10.269  0.00  0.00    -0.121 Cl
ENDBRANCH  12  16
ENDBRANCH   9  10
ENDBRANCH   1   9
BRANCH   8  18
HETATM   18  O   UNK N   1      34.534  16.974   7.805  0.00  0.00    -0.388 OA
HETATM   19  C   UNK N   1      34.494  18.316   8.193  0.00  0.00     0.202 C 
ENDBRANCH   8  18
BRANCH   7  20
HETATM   20  C   UNK N   1      34.959  14.983  10.006  0.00  0.00     0.093 A 
HETATM   21  O   UNK N   1      35.151  15.971  10.988  0.00  0.00    -0.369 OA
HETATM   22  C   UNK N   1      34.663  14.724  11.441  0.00  0.00     0.160 A 
HETATM   23  C   UNK N   1      36.295  14.544   9.416  0.00  0.00     0.049 C 
BRANCH  22  24
HETATM   24  C   UNK N   1      35.659  13.881  12.227  0.00  0.00     0.062 C 
BRANCH  24  25
HETATM   25  C   UNK N   1      36.191  14.652  13.416  0.00  0.00    -0.022 C 
HETATM   26  C   UNK N   1      36.686  14.109  14.547  0.00  0.00    -0.091 C 
HETATM   27  C   UNK N   1      37.171  15.008  15.631  0.00  0.00     0.042 C 
HETATM   28  C   UNK N   1      36.787  12.634  14.760  0.00  0.00     0.042 C 
ENDBRANCH  24  25
ENDBRANCH  22  24
ENDBRANCH   7  20
TORSDOF 7
ENDMDL
MODEL 5
REMARK VINA RESULT:      -6.4     15.014     17.457
REMARK  7 active torsions:
REMARK  status: ('A' for Active; 'I' for Inactive)
REMARK       I    between atoms: N_1  and  C_2 
REMARK       I    between atoms: N_1  and  C_24 
REMARK    1  A    between atoms: C_2  and  O_4 
REMARK    2  A    between atoms: C_5  and  O_4 
REMARK    3  A    between atoms: C_15  and  C_11 
REMARK    4  A    between atoms: C_12  and  O_13 
REMARK    5  A    between atoms: C_17  and  C_18 
REMARK    6  A    between atoms: C_18  and  C_19 
REMARK    7  A    between atoms: C_24  and  C_26 
ROOT
HETATM    1  C   UNK N   1      28.836  24.405  -4.050  0.00  0.00     0.163 C 
HETATM    2  C   UNK N   1      27.552  24.046  -3.266  0.00  0.00     0.038 C 
HETATM    3  C   UNK N   1      26.268  24.016  -4.106  0.00  0.00     0.043 C 
HETATM    4  C   UNK N   1      26.566  24.101  -5.591  0.00  0.00     0.091 A 
HETATM    5  O   UNK N   1      26.770  22.821  -6.141  0.00  0.00    -0.374 OA
HETATM    6  C   UNK N   1      25.586  23.486  -6.512  0.00  0.00     0.207 A 
HETATM    7  C   UNK N   1      27.585  25.142  -6.127  0.00  0.00     0.091 C 
HETATM    8  C   UNK N   1      28.615  25.593  -5.031  0.00  0.00     0.160 C 
ENDROOT
BRANCH   1   9
HETATM    9  O   UNK N   1      29.883  24.595  -3.164  0.00  0.00    -0.296 OA
BRANCH   9  10
HETATM   10  C   UNK N   1      30.603  23.532  -2.701  0.00  0.00     0.367 C 
HETATM   11  N   UNK N   1      31.454  22.882  -3.551  0.00  0.00    -0.272 N 
HETATM   12  C   UNK N   1      32.297  21.866  -3.249  0.00  0.00     0.239 C 
HETATM   13  H   UNK N   1      31.452  23.185  -4.488  0.00  0.00     0.174 HD
HETATM   14  O   UNK N   1      32.380  21.420  -2.113  0.00  0.00    -0.272 OA
HETATM   15  O   UNK N   1      30.507  23.200  -1.530  0.00  0.00    -0.238 OA
BRANCH  12  16
HETATM   16  C   UNK N   1      33.166  21.318  -4.330  0.00  0.00     0.217 C 
HETATM   17 Cl   UNK N   1      34.036  19.879  -3.743  0.00  0.00    -0.121 Cl
ENDBRANCH  12  16
ENDBRANCH   9  10
ENDBRANCH   1   9
BRANCH   8  18
HETATM   18  O   UNK N   1      28.384  26.856  -4.422  0.00  0.00    -0.388 OA
HETATM   19  C   UNK N   1      29.366  27.797  -4.746  0.00  0.00     0.202 C 
ENDBRANCH   8  18
BRANCH   7  20
HETATM   20  C   UNK N   1      26.831  26.239  -6.911  0.00  0.00     0.093 A 
HETATM   21  O   UNK N   1      27.542  27.092  -7.775  0.00  0.00    -0.369 OA
HETATM   22  C   UNK N   1      26.882  25.998  -8.379  0.00  0.00     0.160 A 
HETATM   23  C   UNK N   1      25.636  26.966  -6.303  0.00  0.00     0.049 C 
BRANCH  22  24
HETATM   24  C   UNK N   1      25.646  26.352  -9.196  0.00  0.00     0.062 C 
BRANCH  24  25
HETATM   25  C   UNK N   1      25.566  25.496 -10.443  0.00  0.00    -0.022 C 
HETATM   26  C   UNK N   1      24.755  25.718 -11.496  0.00  0.00    -0.091 C 
HETATM   27  C   UNK N   1      24.794  24.778 -12.652  0.00  0.00     0.042 C 
HETATM   28  C   UNK N   1      23.820  26.881 -11.569  0.00  0.00     0.042 C 
ENDBRANCH  24  25
ENDBRANCH  22  24
ENDBRANCH   7  20
TORSDOF 7
ENDMDL
MODEL 6
REMARK VINA RESULT:      -6.4      9.139     11.692
REMARK  7 active torsions:
REMARK  status: ('A' for Active; 'I' for Inactive)
REMARK       I    between atoms: N_1  and  C_2 
REMARK       I    between atoms: N_1  and  C_24 
REMARK    1  A    between atoms: C_2  and  O_4 
REMARK    2  A    between atoms: C_5  and  O_4 
REMARK    3  A    between atoms: C_15  and  C_11 
REMARK    4  A    between atoms: C_12  and  O_13 
REMARK    5  A    between atoms: C_17  and  C_18 
REMARK    6  A    between atoms: C_18  and  C_19 
REMARK    7  A    between atoms: C_24  and  C_26 
ROOT
HETATM    1  C   UNK N   1      34.358  15.899   8.606  0.00  0.00     0.163 C 
HETATM    2  C   UNK N   1      34.222  17.425   8.821  0.00  0.00     0.038 C 
HETATM    3  C   UNK N   1      32.990  18.063   8.165  0.00  0.00     0.043 C 
HETATM    4  C   UNK N   1      32.021  17.015   7.650  0.00  0.00     0.091 A 
HETATM    5  O   UNK N   1      31.102  16.640   8.650  0.00  0.00    -0.374 OA
HETATM    6  C   UNK N   1      30.593  17.395   7.575  0.00  0.00     0.207 A 
HETATM    7  C   UNK N   1      32.542  15.797   6.841  0.00  0.00     0.091 C 
HETATM    8  C   UNK N   1      34.051  15.481   7.139  0.00  0.00     0.160 C 
ENDROOT
BRANCH   1   9
HETATM    9  O   UNK N   1      35.593  15.474   9.065  0.00  0.00    -0.296 OA
BRANCH   9  10
HETATM   10  C   UNK N   1      35.869  15.454  10.401  0.00  0.00     0.367 C 
HETATM   11  N   UNK N   1      35.401  14.420  11.163  0.00  0.00    -0.272 N 
HETATM   12  C   UNK N   1      35.639  14.196  12.478  0.00  0.00     0.239 C 
HETATM   13  H   UNK N   1      34.825  13.766  10.705  0.00  0.00     0.174 HD
HETATM   14  O   UNK N   1      36.346  14.945  13.136  0.00  0.00    -0.272 OA
HETATM   15  O   UNK N   1      36.558  16.335  10.890  0.00  0.00    -0.238 OA
BRANCH  12  16
HETATM   16  C   UNK N   1      35.049  12.981  13.110  0.00  0.00     0.217 C 
HETATM   17 Cl   UNK N   1      35.160  13.102  14.884  0.00  0.00    -0.121 Cl
ENDBRANCH  12  16
ENDBRANCH   9  10
ENDBRANCH   1   9
BRANCH   8  18
HETATM   18  O   UNK N   1      34.995  15.911   6.168  0.00  0.00    -0.388 OA
HETATM   19  C   UNK N   1      35.706  14.849   5.601  0.00  0.00     0.202 C 
ENDBRANCH   8  18
BRANCH   7  20
HETATM   20  C   UNK N   1      32.106  15.939   5.366  0.00  0.00     0.093 A 
HETATM   21  O   UNK N   1      32.298  14.866   4.477  0.00  0.00    -0.369 OA
HETATM   22  C   UNK N   1      31.002  15.000   5.028  0.00  0.00     0.160 A 
HETATM   23  C   UNK N   1      32.220  17.272   4.633  0.00  0.00     0.049 C 
BRANCH  22  24
HETATM   24  C   UNK N   1      29.931  15.489   4.062  0.00  0.00     0.062 C 
BRANCH  24  25
HETATM   25  C   UNK N   1      28.595  15.616   4.765  0.00  0.00    -0.022 C 
HETATM   26  C   UNK N   1      27.940  16.769   5.005  0.00  0.00    -0.091 C 
HETATM   27  C   UNK N   1      26.630  16.726   5.713  0.00  0.00     0.042 C 
HETATM   28  C   UNK N   1      28.463  18.102   4.576  0.00  0.00     0.042 C 
ENDBRANCH  24  25
ENDBRANCH  22  24
ENDBRANCH   7  20
TORSDOF 7
ENDMDL
MODEL 7
REMARK VINA RESULT:      -6.1     10.328     12.720
REMARK  7 active torsions:
REMARK  status: ('A' for Active; 'I' for Inactive)
REMARK       I    between atoms: N_1  and  C_2 
REMARK       I    between atoms: N_1  and  C_24 
REMARK    1  A    between atoms: C_2  and  O_4 
REMARK    2  A    between atoms: C_5  and  O_4 
REMARK    3  A    between atoms: C_15  and  C_11 
REMARK    4  A    between atoms: C_12  and  O_13 
REMARK    5  A    between atoms: C_17  and  C_18 
REMARK    6  A    between atoms: C_18  and  C_19 
REMARK    7  A    between atoms: C_24  and  C_26 
ROOT
HETATM    1  C   UNK N   1      35.377  12.919  11.174  0.00  0.00     0.163 C 
HETATM    2  C   UNK N   1      36.778  13.468  10.812  0.00  0.00     0.038 C 
HETATM    3  C   UNK N   1      36.780  14.868  10.184  0.00  0.00     0.043 C 
HETATM    4  C   UNK N   1      35.418  15.530  10.279  0.00  0.00     0.091 A 
HETATM    5  O   UNK N   1      35.285  16.242  11.487  0.00  0.00    -0.374 OA
HETATM    6  C   UNK N   1      35.387  17.008  10.310  0.00  0.00     0.207 A 
HETATM    7  C   UNK N   1      34.134  14.735   9.918  0.00  0.00     0.091 C 
HETATM    8  C   UNK N   1      34.332  13.183  10.052  0.00  0.00     0.160 C 
ENDROOT
BRANCH   1   9
HETATM    9  O   UNK N   1      35.482  11.589  11.543  0.00  0.00    -0.296 OA
BRANCH   9  10
HETATM   10  C   UNK N   1      34.950  11.149  12.721  0.00  0.00     0.367 C 
HETATM   11  N   UNK N   1      34.929  11.990  13.798  0.00  0.00    -0.272 N 
HETATM   12  C   UNK N   1      34.376  11.755  15.012  0.00  0.00     0.239 C 
HETATM   13  H   UNK N   1      35.365  12.865  13.678  0.00  0.00     0.174 HD
HETATM   14  O   UNK N   1      33.805  10.703  15.261  0.00  0.00    -0.272 OA
HETATM   15  O   UNK N   1      34.470  10.029  12.787  0.00  0.00    -0.238 OA
BRANCH  12  16
HETATM   16  C   UNK N   1      34.441  12.831  16.043  0.00  0.00     0.217 C 
HETATM   17 Cl   UNK N   1      35.225  12.214  17.518  0.00  0.00    -0.121 Cl
ENDBRANCH  12  16
ENDBRANCH   9  10
ENDBRANCH   1   9
BRANCH   8  18
HETATM   18  O   UNK N   1      34.532  12.460   8.845  0.00  0.00    -0.388 OA
HETATM   19  C   UNK N   1      33.525  11.521   8.608  0.00  0.00     0.202 C 
ENDBRANCH   8  18
BRANCH   7  20
HETATM   20  C   UNK N   1      33.548  15.282   8.598  0.00  0.00     0.093 A 
HETATM   21  O   UNK N   1      32.317  14.793   8.127  0.00  0.00    -0.369 OA
HETATM   22  C   UNK N   1      32.277  16.021   8.826  0.00  0.00     0.160 A 
HETATM   23  C   UNK N   1      34.453  15.671   7.433  0.00  0.00     0.049 C 
BRANCH  22  24
HETATM   24  C   UNK N   1      32.012  17.251   7.968  0.00  0.00     0.062 C 
BRANCH  24  25
HETATM   25  C   UNK N   1      30.554  17.318   7.565  0.00  0.00    -0.022 C 
HETATM   26  C   UNK N   1      29.576  17.939   8.255  0.00  0.00    -0.091 C 
HETATM   27  C   UNK N   1      28.185  17.911   7.723  0.00  0.00     0.042 C 
HETATM   28  C   UNK N   1      29.826  18.674   9.531  0.00  0.00     0.042 C 
ENDBRANCH  24  25
ENDBRANCH  22  24
ENDBRANCH   7  20
TORSDOF 7
ENDMDL
MODEL 8
REMARK VINA RESULT:      -6.0      9.565     13.000
REMARK  7 active torsions:
REMARK  status: ('A' for Active; 'I' for Inactive)
REMARK       I    between atoms: N_1  and  C_2 
REMARK       I    between atoms: N_1  and  C_24 
REMARK    1  A    between atoms: C_2  and  O_4 
REMARK    2  A    between atoms: C_5  and  O_4 
REMARK    3  A    between atoms: C_15  and  C_11 
REMARK    4  A    between atoms: C_12  and  O_13 
REMARK    5  A    between atoms: C_17  and  C_18 
REMARK    6  A    between atoms: C_18  and  C_19 
REMARK    7  A    between atoms: C_24  and  C_26 
ROOT
HETATM    1  C   UNK N   1      32.351  15.956   7.348  0.00  0.00     0.163 C 
HETATM    2  C   UNK N   1      32.847  14.883   6.349  0.00  0.00     0.038 C 
HETATM    3  C   UNK N   1      33.664  13.746   6.977  0.00  0.00     0.043 C 
HETATM    4  C   UNK N   1      33.601  13.777   8.493  0.00  0.00     0.091 A 
HETATM    5  O   UNK N   1      32.499  13.041   8.969  0.00  0.00    -0.374 OA
HETATM    6  C   UNK N   1      33.775  12.491   9.202  0.00  0.00     0.207 A 
HETATM    7  C   UNK N   1      33.790  15.115   9.256  0.00  0.00     0.091 C 
HETATM    8  C   UNK N   1      33.451  16.366   8.369  0.00  0.00     0.160 C 
ENDROOT
BRANCH   1   9
HETATM    9  O   UNK N   1      31.805  17.021   6.651  0.00  0.00    -0.296 OA
BRANCH   9  10
HETATM   10  C   UNK N   1      30.466  17.277   6.708  0.00  0.00     0.367 C 
HETATM   11  N   UNK N   1      29.748  17.332   5.546  0.00  0.00    -0.272 N 
HETATM   12  C   UNK N   1      28.410  17.497   5.415  0.00  0.00     0.239 C 
HETATM   13  H   UNK N   1      30.262  17.242   4.710  0.00  0.00     0.174 HD
HETATM   14  O   UNK N   1      27.682  17.611   6.391  0.00  0.00    -0.272 OA
HETATM   15  O   UNK N   1      29.923  17.418   7.791  0.00  0.00    -0.238 OA
BRANCH  12  16
HETATM   16  C   UNK N   1      27.824  17.498   4.044  0.00  0.00     0.217 C 
HETATM   17 Cl   UNK N   1      28.824  16.503   2.955  0.00  0.00    -0.121 Cl
ENDBRANCH  12  16
ENDBRANCH   9  10
ENDBRANCH   1   9
BRANCH   8  18
HETATM   18  O   UNK N   1      34.554  17.081   7.828  0.00  0.00    -0.388 OA
HETATM   19  C   UNK N   1      34.579  18.418   8.234  0.00  0.00     0.202 C 
ENDBRANCH   8  18
BRANCH   7  20
HETATM   20  C   UNK N   1      35.147  15.095   9.995  0.00  0.00     0.093 A 
HETATM   21  O   UNK N   1      35.487  16.153  10.857  0.00  0.00    -0.369 OA
HETATM   22  C   UNK N   1      34.968  14.989  11.468  0.00  0.00     0.160 A 
HETATM   23  C   UNK N   1      36.396  14.514   9.339  0.00  0.00     0.049 C 
BRANCH  22  24
HETATM   24  C   UNK N   1      35.978  14.154  12.244  0.00  0.00     0.062 C 
BRANCH  24  25
HETATM   25  C   UNK N   1      35.303  13.420  13.384  0.00  0.00    -0.022 C 
HETATM   26  C   UNK N   1      35.686  13.453  14.676  0.00  0.00    -0.091 C 
HETATM   27  C   UNK N   1      34.914  12.671  15.682  0.00  0.00     0.042 C 
HETATM   28  C   UNK N   1      36.851  14.258  15.155  0.00  0.00     0.042 C 
ENDBRANCH  24  25
ENDBRANCH  22  24
ENDBRANCH   7  20
TORSDOF 7
ENDMDL
MODEL 9
REMARK VINA RESULT:      -5.9     11.294     13.483
REMARK  7 active torsions:
REMARK  status: ('A' for Active; 'I' for Inactive)
REMARK       I    between atoms: N_1  and  C_2 
REMARK       I    between atoms: N_1  and  C_24 
REMARK    1  A    between atoms: C_2  and  O_4 
REMARK    2  A    between atoms: C_5  and  O_4 
REMARK    3  A    between atoms: C_15  and  C_11 
REMARK    4  A    between atoms: C_12  and  O_13 
REMARK    5  A    between atoms: C_17  and  C_18 
REMARK    6  A    between atoms: C_18  and  C_19 
REMARK    7  A    between atoms: C_24  and  C_26 
ROOT
HETATM    1  C   UNK N   1      36.980  13.374   9.755  0.00  0.00     0.163 C 
HETATM    2  C   UNK N   1      36.031  12.164   9.592  0.00  0.00     0.038 C 
HETATM    3  C   UNK N   1      34.858  12.387   8.628  0.00  0.00     0.043 C 
HETATM    4  C   UNK N   1      35.017  13.673   7.837  0.00  0.00     0.091 A 
HETATM    5  O   UNK N   1      35.746  13.452   6.653  0.00  0.00    -0.374 OA
HETATM    6  C   UNK N   1      34.373  13.731   6.507  0.00  0.00     0.207 A 
HETATM    7  C   UNK N   1      35.437  14.985   8.553  0.00  0.00     0.091 C 
HETATM    8  C   UNK N   1      36.206  14.717   9.895  0.00  0.00     0.160 C 
ENDROOT
BRANCH   1   9
HETATM    9  O   UNK N   1      37.872  13.129  10.785  0.00  0.00    -0.296 OA
BRANCH   9  10
HETATM   10  C   UNK N   1      37.502  12.376  11.861  0.00  0.00     0.367 C 
HETATM   11  N   UNK N   1      37.023  13.001  12.979  0.00  0.00    -0.272 N 
HETATM   12  C   UNK N   1      36.540  12.417  14.102  0.00  0.00     0.239 C 
HETATM   13  H   UNK N   1      37.030  13.986  12.966  0.00  0.00     0.174 HD
HETATM   14  O   UNK N   1      36.482  11.202  14.216  0.00  0.00    -0.272 OA
HETATM   15  O   UNK N   1      37.569  11.159  11.800  0.00  0.00    -0.238 OA
BRANCH  12  16
HETATM   16  C   UNK N   1      36.037  13.294  15.198  0.00  0.00     0.217 C 
HETATM   17 Cl   UNK N   1      37.131  14.682  15.418  0.00  0.00    -0.121 Cl
ENDBRANCH  12  16
ENDBRANCH   9  10
ENDBRANCH   1   9
BRANCH   8  18
HETATM   18  O   UNK N   1      35.463  14.873  11.097  0.00  0.00    -0.388 OA
HETATM   19  C   UNK N   1      35.866  15.989  11.836  0.00  0.00     0.202 C 
ENDBRANCH   8  18
BRANCH   7  20
HETATM   20  C   UNK N   1      34.236  15.957   8.585  0.00  0.00     0.093 A 
HETATM   21  O   UNK N   1      34.426  17.286   9.002  0.00  0.00    -0.369 OA
HETATM   22  C   UNK N   1      34.402  17.065   7.606  0.00  0.00     0.160 A 
HETATM   23  C   UNK N   1      32.837  15.473   8.953  0.00  0.00     0.049 C 
BRANCH  22  24
HETATM   24  C   UNK N   1      33.155  17.566   6.889  0.00  0.00     0.062 C 
BRANCH  24  25
HETATM   25  C   UNK N   1      33.289  17.381   5.392  0.00  0.00    -0.022 C 
HETATM   26  C   UNK N   1      32.267  17.252   4.522  0.00  0.00    -0.091 C 
HETATM   27  C   UNK N   1      32.566  17.074   3.073  0.00  0.00     0.042 C 
HETATM   28  C   UNK N   1      30.834  17.296   4.943  0.00  0.00     0.042 C 
ENDBRANCH  24  25
ENDBRANCH  22  24
ENDBRANCH   7  20
TORSDOF 7
ENDMDL
