MODEL 1
REMARK VINA RESULT:      -8.1      0.000      0.000
REMARK  3 active torsions:
REMARK  status: ('A' for Active; 'I' for Inactive)
REMARK    1  A    between atoms: C_1  and  N_2 
REMARK    2  A    between atoms: N_2  and  C_10 
REMARK       I    between atoms: C_13  and  N_14 
REMARK    3  A    between atoms: N_14  and  C_19 
ROOT
HETATM    1  C   UNK N   1      32.370  16.209   6.937  0.00  0.00     0.145 C 
HETATM    2  C   UNK N   1      33.373  15.248   7.074  0.00  0.00     0.004 C 
HETATM    3  C   UNK N   1      34.403  15.509   7.968  0.00  0.00     0.021 C 
HETATM    4  C   UNK N   1      34.518  16.790   8.500  0.00  0.00     0.044 C 
HETATM    5  C   UNK N   1      33.794  17.848   7.926  0.00  0.00     0.021 C 
HETATM    6  C   UNK N   1      32.789  17.542   7.003  0.00  0.00     0.004 C 
HETATM    7  C   UNK N   1      35.256  16.954   9.712  0.00  0.00     0.099 C 
HETATM    8  N   UNK N   1      35.866  17.031  10.691  0.00  0.00    -0.191 NA
ENDROOT
BRANCH   1   9
HETATM    9  N   UNK N   1      31.369  15.981   7.900  0.00  0.00    -0.215 N 
HETATM   10  C   UNK N   1      30.392  16.916   8.249  0.00  0.00     0.680 C 
HETATM   11  N   UNK N   1      29.403  17.093   7.380  0.00  0.00    -0.177 N 
HETATM   12  N   UNK N   1      30.252  17.352   9.529  0.00  0.00    -0.202 N 
HETATM   13  C   UNK N   1      28.230  17.619   7.698  0.00  0.00     0.122 C 
ATOM     14  HN  UNK N   1      29.556  16.806   6.413  1.00  0.00     0.186 HD
HETATM   15  C   UNK N   1      28.057  18.152   8.983  0.00  0.00     0.066 C 
HETATM   16  C   UNK N   1      29.130  18.039   9.889  0.00  0.00     0.110 C 
ATOM     17  HN  UNK N   1      30.982  17.165  10.216  1.00  0.00     0.183 HD
HETATM   18  H   UNK N   1      31.356  15.109   8.356  0.00  0.00     0.178 HD
BRANCH  13  19
HETATM   19  N   UNK N   1      27.153  17.457   6.787  0.00  0.00    -0.341 N 
HETATM   20  H   UNK N   1      26.591  16.659   6.915  0.00  0.00     0.167 HD
BRANCH  19  21
HETATM   21  C   UNK N   1      26.783  18.336   5.685  0.00  0.00     0.045 A 
HETATM   22  C   UNK N   1      26.401  17.702   4.480  0.00  0.00    -0.034 A 
HETATM   23  C   UNK N   1      26.474  16.220   4.334  0.00  0.00     0.050 C 
HETATM   24  C   UNK N   1      25.932  18.441   3.390  0.00  0.00     0.015 A 
HETATM   25  C   UNK N   1      25.853  19.824   3.453  0.00  0.00    -0.061 A 
HETATM   26  C   UNK N   1      26.300  20.485   4.575  0.00  0.00     0.015 A 
HETATM   27  C   UNK N   1      25.275  20.602   2.329  0.00  0.00     0.048 C 
HETATM   28  C   UNK N   1      26.774  19.798   5.685  0.00  0.00    -0.034 A 
HETATM   29  C   UNK N   1      27.261  20.730   6.735  0.00  0.00     0.050 C 
ENDBRANCH  19  21
ENDBRANCH  13  19
ENDBRANCH   1   9
TORSDOF 3
ENDMDL
MODEL 2
REMARK VINA RESULT:      -8.0      3.741      9.658
REMARK  3 active torsions:
REMARK  status: ('A' for Active; 'I' for Inactive)
REMARK    1  A    between atoms: C_1  and  N_2 
REMARK    2  A    between atoms: N_2  and  C_10 
REMARK       I    between atoms: C_13  and  N_14 
REMARK    3  A    between atoms: N_14  and  C_19 
ROOT
HETATM    1  C   UNK N   1      22.270  18.452   4.386  0.00  0.00     0.145 C 
HETATM    2  C   UNK N   1      21.810  17.135   4.354  0.00  0.00     0.004 C 
HETATM    3  C   UNK N   1      21.068  16.735   3.250  0.00  0.00     0.021 C 
HETATM    4  C   UNK N   1      20.621  17.704   2.358  0.00  0.00     0.044 C 
HETATM    5  C   UNK N   1      20.673  19.061   2.721  0.00  0.00     0.021 C 
HETATM    6  C   UNK N   1      21.403  19.415   3.860  0.00  0.00     0.004 C 
HETATM    7  C   UNK N   1      20.264  17.293   1.037  0.00  0.00     0.099 C 
HETATM    8  N   UNK N   1      19.986  16.907  -0.017  0.00  0.00    -0.191 NA
ENDROOT
BRANCH   1   9
HETATM    9  N   UNK N   1      23.514  18.529   3.730  0.00  0.00    -0.215 N 
HETATM   10  C   UNK N   1      24.646  19.143   4.272  0.00  0.00     0.680 C 
HETATM   11  N   UNK N   1      25.283  18.476   5.227  0.00  0.00    -0.177 N 
HETATM   12  N   UNK N   1      25.270  20.168   3.634  0.00  0.00    -0.202 N 
HETATM   13  C   UNK N   1      26.542  18.701   5.568  0.00  0.00     0.122 C 
ATOM     14  HN  UNK N   1      24.772  17.747   5.727  1.00  0.00     0.186 HD
HETATM   15  C   UNK N   1      27.209  19.793   4.996  0.00  0.00     0.066 C 
HETATM   16  C   UNK N   1      26.515  20.555   4.036  0.00  0.00     0.110 C 
ATOM     17  HN  UNK N   1      24.810  20.645   2.858  1.00  0.00     0.183 HD
HETATM   18  H   UNK N   1      23.591  18.127   2.836  0.00  0.00     0.178 HD
BRANCH  13  19
HETATM   19  N   UNK N   1      27.209  17.725   6.355  0.00  0.00    -0.341 N 
HETATM   20  H   UNK N   1      26.637  17.062   6.804  0.00  0.00     0.167 HD
BRANCH  19  21
HETATM   21  C   UNK N   1      28.644  17.592   6.572  0.00  0.00     0.045 A 
HETATM   22  C   UNK N   1      29.111  17.898   7.872  0.00  0.00    -0.034 A 
HETATM   23  C   UNK N   1      28.186  18.422   8.917  0.00  0.00     0.050 C 
HETATM   24  C   UNK N   1      30.451  17.711   8.223  0.00  0.00     0.015 A 
HETATM   25  C   UNK N   1      31.367  17.241   7.294  0.00  0.00    -0.061 A 
HETATM   26  C   UNK N   1      30.971  17.016   5.994  0.00  0.00     0.015 A 
HETATM   27  C   UNK N   1      32.770  16.960   7.689  0.00  0.00     0.048 C 
HETATM   28  C   UNK N   1      29.652  17.186   5.594  0.00  0.00    -0.034 A 
HETATM   29  C   UNK N   1      29.491  16.951   4.136  0.00  0.00     0.050 C 
ENDBRANCH  19  21
ENDBRANCH  13  19
ENDBRANCH   1   9
TORSDOF 3
ENDMDL
MODEL 3
REMARK VINA RESULT:      -7.9      1.451      2.171
REMARK  3 active torsions:
REMARK  status: ('A' for Active; 'I' for Inactive)
REMARK    1  A    between atoms: C_1  and  N_2 
REMARK    2  A    between atoms: N_2  and  C_10 
REMARK       I    between atoms: C_13  and  N_14 
REMARK    3  A    between atoms: N_14  and  C_19 
ROOT
HETATM    1  C   UNK N   1      33.243  17.357   8.765  0.00  0.00     0.145 C 
HETATM    2  C   UNK N   1      33.393  18.017   7.544  0.00  0.00     0.004 C 
HETATM    3  C   UNK N   1      33.967  17.313   6.494  0.00  0.00     0.021 C 
HETATM    4  C   UNK N   1      34.575  16.090   6.761  0.00  0.00     0.044 C 
HETATM    5  C   UNK N   1      34.848  15.726   8.091  0.00  0.00     0.021 C 
HETATM    6  C   UNK N   1      34.277  16.484   9.118  0.00  0.00     0.004 C 
HETATM    7  C   UNK N   1      34.761  15.177   5.679  0.00  0.00     0.099 C 
HETATM    8  N   UNK N   1      34.890  14.478   4.768  0.00  0.00    -0.191 NA
ENDROOT
BRANCH   1   9
HETATM    9  N   UNK N   1      32.016  16.665   8.776  0.00  0.00    -0.215 N 
HETATM   10  C   UNK N   1      30.769  17.285   8.670  0.00  0.00     0.680 C 
HETATM   11  N   UNK N   1      30.422  17.717   7.464  0.00  0.00    -0.177 N 
HETATM   12  N   UNK N   1      29.821  17.140   9.634  0.00  0.00    -0.202 N 
HETATM   13  C   UNK N   1      29.172  17.962   7.101  0.00  0.00     0.122 C 
ATOM     14  HN  UNK N   1      31.161  17.869   6.776  1.00  0.00     0.186 HD
HETATM   15  C   UNK N   1      28.165  17.900   8.074  0.00  0.00     0.066 C 
HETATM   16  C   UNK N   1      28.535  17.517   9.377  0.00  0.00     0.110 C 
ATOM     17  HN  UNK N   1      30.070  16.751  10.543  1.00  0.00     0.183 HD
HETATM   18  H   UNK N   1      32.039  15.686   8.864  0.00  0.00     0.178 HD
BRANCH  13  19
HETATM   19  N   UNK N   1      28.890  18.096   5.716  0.00  0.00    -0.341 N 
HETATM   20  H   UNK N   1      29.551  17.711   5.097  0.00  0.00     0.167 HD
BRANCH  19  21
HETATM   21  C   UNK N   1      27.732  18.737   5.105  0.00  0.00     0.045 A 
HETATM   22  C   UNK N   1      27.050  17.989   4.118  0.00  0.00    -0.034 A 
HETATM   23  C   UNK N   1      27.560  16.662   3.670  0.00  0.00     0.050 C 
HETATM   24  C   UNK N   1      25.870  18.462   3.536  0.00  0.00     0.015 A 
HETATM   25  C   UNK N   1      25.348  19.695   3.897  0.00  0.00    -0.061 A 
HETATM   26  C   UNK N   1      26.030  20.494   4.788  0.00  0.00     0.015 A 
HETATM   27  C   UNK N   1      24.051  20.160   3.345  0.00  0.00     0.048 C 
HETATM   28  C   UNK N   1      27.205  20.070   5.395  0.00  0.00    -0.034 A 
HETATM   29  C   UNK N   1      27.785  21.131   6.257  0.00  0.00     0.050 C 
ENDBRANCH  19  21
ENDBRANCH  13  19
ENDBRANCH   1   9
TORSDOF 3
ENDMDL
MODEL 4
REMARK VINA RESULT:      -7.8      2.802      4.861
REMARK  3 active torsions:
REMARK  status: ('A' for Active; 'I' for Inactive)
REMARK    1  A    between atoms: C_1  and  N_2 
REMARK    2  A    between atoms: N_2  and  C_10 
REMARK       I    between atoms: C_13  and  N_14 
REMARK    3  A    between atoms: N_14  and  C_19 
ROOT
HETATM    1  C   UNK N   1      35.300  14.118  10.090  0.00  0.00     0.145 C 
HETATM    2  C   UNK N   1      34.545  13.236  10.867  0.00  0.00     0.004 C 
HETATM    3  C   UNK N   1      34.988  12.966  12.154  0.00  0.00     0.021 C 
HETATM    4  C   UNK N   1      36.261  13.386  12.526  0.00  0.00     0.044 C 
HETATM    5  C   UNK N   1      37.169  13.808  11.540  0.00  0.00     0.021 C 
HETATM    6  C   UNK N   1      36.687  14.035  10.247  0.00  0.00     0.004 C 
HETATM    7  C   UNK N   1      36.550  13.517  13.919  0.00  0.00     0.099 C 
HETATM    8  N   UNK N   1      36.732  13.603  15.057  0.00  0.00    -0.191 NA
ENDROOT
BRANCH   1   9
HETATM    9  N   UNK N   1      34.875  15.438  10.335  0.00  0.00    -0.215 N 
HETATM   10  C   UNK N   1      34.336  16.279   9.358  0.00  0.00     0.680 C 
HETATM   11  N   UNK N   1      33.086  16.032   8.987  0.00  0.00    -0.177 N 
HETATM   12  N   UNK N   1      34.903  17.480   9.066  0.00  0.00    -0.202 N 
HETATM   13  C   UNK N   1      32.305  16.921   8.393  0.00  0.00     0.122 C 
ATOM     14  HN  UNK N   1      32.705  15.103   9.170  1.00  0.00     0.186 HD
HETATM   15  C   UNK N   1      32.859  18.148   8.002  0.00  0.00     0.066 C 
HETATM   16  C   UNK N   1      34.209  18.390   8.323  0.00  0.00     0.110 C 
ATOM     17  HN  UNK N   1      35.841  17.699   9.401  1.00  0.00     0.183 HD
HETATM   18  H   UNK N   1      34.963  15.790  11.249  0.00  0.00     0.178 HD
BRANCH  13  19
HETATM   19  N   UNK N   1      30.910  16.662   8.343  0.00  0.00    -0.341 N 
HETATM   20  H   UNK N   1      30.590  15.898   8.874  0.00  0.00     0.167 HD
BRANCH  19  21
HETATM   21  C   UNK N   1      29.898  17.398   7.597  0.00  0.00     0.045 A 
HETATM   22  C   UNK N   1      29.142  18.342   8.331  0.00  0.00    -0.034 A 
HETATM   23  C   UNK N   1      29.317  18.489   9.803  0.00  0.00     0.050 C 
HETATM   24  C   UNK N   1      28.213  19.175   7.700  0.00  0.00     0.015 A 
HETATM   25  C   UNK N   1      27.991  19.080   6.334  0.00  0.00    -0.061 A 
HETATM   26  C   UNK N   1      28.641  18.114   5.599  0.00  0.00     0.015 A 
HETATM   27  C   UNK N   1      27.069  20.021   5.650  0.00  0.00     0.048 C 
HETATM   28  C   UNK N   1      29.573  17.262   6.178  0.00  0.00    -0.034 A 
HETATM   29  C   UNK N   1      30.081  16.267   5.199  0.00  0.00     0.050 C 
ENDBRANCH  19  21
ENDBRANCH  13  19
ENDBRANCH   1   9
TORSDOF 3
ENDMDL
MODEL 5
REMARK VINA RESULT:      -7.8      4.664      7.533
REMARK  3 active torsions:
REMARK  status: ('A' for Active; 'I' for Inactive)
REMARK    1  A    between atoms: C_1  and  N_2 
REMARK    2  A    between atoms: N_2  and  C_10 
REMARK       I    between atoms: C_13  and  N_14 
REMARK    3  A    between atoms: N_14  and  C_19 
ROOT
HETATM    1  C   UNK N   1      35.643  12.471  13.299  0.00  0.00     0.145 C 
HETATM    2  C   UNK N   1      34.534  11.805  13.824  0.00  0.00     0.004 C 
HETATM    3  C   UNK N   1      34.434  11.705  15.205  0.00  0.00     0.021 C 
HETATM    4  C   UNK N   1      35.534  12.052  15.983  0.00  0.00     0.044 C 
HETATM    5  C   UNK N   1      36.790  12.218  15.375  0.00  0.00     0.021 C 
HETATM    6  C   UNK N   1      36.849  12.279  13.979  0.00  0.00     0.004 C 
HETATM    7  C   UNK N   1      35.315  12.378  17.356  0.00  0.00     0.099 C 
HETATM    8  N   UNK N   1      35.083  12.629  18.461  0.00  0.00    -0.191 NA
ENDROOT
BRANCH   1   9
HETATM    9  N   UNK N   1      35.364  13.849  13.212  0.00  0.00    -0.215 N 
HETATM   10  C   UNK N   1      35.328  14.564  12.013  0.00  0.00     0.680 C 
HETATM   11  N   UNK N   1      34.259  14.383  11.246  0.00  0.00    -0.177 N 
HETATM   12  N   UNK N   1      36.134  15.639  11.804  0.00  0.00    -0.202 N 
HETATM   13  C   UNK N   1      33.874  15.233  10.307  0.00  0.00     0.122 C 
ATOM     14  HN  UNK N   1      33.703  13.539  11.389  1.00  0.00     0.186 HD
HETATM   15  C   UNK N   1      34.707  16.318   9.999  0.00  0.00     0.066 C 
HETATM   16  C   UNK N   1      35.884  16.476  10.756  0.00  0.00     0.110 C 
ATOM     17  HN  UNK N   1      36.921  15.818  12.427  1.00  0.00     0.183 HD
HETATM   18  H   UNK N   1      35.184  14.337  14.047  0.00  0.00     0.178 HD
BRANCH  13  19
HETATM   19  N   UNK N   1      32.559  15.107   9.787  0.00  0.00    -0.341 N 
HETATM   20  H   UNK N   1      31.874  14.773  10.409  0.00  0.00     0.167 HD
BRANCH  19  21
HETATM   21  C   UNK N   1      32.107  15.418   8.437  0.00  0.00     0.045 A 
HETATM   22  C   UNK N   1      32.336  14.425   7.455  0.00  0.00    -0.034 A 
HETATM   23  C   UNK N   1      33.088  13.181   7.783  0.00  0.00     0.050 C 
HETATM   24  C   UNK N   1      31.857  14.572   6.151  0.00  0.00     0.015 A 
HETATM   25  C   UNK N   1      31.161  15.712   5.775  0.00  0.00    -0.061 A 
HETATM   26  C   UNK N   1      30.996  16.741   6.676  0.00  0.00     0.015 A 
HETATM   27  C   UNK N   1      30.579  15.830   4.415  0.00  0.00     0.048 C 
HETATM   28  C   UNK N   1      31.451  16.644   7.984  0.00  0.00    -0.034 A 
HETATM   29  C   UNK N   1      31.217  17.904   8.736  0.00  0.00     0.050 C 
ENDBRANCH  19  21
ENDBRANCH  13  19
ENDBRANCH   1   9
TORSDOF 3
ENDMDL
MODEL 6
REMARK VINA RESULT:      -7.7      5.274     10.948
REMARK  3 active torsions:
REMARK  status: ('A' for Active; 'I' for Inactive)
REMARK    1  A    between atoms: C_1  and  N_2 
REMARK    2  A    between atoms: N_2  and  C_10 
REMARK       I    between atoms: C_13  and  N_14 
REMARK    3  A    between atoms: N_14  and  C_19 
ROOT
HETATM    1  C   UNK N   1      33.427  16.676   9.071  0.00  0.00     0.145 C 
HETATM    2  C   UNK N   1      32.139  16.582   8.542  0.00  0.00     0.004 C 
HETATM    3  C   UNK N   1      31.971  16.856   7.192  0.00  0.00     0.021 C 
HETATM    4  C   UNK N   1      33.025  17.432   6.490  0.00  0.00     0.044 C 
HETATM    5  C   UNK N   1      34.111  17.980   7.194  0.00  0.00     0.021 C 
HETATM    6  C   UNK N   1      34.222  17.707   8.561  0.00  0.00     0.004 C 
HETATM    7  C   UNK N   1      33.037  17.309   5.067  0.00  0.00     0.099 C 
HETATM    8  N   UNK N   1      32.997  17.183   3.918  0.00  0.00    -0.191 NA
ENDROOT
BRANCH   1   9
HETATM    9  N   UNK N   1      34.091  15.444   8.908  0.00  0.00    -0.215 N 
HETATM   10  C   UNK N   1      35.050  14.951   9.796  0.00  0.00     0.680 C 
HETATM   11  N   UNK N   1      34.600  14.465  10.946  0.00  0.00    -0.177 N 
HETATM   12  N   UNK N   1      36.310  14.650   9.382  0.00  0.00    -0.202 N 
HETATM   13  C   UNK N   1      35.286  13.629  11.710  0.00  0.00     0.122 C 
ATOM     14  HN  UNK N   1      33.672  14.751  11.259  1.00  0.00     0.186 HD
HETATM   15  C   UNK N   1      36.616  13.343  11.370  0.00  0.00     0.066 C 
HETATM   16  C   UNK N   1      37.128  13.917  10.190  0.00  0.00     0.110 C 
ATOM     17  HN  UNK N   1      36.640  14.969   8.471  1.00  0.00     0.183 HD
HETATM   18  H   UNK N   1      33.865  14.898   8.123  0.00  0.00     0.178 HD
BRANCH  13  19
HETATM   19  N   UNK N   1      34.590  12.926  12.729  0.00  0.00    -0.341 N 
HETATM   20  H   UNK N   1      33.612  13.035  12.743  0.00  0.00     0.167 HD
BRANCH  19  21
HETATM   21  C   UNK N   1      35.158  12.061  13.756  0.00  0.00     0.045 A 
HETATM   22  C   UNK N   1      34.792  10.696  13.697  0.00  0.00    -0.034 A 
HETATM   23  C   UNK N   1      33.803  10.208  12.694  0.00  0.00     0.050 C 
HETATM   24  C   UNK N   1      35.353   9.758  14.568  0.00  0.00     0.015 A 
HETATM   25  C   UNK N   1      36.269  10.147  15.534  0.00  0.00    -0.061 A 
HETATM   26  C   UNK N   1      36.583  11.479  15.683  0.00  0.00     0.015 A 
HETATM   27  C   UNK N   1      36.928   9.139  16.402  0.00  0.00     0.048 C 
HETATM   28  C   UNK N   1      36.054  12.451  14.843  0.00  0.00    -0.034 A 
HETATM   29  C   UNK N   1      36.487  13.813  15.248  0.00  0.00     0.050 C 
ENDBRANCH  19  21
ENDBRANCH  13  19
ENDBRANCH   1   9
TORSDOF 3
ENDMDL
MODEL 7
REMARK VINA RESULT:      -7.6      6.677      9.198
REMARK  3 active torsions:
REMARK  status: ('A' for Active; 'I' for Inactive)
REMARK    1  A    between atoms: C_1  and  N_2 
REMARK    2  A    between atoms: N_2  and  C_10 
REMARK       I    between atoms: C_13  and  N_14 
REMARK    3  A    between atoms: N_14  and  C_19 
ROOT
HETATM    1  C   UNK N   1      22.329  12.535   8.834  0.00  0.00     0.145 C 
HETATM    2  C   UNK N   1      21.282  12.679   9.747  0.00  0.00     0.004 C 
HETATM    3  C   UNK N   1      21.551  12.424  11.085  0.00  0.00     0.021 C 
HETATM    4  C   UNK N   1      22.758  11.820  11.422  0.00  0.00     0.044 C 
HETATM    5  C   UNK N   1      23.543  11.227  10.417  0.00  0.00     0.021 C 
HETATM    6  C   UNK N   1      23.215  11.482   9.082  0.00  0.00     0.004 C 
HETATM    7  C   UNK N   1      23.232  11.957  12.762  0.00  0.00     0.099 C 
HETATM    8  N   UNK N   1      23.568  12.096  13.860  0.00  0.00    -0.191 NA
ENDROOT
BRANCH   1   9
HETATM    9  N   UNK N   1      23.045  13.745   8.749  0.00  0.00    -0.215 N 
HETATM   10  C   UNK N   1      23.465  14.320   7.547  0.00  0.00     0.680 C 
HETATM   11  N   UNK N   1      22.531  14.915   6.815  0.00  0.00    -0.177 N 
HETATM   12  N   UNK N   1      24.778  14.579   7.307  0.00  0.00    -0.202 N 
HETATM   13  C   UNK N   1      22.791  15.820   5.884  0.00  0.00     0.122 C 
ATOM     14  HN  UNK N   1      21.557  14.661   6.981  1.00  0.00     0.186 HD
HETATM   15  C   UNK N   1      24.128  16.071   5.544  0.00  0.00     0.066 C 
HETATM   16  C   UNK N   1      25.126  15.386   6.263  0.00  0.00     0.110 C 
ATOM     17  HN  UNK N   1      25.498  14.173   7.904  1.00  0.00     0.183 HD
HETATM   18  H   UNK N   1      23.262  14.213   9.586  0.00  0.00     0.178 HD
BRANCH  13  19
HETATM   19  N   UNK N   1      21.718  16.619   5.406  0.00  0.00    -0.341 N 
HETATM   20  H   UNK N   1      21.359  17.286   6.034  0.00  0.00     0.167 HD
BRANCH  19  21
HETATM   21  C   UNK N   1      21.089  16.564   4.093  0.00  0.00     0.045 A 
HETATM   22  C   UNK N   1      20.926  17.800   3.425  0.00  0.00    -0.034 A 
HETATM   23  C   UNK N   1      21.293  19.084   4.085  0.00  0.00     0.050 C 
HETATM   24  C   UNK N   1      20.427  17.858   2.121  0.00  0.00     0.015 A 
HETATM   25  C   UNK N   1      20.053  16.701   1.453  0.00  0.00    -0.061 A 
HETATM   26  C   UNK N   1      20.112  15.487   2.101  0.00  0.00     0.015 A 
HETATM   27  C   UNK N   1      19.604  16.753   0.040  0.00  0.00     0.048 C 
HETATM   28  C   UNK N   1      20.601  15.375   3.396  0.00  0.00    -0.034 A 
HETATM   29  C   UNK N   1      20.497  13.980   3.898  0.00  0.00     0.050 C 
ENDBRANCH  19  21
ENDBRANCH  13  19
ENDBRANCH   1   9
TORSDOF 3
ENDMDL
MODEL 8
REMARK VINA RESULT:      -7.6      4.936      7.972
REMARK  3 active torsions:
REMARK  status: ('A' for Active; 'I' for Inactive)
REMARK    1  A    between atoms: C_1  and  N_2 
REMARK    2  A    between atoms: N_2  and  C_10 
REMARK       I    between atoms: C_13  and  N_14 
REMARK    3  A    between atoms: N_14  and  C_19 
ROOT
HETATM    1  C   UNK N   1      34.972  11.602  12.992  0.00  0.00     0.145 C 
HETATM    2  C   UNK N   1      33.969  10.878  13.639  0.00  0.00     0.004 C 
HETATM    3  C   UNK N   1      34.096  10.678  15.007  0.00  0.00     0.021 C 
HETATM    4  C   UNK N   1      35.305  10.991  15.620  0.00  0.00     0.044 C 
HETATM    5  C   UNK N   1      36.444  11.226  14.830  0.00  0.00     0.021 C 
HETATM    6  C   UNK N   1      36.275  11.387  13.452  0.00  0.00     0.004 C 
HETATM    7  C   UNK N   1      35.310  11.213  17.031  0.00  0.00     0.099 C 
HETATM    8  N   UNK N   1      35.259  11.381  18.174  0.00  0.00    -0.191 NA
ENDROOT
BRANCH   1   9
HETATM    9  N   UNK N   1      34.671  12.977  13.053  0.00  0.00    -0.215 N 
HETATM   10  C   UNK N   1      34.967  13.888  12.036  0.00  0.00     0.680 C 
HETATM   11  N   UNK N   1      34.191  13.848  10.960  0.00  0.00    -0.177 N 
HETATM   12  N   UNK N   1      35.750  14.975  12.265  0.00  0.00    -0.202 N 
HETATM   13  C   UNK N   1      34.072  14.850  10.102  0.00  0.00     0.122 C 
ATOM     14  HN  UNK N   1      33.656  12.998  10.783  1.00  0.00     0.186 HD
HETATM   15  C   UNK N   1      34.909  15.965  10.248  0.00  0.00     0.066 C 
HETATM   16  C   UNK N   1      35.792  15.982  11.345  0.00  0.00     0.110 C 
ATOM     17  HN  UNK N   1      36.302  15.038  13.120  1.00  0.00     0.183 HD
HETATM   18  H   UNK N   1      34.225  13.316  13.861  0.00  0.00     0.178 HD
BRANCH  13  19
HETATM   19  N   UNK N   1      32.983  14.826   9.190  0.00  0.00    -0.341 N 
HETATM   20  H   UNK N   1      32.170  14.362   9.494  0.00  0.00     0.167 HD
BRANCH  19  21
HETATM   21  C   UNK N   1      32.931  15.411   7.856  0.00  0.00     0.045 A 
HETATM   22  C   UNK N   1      31.965  16.423   7.653  0.00  0.00    -0.034 A 
HETATM   23  C   UNK N   1      30.997  16.787   8.727  0.00  0.00     0.050 C 
HETATM   24  C   UNK N   1      31.891  17.123   6.446  0.00  0.00     0.015 A 
HETATM   25  C   UNK N   1      32.752  16.824   5.400  0.00  0.00    -0.061 A 
HETATM   26  C   UNK N   1      33.647  15.785   5.526  0.00  0.00     0.015 A 
HETATM   27  C   UNK N   1      32.731  17.623   4.150  0.00  0.00     0.048 C 
HETATM   28  C   UNK N   1      33.761  15.060   6.705  0.00  0.00    -0.034 A 
HETATM   29  C   UNK N   1      34.741  13.952   6.569  0.00  0.00     0.050 C 
ENDBRANCH  19  21
ENDBRANCH  13  19
ENDBRANCH   1   9
TORSDOF 3
ENDMDL
MODEL 9
REMARK VINA RESULT:      -7.4     11.753     15.174
REMARK  3 active torsions:
REMARK  status: ('A' for Active; 'I' for Inactive)
REMARK    1  A    between atoms: C_1  and  N_2 
REMARK    2  A    between atoms: N_2  and  C_10 
REMARK       I    between atoms: C_13  and  N_14 
REMARK    3  A    between atoms: N_14  and  C_19 
ROOT
HETATM    1  C   UNK N   1      26.314  25.441  -4.718  0.00  0.00     0.145 C 
HETATM    2  C   UNK N   1      25.505  26.212  -5.555  0.00  0.00     0.004 C 
HETATM    3  C   UNK N   1      25.423  27.574  -5.302  0.00  0.00     0.021 C 
HETATM    4  C   UNK N   1      25.946  28.065  -4.109  0.00  0.00     0.044 C 
HETATM    5  C   UNK N   1      26.281  27.172  -3.077  0.00  0.00     0.021 C 
HETATM    6  C   UNK N   1      26.317  25.805  -3.368  0.00  0.00     0.004 C 
HETATM    7  C   UNK N   1      26.268  29.455  -4.034  0.00  0.00     0.099 C 
HETATM    8  N   UNK N   1      26.509  30.586  -4.026  0.00  0.00    -0.191 NA
ENDROOT
BRANCH   1   9
HETATM    9  N   UNK N   1      27.633  25.443  -5.210  0.00  0.00    -0.215 N 
HETATM   10  C   UNK N   1      28.749  25.075  -4.456  0.00  0.00     0.680 C 
HETATM   11  N   UNK N   1      28.918  23.775  -4.240  0.00  0.00    -0.177 N 
HETATM   12  N   UNK N   1      29.786  25.931  -4.260  0.00  0.00    -0.202 N 
HETATM   13  C   UNK N   1      30.075  23.229  -3.902  0.00  0.00     0.122 C 
ATOM     14  HN  UNK N   1      28.108  23.162  -4.342  1.00  0.00     0.186 HD
HETATM   15  C   UNK N   1      31.159  24.072  -3.615  0.00  0.00     0.066 C 
HETATM   16  C   UNK N   1      30.967  25.459  -3.766  0.00  0.00     0.110 C 
ATOM     17  HN  UNK N   1      29.682  26.921  -4.481  1.00  0.00     0.183 HD
HETATM   18  H   UNK N   1      27.778  25.720  -6.143  0.00  0.00     0.178 HD
BRANCH  13  19
HETATM   19  N   UNK N   1      30.214  21.821  -4.022  0.00  0.00    -0.341 N 
HETATM   20  H   UNK N   1      29.499  21.278  -3.621  0.00  0.00     0.167 HD
BRANCH  19  21
HETATM   21  C   UNK N   1      31.293  21.089  -4.672  0.00  0.00     0.045 A 
HETATM   22  C   UNK N   1      31.029  20.611  -5.976  0.00  0.00    -0.034 A 
HETATM   23  C   UNK N   1      29.682  20.771  -6.595  0.00  0.00     0.050 C 
HETATM   24  C   UNK N   1      32.022  19.982  -6.733  0.00  0.00     0.015 A 
HETATM   25  C   UNK N   1      33.293  19.788  -6.212  0.00  0.00    -0.061 A 
HETATM   26  C   UNK N   1      33.565  20.158  -4.913  0.00  0.00     0.015 A 
HETATM   27  C   UNK N   1      34.371  19.199  -7.044  0.00  0.00     0.048 C 
HETATM   28  C   UNK N   1      32.614  20.787  -4.120  0.00  0.00    -0.034 A 
HETATM   29  C   UNK N   1      33.122  21.021  -2.744  0.00  0.00     0.050 C 
ENDBRANCH  19  21
ENDBRANCH  13  19
ENDBRANCH   1   9
TORSDOF 3
ENDMDL
