MODEL 1
REMARK VINA RESULT:      -4.4      0.000      0.000
REMARK  9 active torsions:
REMARK  status: ('A' for Active; 'I' for Inactive)
REMARK    1  A    between atoms: C_1  and  C_2 
REMARK    2  A    between atoms: C_1  and  C_7 
REMARK    3  A    between atoms: C_1  and  O_11 
REMARK    4  A    between atoms: C_2  and  C_3 
REMARK    5  A    between atoms: C_2  and  O_6 
REMARK    6  A    between atoms: C_3  and  C_4 
REMARK    7  A    between atoms: C_7  and  C_8 
REMARK    8  A    between atoms: C_7  and  O_10 
REMARK    9  A    between atoms: C_8  and  O_9 
ROOT
HETATM    1  C   UNK N   1      34.742  16.764  10.143  0.00  0.00     0.178 C 
ENDROOT
BRANCH   1   2
HETATM    2  C   UNK N   1      34.663  15.321  10.676  0.00  0.00     0.155 C 
BRANCH   2   3
HETATM    3  C   UNK N   1      35.610  15.099  11.850  0.00  0.00     0.103 C 
BRANCH   3   4
HETATM    4  C   UNK N   1      35.487  13.720  12.401  0.00  0.00     0.233 C 
HETATM    5  O   UNK N   1      34.657  13.487  13.270  0.00  0.00    -0.307 OA
ENDBRANCH   3   4
ENDBRANCH   2   3
BRANCH   2   6
HETATM    6  O   UNK N   1      33.373  15.034  11.121  0.00  0.00    -0.393 OA
HETATM    7  H   UNK N   1      32.700  15.730  11.177  0.00  0.00     0.210 HD
ENDBRANCH   2   6
ENDBRANCH   1   2
BRANCH   1   8
HETATM    8  C   UNK N   1      34.575  16.849   8.613  0.00  0.00     0.172 C 
BRANCH   8   9
HETATM    9  C   UNK N   1      34.230  18.264   8.163  0.00  0.00     0.198 C 
BRANCH   9  10
HETATM   10  O   UNK N   1      35.257  19.149   8.485  0.00  0.00    -0.398 OA
HETATM   11  H   UNK N   1      35.492  19.929   7.959  0.00  0.00     0.209 HD
ENDBRANCH   9  10
ENDBRANCH   8   9
BRANCH   8  12
HETATM   12  O   UNK N   1      33.545  16.008   8.187  0.00  0.00    -0.391 OA
HETATM   13  H   UNK N   1      32.917  16.294   7.505  0.00  0.00     0.210 HD
ENDBRANCH   8  12
ENDBRANCH   1   8
BRANCH   1  14
HETATM   14  O   UNK N   1      35.969  17.326  10.509  0.00  0.00    -0.390 OA
HETATM   15  H   UNK N   1      36.058  17.848  11.322  0.00  0.00     0.210 HD
ENDBRANCH   1  14
TORSDOF 9
ENDMDL
MODEL 2
REMARK VINA RESULT:      -4.4      1.690      4.875
REMARK  9 active torsions:
REMARK  status: ('A' for Active; 'I' for Inactive)
REMARK    1  A    between atoms: C_1  and  C_2 
REMARK    2  A    between atoms: C_1  and  C_7 
REMARK    3  A    between atoms: C_1  and  O_11 
REMARK    4  A    between atoms: C_2  and  C_3 
REMARK    5  A    between atoms: C_2  and  O_6 
REMARK    6  A    between atoms: C_3  and  C_4 
REMARK    7  A    between atoms: C_7  and  C_8 
REMARK    8  A    between atoms: C_7  and  O_10 
REMARK    9  A    between atoms: C_8  and  O_9 
ROOT
HETATM    1  C   UNK N   1      36.215  13.833  11.373  0.00  0.00     0.178 C 
ENDROOT
BRANCH   1   2
HETATM    2  C   UNK N   1      36.172  15.085  10.476  0.00  0.00     0.155 C 
BRANCH   2   3
HETATM    3  C   UNK N   1      34.802  15.756  10.508  0.00  0.00     0.103 C 
BRANCH   3   4
HETATM    4  C   UNK N   1      34.725  16.888   9.542  0.00  0.00     0.233 C 
HETATM    5  O   UNK N   1      35.358  17.913   9.758  0.00  0.00    -0.307 OA
ENDBRANCH   3   4
ENDBRANCH   2   3
BRANCH   2   6
HETATM    6  O   UNK N   1      37.107  16.027  10.905  0.00  0.00    -0.393 OA
HETATM    7  H   UNK N   1      36.824  16.901  11.215  0.00  0.00     0.210 HD
ENDBRANCH   2   6
ENDBRANCH   1   2
BRANCH   1   8
HETATM    8  C   UNK N   1      35.329  13.963  12.628  0.00  0.00     0.172 C 
BRANCH   8   9
HETATM    9  C   UNK N   1      36.163  14.001  13.903  0.00  0.00     0.198 C 
BRANCH   9  10
HETATM   10  O   UNK N   1      36.885  15.190  13.985  0.00  0.00    -0.398 OA
HETATM   11  H   UNK N   1      36.850  15.899  13.324  0.00  0.00     0.209 HD
ENDBRANCH   9  10
ENDBRANCH   8   9
BRANCH   8  12
HETATM   12  O   UNK N   1      34.459  12.875  12.726  0.00  0.00    -0.391 OA
HETATM   13  H   UNK N   1      34.527  12.246  13.461  0.00  0.00     0.210 HD
ENDBRANCH   8  12
ENDBRANCH   1   8
BRANCH   1  14
HETATM   14  O   UNK N   1      37.535  13.585  11.760  0.00  0.00    -0.390 OA
HETATM   15  H   UNK N   1      37.744  13.273  12.655  0.00  0.00     0.210 HD
ENDBRANCH   1  14
TORSDOF 9
ENDMDL
MODEL 3
REMARK VINA RESULT:      -4.4      1.177      4.927
REMARK  9 active torsions:
REMARK  status: ('A' for Active; 'I' for Inactive)
REMARK    1  A    between atoms: C_1  and  C_2 
REMARK    2  A    between atoms: C_1  and  C_7 
REMARK    3  A    between atoms: C_1  and  O_11 
REMARK    4  A    between atoms: C_2  and  C_3 
REMARK    5  A    between atoms: C_2  and  O_6 
REMARK    6  A    between atoms: C_3  and  C_4 
REMARK    7  A    between atoms: C_7  and  C_8 
REMARK    8  A    between atoms: C_7  and  O_10 
REMARK    9  A    between atoms: C_8  and  O_9 
ROOT
HETATM    1  C   UNK N   1      34.592  15.955  10.756  0.00  0.00     0.178 C 
ENDROOT
BRANCH   1   2
HETATM    2  C   UNK N   1      34.774  16.793   9.477  0.00  0.00     0.155 C 
BRANCH   2   3
HETATM    3  C   UNK N   1      33.434  17.169   8.853  0.00  0.00     0.103 C 
BRANCH   3   4
HETATM    4  C   UNK N   1      33.601  18.159   7.751  0.00  0.00     0.233 C 
HETATM    5  O   UNK N   1      34.560  18.066   6.994  0.00  0.00    -0.307 OA
ENDBRANCH   3   4
ENDBRANCH   2   3
BRANCH   2   6
HETATM    6  O   UNK N   1      35.448  17.980   9.761  0.00  0.00    -0.393 OA
HETATM    7  H   UNK N   1      35.021  18.840   9.624  0.00  0.00     0.210 HD
ENDBRANCH   2   6
ENDBRANCH   1   2
BRANCH   1   8
HETATM    8  C   UNK N   1      35.826  15.093  11.090  0.00  0.00     0.172 C 
BRANCH   8   9
HETATM    9  C   UNK N   1      35.736  14.503  12.492  0.00  0.00     0.198 C 
BRANCH   9  10
HETATM   10  O   UNK N   1      34.608  13.694  12.616  0.00  0.00    -0.398 OA
HETATM   11  H   UNK N   1      34.183  13.230  11.878  0.00  0.00     0.209 HD
ENDBRANCH   9  10
ENDBRANCH   8   9
BRANCH   8  12
HETATM   12  O   UNK N   1      36.989  15.863  11.031  0.00  0.00    -0.391 OA
HETATM   13  H   UNK N   1      37.100  16.645  11.593  0.00  0.00     0.210 HD
ENDBRANCH   8  12
ENDBRANCH   1   8
BRANCH   1  14
HETATM   14  O   UNK N   1      33.473  15.128  10.613  0.00  0.00    -0.390 OA
HETATM   15  H   UNK N   1      33.162  14.855   9.736  0.00  0.00     0.210 HD
ENDBRANCH   1  14
TORSDOF 9
ENDMDL
MODEL 4
REMARK VINA RESULT:      -4.4     15.289     16.952
REMARK  9 active torsions:
REMARK  status: ('A' for Active; 'I' for Inactive)
REMARK    1  A    between atoms: C_1  and  C_2 
REMARK    2  A    between atoms: C_1  and  C_7 
REMARK    3  A    between atoms: C_1  and  O_11 
REMARK    4  A    between atoms: C_2  and  C_3 
REMARK    5  A    between atoms: C_2  and  O_6 
REMARK    6  A    between atoms: C_3  and  C_4 
REMARK    7  A    between atoms: C_7  and  C_8 
REMARK    8  A    between atoms: C_7  and  O_10 
REMARK    9  A    between atoms: C_8  and  O_9 
ROOT
HETATM    1  C   UNK N   1      19.510  18.350   2.888  0.00  0.00     0.178 C 
ENDROOT
BRANCH   1   2
HETATM    2  C   UNK N   1      20.290  19.678   2.921  0.00  0.00     0.155 C 
BRANCH   2   3
HETATM    3  C   UNK N   1      21.725  19.478   3.398  0.00  0.00     0.103 C 
BRANCH   3   4
HETATM    4  C   UNK N   1      22.667  20.398   2.701  0.00  0.00     0.233 C 
HETATM    5  O   UNK N   1      22.567  21.607   2.866  0.00  0.00    -0.307 OA
ENDBRANCH   3   4
ENDBRANCH   2   3
BRANCH   2   6
HETATM    6  O   UNK N   1      20.349  20.243   1.648  0.00  0.00    -0.393 OA
HETATM    7  H   UNK N   1      19.745  19.952   0.947  0.00  0.00     0.210 HD
ENDBRANCH   2   6
ENDBRANCH   1   2
BRANCH   1   8
HETATM    8  C   UNK N   1      20.305  17.202   2.235  0.00  0.00     0.172 C 
BRANCH   8   9
HETATM    9  C   UNK N   1      19.805  16.902   0.828  0.00  0.00     0.198 C 
BRANCH   9  10
HETATM   10  O   UNK N   1      20.309  17.828  -0.084  0.00  0.00    -0.398 OA
HETATM   11  H   UNK N   1      20.072  18.769  -0.096  0.00  0.00     0.209 HD
ENDBRANCH   9  10
ENDBRANCH   8   9
BRANCH   8  12
HETATM   12  O   UNK N   1      20.179  16.032   2.986  0.00  0.00    -0.391 OA
HETATM   13  H   UNK N   1      19.611  15.305   2.686  0.00  0.00     0.210 HD
ENDBRANCH   8  12
ENDBRANCH   1   8
BRANCH   1  14
HETATM   14  O   UNK N   1      18.309  18.535   2.197  0.00  0.00    -0.390 OA
HETATM   15  H   UNK N   1      18.149  19.340   1.678  0.00  0.00     0.210 HD
ENDBRANCH   1  14
TORSDOF 9
ENDMDL
MODEL 5
REMARK VINA RESULT:      -4.3     16.142     17.295
REMARK  9 active torsions:
REMARK  status: ('A' for Active; 'I' for Inactive)
REMARK    1  A    between atoms: C_1  and  C_2 
REMARK    2  A    between atoms: C_1  and  C_7 
REMARK    3  A    between atoms: C_1  and  O_11 
REMARK    4  A    between atoms: C_2  and  C_3 
REMARK    5  A    between atoms: C_2  and  O_6 
REMARK    6  A    between atoms: C_3  and  C_4 
REMARK    7  A    between atoms: C_7  and  C_8 
REMARK    8  A    between atoms: C_7  and  O_10 
REMARK    9  A    between atoms: C_8  and  O_9 
ROOT
HETATM    1  C   UNK N   1      20.680  17.560   2.267  0.00  0.00     0.178 C 
ENDROOT
BRANCH   1   2
HETATM    2  C   UNK N   1      20.095  18.862   2.846  0.00  0.00     0.155 C 
BRANCH   2   3
HETATM    3  C   UNK N   1      21.059  20.033   2.690  0.00  0.00     0.103 C 
BRANCH   3   4
HETATM    4  C   UNK N   1      20.727  20.860   1.495  0.00  0.00     0.233 C 
HETATM    5  O   UNK N   1      21.173  20.546   0.399  0.00  0.00    -0.307 OA
ENDBRANCH   3   4
ENDBRANCH   2   3
BRANCH   2   6
HETATM    6  O   UNK N   1      18.914  19.203   2.189  0.00  0.00    -0.393 OA
HETATM    7  H   UNK N   1      18.589  18.673   1.444  0.00  0.00     0.210 HD
ENDBRANCH   2   6
ENDBRANCH   1   2
BRANCH   1   8
HETATM    8  C   UNK N   1      19.893  17.038   1.048  0.00  0.00     0.172 C 
BRANCH   8   9
HETATM    9  C   UNK N   1      20.103  15.543   0.842  0.00  0.00     0.198 C 
BRANCH   9  10
HETATM   10  O   UNK N   1      21.459  15.249   0.703  0.00  0.00    -0.398 OA
HETATM   11  H   UNK N   1      22.177  15.798   1.055  0.00  0.00     0.209 HD
ENDBRANCH   9  10
ENDBRANCH   8   9
BRANCH   8  12
HETATM   12  O   UNK N   1      20.311  17.686  -0.116  0.00  0.00    -0.391 OA
HETATM   13  H   UNK N   1      21.251  17.745  -0.345  0.00  0.00     0.210 HD
ENDBRANCH   8  12
ENDBRANCH   1   8
BRANCH   1  14
HETATM   14  O   UNK N   1      20.701  16.578   3.262  0.00  0.00    -0.390 OA
HETATM   15  H   UNK N   1      21.087  16.758   4.134  0.00  0.00     0.210 HD
ENDBRANCH   1  14
TORSDOF 9
ENDMDL
MODEL 6
REMARK VINA RESULT:      -4.3      1.638      2.986
REMARK  9 active torsions:
REMARK  status: ('A' for Active; 'I' for Inactive)
REMARK    1  A    between atoms: C_1  and  C_2 
REMARK    2  A    between atoms: C_1  and  C_7 
REMARK    3  A    between atoms: C_1  and  O_11 
REMARK    4  A    between atoms: C_2  and  C_3 
REMARK    5  A    between atoms: C_2  and  O_6 
REMARK    6  A    between atoms: C_3  and  C_4 
REMARK    7  A    between atoms: C_7  and  C_8 
REMARK    8  A    between atoms: C_7  and  O_10 
REMARK    9  A    between atoms: C_8  and  O_9 
ROOT
HETATM    1  C   UNK N   1      35.114  14.755  11.377  0.00  0.00     0.178 C 
ENDROOT
BRANCH   1   2
HETATM    2  C   UNK N   1      35.764  14.287  12.693  0.00  0.00     0.155 C 
BRANCH   2   3
HETATM    3  C   UNK N   1      35.033  13.087  13.287  0.00  0.00     0.103 C 
BRANCH   3   4
HETATM    4  C   UNK N   1      35.200  13.023  14.767  0.00  0.00     0.233 C 
HETATM    5  O   UNK N   1      34.210  13.003  15.487  0.00  0.00    -0.307 OA
ENDBRANCH   3   4
ENDBRANCH   2   3
BRANCH   2   6
HETATM    6  O   UNK N   1      37.087  13.904  12.476  0.00  0.00    -0.393 OA
HETATM    7  H   UNK N   1      37.814  14.344  12.942  0.00  0.00     0.210 HD
ENDBRANCH   2   6
ENDBRANCH   1   2
BRANCH   1   8
HETATM    8  C   UNK N   1      35.594  16.152  10.934  0.00  0.00     0.172 C 
BRANCH   8   9
HETATM    9  C   UNK N   1      35.025  16.536   9.574  0.00  0.00     0.198 C 
BRANCH   9  10
HETATM   10  O   UNK N   1      33.831  17.242   9.719  0.00  0.00    -0.398 OA
HETATM   11  H   UNK N   1      32.956  16.888   9.497  0.00  0.00     0.209 HD
ENDBRANCH   9  10
ENDBRANCH   8   9
BRANCH   8  12
HETATM   12  O   UNK N   1      36.986  16.180  10.832  0.00  0.00    -0.391 OA
HETATM   13  H   UNK N   1      37.542  15.669  11.440  0.00  0.00     0.210 HD
ENDBRANCH   8  12
ENDBRANCH   1   8
BRANCH   1  14
HETATM   14  O   UNK N   1      33.724  14.766  11.525  0.00  0.00    -0.390 OA
HETATM   15  H   UNK N   1      33.255  14.006  11.905  0.00  0.00     0.210 HD
ENDBRANCH   1  14
TORSDOF 9
ENDMDL
MODEL 7
REMARK VINA RESULT:      -4.2      2.364      3.628
REMARK  9 active torsions:
REMARK  status: ('A' for Active; 'I' for Inactive)
REMARK    1  A    between atoms: C_1  and  C_2 
REMARK    2  A    between atoms: C_1  and  C_7 
REMARK    3  A    between atoms: C_1  and  O_11 
REMARK    4  A    between atoms: C_2  and  C_3 
REMARK    5  A    between atoms: C_2  and  O_6 
REMARK    6  A    between atoms: C_3  and  C_4 
REMARK    7  A    between atoms: C_7  and  C_8 
REMARK    8  A    between atoms: C_7  and  O_10 
REMARK    9  A    between atoms: C_8  and  O_9 
ROOT
HETATM    1  C   UNK N   1      35.535  14.392  12.970  0.00  0.00     0.178 C 
ENDROOT
BRANCH   1   2
HETATM    2  C   UNK N   1      35.518  12.870  13.208  0.00  0.00     0.155 C 
BRANCH   2   3
HETATM    3  C   UNK N   1      35.954  12.515  14.625  0.00  0.00     0.103 C 
BRANCH   3   4
HETATM    4  C   UNK N   1      34.785  12.235  15.505  0.00  0.00     0.233 C 
HETATM    5  O   UNK N   1      34.072  13.158  15.878  0.00  0.00    -0.307 OA
ENDBRANCH   3   4
ENDBRANCH   2   3
BRANCH   2   6
HETATM    6  O   UNK N   1      34.232  12.361  13.028  0.00  0.00    -0.393 OA
HETATM    7  H   UNK N   1      34.082  11.406  12.957  0.00  0.00     0.210 HD
ENDBRANCH   2   6
ENDBRANCH   1   2
BRANCH   1   8
HETATM    8  C   UNK N   1      35.113  14.781  11.540  0.00  0.00     0.172 C 
BRANCH   8   9
HETATM    9  C   UNK N   1      35.608  16.174  11.167  0.00  0.00     0.198 C 
BRANCH   9  10
HETATM   10  O   UNK N   1      36.951  16.137  10.794  0.00  0.00    -0.398 OA
HETATM   11  H   UNK N   1      37.288  15.680  10.008  0.00  0.00     0.209 HD
ENDBRANCH   9  10
ENDBRANCH   8   9
BRANCH   8  12
HETATM   12  O   UNK N   1      33.721  14.785  11.425  0.00  0.00    -0.391 OA
HETATM   13  H   UNK N   1      33.162  14.401  12.118  0.00  0.00     0.210 HD
ENDBRANCH   8  12
ENDBRANCH   1   8
BRANCH   1  14
HETATM   14  O   UNK N   1      36.817  14.887  13.227  0.00  0.00    -0.390 OA
HETATM   15  H   UNK N   1      37.421  15.112  12.501  0.00  0.00     0.210 HD
ENDBRANCH   1  14
TORSDOF 9
ENDMDL
MODEL 8
REMARK VINA RESULT:      -4.2      1.767      3.067
REMARK  9 active torsions:
REMARK  status: ('A' for Active; 'I' for Inactive)
REMARK    1  A    between atoms: C_1  and  C_2 
REMARK    2  A    between atoms: C_1  and  C_7 
REMARK    3  A    between atoms: C_1  and  O_11 
REMARK    4  A    between atoms: C_2  and  C_3 
REMARK    5  A    between atoms: C_2  and  O_6 
REMARK    6  A    between atoms: C_3  and  C_4 
REMARK    7  A    between atoms: C_7  and  C_8 
REMARK    8  A    between atoms: C_7  and  O_10 
REMARK    9  A    between atoms: C_8  and  O_9 
ROOT
HETATM    1  C   UNK N   1      35.087  14.704  11.432  0.00  0.00     0.178 C 
ENDROOT
BRANCH   1   2
HETATM    2  C   UNK N   1      35.589  14.102  12.758  0.00  0.00     0.155 C 
BRANCH   2   3
HETATM    3  C   UNK N   1      36.073  12.667  12.580  0.00  0.00     0.103 C 
BRANCH   3   4
HETATM    4  C   UNK N   1      36.876  12.510  11.334  0.00  0.00     0.233 C 
HETATM    5  O   UNK N   1      37.985  13.023  11.260  0.00  0.00    -0.307 OA
ENDBRANCH   3   4
ENDBRANCH   2   3
BRANCH   2   6
HETATM    6  O   UNK N   1      36.660  14.843  13.258  0.00  0.00    -0.393 OA
HETATM    7  H   UNK N   1      36.508  15.661  13.756  0.00  0.00     0.210 HD
ENDBRANCH   2   6
ENDBRANCH   1   2
BRANCH   1   8
HETATM    8  C   UNK N   1      35.689  16.092  11.137  0.00  0.00     0.172 C 
BRANCH   8   9
HETATM    9  C   UNK N   1      35.001  16.763   9.954  0.00  0.00     0.198 C 
BRANCH   9  10
HETATM   10  O   UNK N   1      35.516  18.040   9.742  0.00  0.00    -0.398 OA
HETATM   11  H   UNK N   1      35.824  18.630  10.447  0.00  0.00     0.209 HD
ENDBRANCH   9  10
ENDBRANCH   8   9
BRANCH   8  12
HETATM   12  O   UNK N   1      37.045  15.980  10.826  0.00  0.00    -0.391 OA
HETATM   13  H   UNK N   1      37.477  15.113  10.779  0.00  0.00     0.210 HD
ENDBRANCH   8  12
ENDBRANCH   1   8
BRANCH   1  14
HETATM   14  O   UNK N   1      33.693  14.799  11.465  0.00  0.00    -0.390 OA
HETATM   15  H   UNK N   1      33.138  14.198  10.943  0.00  0.00     0.210 HD
ENDBRANCH   1  14
TORSDOF 9
ENDMDL
MODEL 9
REMARK VINA RESULT:      -4.2      1.572      2.494
REMARK  9 active torsions:
REMARK  status: ('A' for Active; 'I' for Inactive)
REMARK    1  A    between atoms: C_1  and  C_2 
REMARK    2  A    between atoms: C_1  and  C_7 
REMARK    3  A    between atoms: C_1  and  O_11 
REMARK    4  A    between atoms: C_2  and  C_3 
REMARK    5  A    between atoms: C_2  and  O_6 
REMARK    6  A    between atoms: C_3  and  C_4 
REMARK    7  A    between atoms: C_7  and  C_8 
REMARK    8  A    between atoms: C_7  and  O_10 
REMARK    9  A    between atoms: C_8  and  O_9 
ROOT
HETATM    1  C   UNK N   1      35.849  15.392  11.611  0.00  0.00     0.178 C 
ENDROOT
BRANCH   1   2
HETATM    2  C   UNK N   1      36.413  14.172  12.364  0.00  0.00     0.155 C 
BRANCH   2   3
HETATM    3  C   UNK N   1      36.392  14.382  13.875  0.00  0.00     0.103 C 
BRANCH   3   4
HETATM    4  C   UNK N   1      35.723  13.249  14.575  0.00  0.00     0.233 C 
HETATM    5  O   UNK N   1      34.500  13.192  14.603  0.00  0.00    -0.307 OA
ENDBRANCH   3   4
ENDBRANCH   2   3
BRANCH   2   6
HETATM    6  O   UNK N   1      35.654  13.035  12.091  0.00  0.00    -0.393 OA
HETATM    7  H   UNK N   1      35.258  12.517  12.809  0.00  0.00     0.210 HD
ENDBRANCH   2   6
ENDBRANCH   1   2
BRANCH   1   8
HETATM    8  C   UNK N   1      34.740  15.018  10.607  0.00  0.00     0.172 C 
BRANCH   8   9
HETATM    9  C   UNK N   1      34.614  16.055   9.498  0.00  0.00     0.198 C 
BRANCH   9  10
HETATM   10  O   UNK N   1      34.492  17.337  10.032  0.00  0.00    -0.398 OA
HETATM   11  H   UNK N   1      34.655  17.560  10.962  0.00  0.00     0.209 HD
ENDBRANCH   9  10
ENDBRANCH   8   9
BRANCH   8  12
HETATM   12  O   UNK N   1      33.504  14.938  11.252  0.00  0.00    -0.391 OA
HETATM   13  H   UNK N   1      32.990  14.116  11.246  0.00  0.00     0.210 HD
ENDBRANCH   8  12
ENDBRANCH   1   8
BRANCH   1  14
HETATM   14  O   UNK N   1      36.887  16.041  10.937  0.00  0.00    -0.390 OA
HETATM   15  H   UNK N   1      37.413  15.579  10.264  0.00  0.00     0.210 HD
ENDBRANCH   1  14
TORSDOF 9
ENDMDL
