MODEL 1
REMARK VINA RESULT:      -5.7      0.000      0.000
REMARK  8 active torsions:
REMARK  status: ('A' for Active; 'I' for Inactive)
REMARK    1  A    between atoms: N_2  and  C_9 
REMARK    2  A    between atoms: N_2  and  C_11 
REMARK    3  A    between atoms: N_2  and  C_12 
REMARK    4  A    between atoms: N_3  and  C_8 
REMARK    5  A    between atoms: N_3  and  C_13 
REMARK    6  A    between atoms: C_6  and  C_7 
REMARK    7  A    between atoms: C_6  and  C_8 
REMARK    8  A    between atoms: C_7  and  C_9 
ROOT
HETATM    1 Cl   UNK N   1      27.055  31.037  -3.011  0.00  0.00    -0.084 Cl
HETATM    2  N   UNK N   1      28.069  28.480  -7.322  0.00  0.00    -0.365 N 
ATOM      3  HN  UNK N   1      28.743  29.215  -7.536  1.00  0.00     0.165 HD
HETATM    4  C   UNK N   1      26.237  26.483  -6.749  0.00  0.00     0.042 A 
HETATM    5  C   UNK N   1      26.402  27.553  -5.861  0.00  0.00     0.017 A 
HETATM    6  C   UNK N   1      27.005  26.426  -7.915  0.00  0.00     0.047 A 
HETATM    7  C   UNK N   1      27.345  28.557  -6.174  0.00  0.00     0.046 A 
HETATM    8  C   UNK N   1      25.679  27.627  -4.664  0.00  0.00     0.018 A 
HETATM    9  C   UNK N   1      27.914  27.445  -8.193  0.00  0.00     0.090 A 
HETATM   10  C   UNK N   1      27.544  29.622  -5.292  0.00  0.00     0.054 A 
HETATM   11  C   UNK N   1      25.883  28.697  -3.788  0.00  0.00     0.025 A 
HETATM   12  C   UNK N   1      26.813  29.693  -4.103  0.00  0.00     0.036 A 
ENDROOT
BRANCH   4  13
HETATM   13  N   UNK N   1      25.384  25.410  -6.426  0.00  0.00    -0.385 N 
HETATM   14  H   UNK N   1      24.407  25.485  -6.519  0.00  0.00     0.160 HD
BRANCH  13  15
HETATM   15  C   UNK N   1      26.001  24.204  -5.956  0.00  0.00     0.077 C 
HETATM   16  C   UNK N   1      25.731  22.987  -6.825  0.00  0.00     0.032 C 
BRANCH  15  17
HETATM   17  C   UNK N   1      26.012  24.091  -4.433  0.00  0.00     0.026 C 
BRANCH  17  18
HETATM   18  C   UNK N   1      27.326  24.468  -3.777  0.00  0.00     0.032 C 
BRANCH  18  19
HETATM   19  C   UNK N   1      28.541  24.287  -4.697  0.00  0.00     0.272 C 
BRANCH  19  20
HETATM   20  N   UNK N   1      29.193  22.986  -4.497  0.00  0.00     0.087 N 
BRANCH  20  21
HETATM   21  C   UNK N   1      30.486  23.186  -3.827  0.00  0.00     0.268 C 
HETATM   22  C   UNK N   1      30.365  22.926  -2.338  0.00  0.00     0.037 C 
ENDBRANCH  20  21
BRANCH  20  23
HETATM   23  C   UNK N   1      29.298  22.356  -5.822  0.00  0.00     0.268 C 
HETATM   24  C   UNK N   1      30.248  21.168  -5.915  0.00  0.00     0.037 C 
ENDBRANCH  20  23
ENDBRANCH  19  20
ENDBRANCH  18  19
ENDBRANCH  17  18
ENDBRANCH  15  17
ENDBRANCH  13  15
ENDBRANCH   4  13
TORSDOF 8
ENDMDL
MODEL 2
REMARK VINA RESULT:      -5.1     12.357     14.690
REMARK  8 active torsions:
REMARK  status: ('A' for Active; 'I' for Inactive)
REMARK    1  A    between atoms: N_2  and  C_9 
REMARK    2  A    between atoms: N_2  and  C_11 
REMARK    3  A    between atoms: N_2  and  C_12 
REMARK    4  A    between atoms: N_3  and  C_8 
REMARK    5  A    between atoms: N_3  and  C_13 
REMARK    6  A    between atoms: C_6  and  C_7 
REMARK    7  A    between atoms: C_6  and  C_8 
REMARK    8  A    between atoms: C_7  and  C_9 
ROOT
HETATM    1 Cl   UNK N   1      32.574  16.502   8.769  0.00  0.00    -0.084 Cl
HETATM    2  N   UNK N   1      30.009  16.494   4.345  0.00  0.00    -0.365 N 
ATOM      3  HN  UNK N   1      30.753  15.901   3.976  1.00  0.00     0.165 HD
HETATM    4  C   UNK N   1      27.987  18.106   5.337  0.00  0.00     0.042 A 
HETATM    5  C   UNK N   1      29.064  17.753   6.160  0.00  0.00     0.017 A 
HETATM    6  C   UNK N   1      27.935  17.635   4.024  0.00  0.00     0.047 A 
HETATM    7  C   UNK N   1      30.081  16.927   5.631  0.00  0.00     0.046 A 
HETATM    8  C   UNK N   1      29.134  18.174   7.494  0.00  0.00     0.018 A 
HETATM    9  C   UNK N   1      28.967  16.833   3.537  0.00  0.00     0.090 A 
HETATM   10  C   UNK N   1      31.154  16.542   6.440  0.00  0.00     0.054 A 
HETATM   11  C   UNK N   1      30.212  17.786   8.294  0.00  0.00     0.025 A 
HETATM   12  C   UNK N   1      31.220  16.974   7.767  0.00  0.00     0.036 A 
ENDROOT
BRANCH   4  13
HETATM   13  N   UNK N   1      26.904  18.841   5.855  0.00  0.00    -0.385 N 
HETATM   14  H   UNK N   1      26.293  18.455   6.524  0.00  0.00     0.160 HD
BRANCH  13  15
HETATM   15  C   UNK N   1      26.728  20.178   5.365  0.00  0.00     0.077 C 
HETATM   16  C   UNK N   1      27.008  21.260   6.395  0.00  0.00     0.032 C 
BRANCH  15  17
HETATM   17  C   UNK N   1      25.562  20.309   4.389  0.00  0.00     0.026 C 
BRANCH  17  18
HETATM   18  C   UNK N   1      24.510  19.225   4.504  0.00  0.00     0.032 C 
BRANCH  18  19
HETATM   19  C   UNK N   1      23.301  19.447   3.585  0.00  0.00     0.272 C 
BRANCH  19  20
HETATM   20  N   UNK N   1      22.192  18.538   3.906  0.00  0.00     0.087 N 
BRANCH  20  21
HETATM   21  C   UNK N   1      20.923  19.276   3.846  0.00  0.00     0.268 C 
HETATM   22  C   UNK N   1      21.009  20.413   2.847  0.00  0.00     0.037 C 
ENDBRANCH  20  21
BRANCH  20  23
HETATM   23  C   UNK N   1      22.487  17.960   5.226  0.00  0.00     0.268 C 
HETATM   24  C   UNK N   1      21.428  18.193   6.299  0.00  0.00     0.037 C 
ENDBRANCH  20  23
ENDBRANCH  19  20
ENDBRANCH  18  19
ENDBRANCH  17  18
ENDBRANCH  15  17
ENDBRANCH  13  15
ENDBRANCH   4  13
TORSDOF 8
ENDMDL
MODEL 3
REMARK VINA RESULT:      -4.9     17.996     22.613
REMARK  8 active torsions:
REMARK  status: ('A' for Active; 'I' for Inactive)
REMARK    1  A    between atoms: N_2  and  C_9 
REMARK    2  A    between atoms: N_2  and  C_11 
REMARK    3  A    between atoms: N_2  and  C_12 
REMARK    4  A    between atoms: N_3  and  C_8 
REMARK    5  A    between atoms: N_3  and  C_13 
REMARK    6  A    between atoms: C_6  and  C_7 
REMARK    7  A    between atoms: C_6  and  C_8 
REMARK    8  A    between atoms: C_7  and  C_9 
ROOT
HETATM    1 Cl   UNK N   1      34.945  13.090  17.611  0.00  0.00    -0.084 Cl
HETATM    2  N   UNK N   1      33.720  10.624  13.302  0.00  0.00    -0.365 N 
ATOM      3  HN  UNK N   1      33.072  10.073  13.865  1.00  0.00     0.165 HD
HETATM    4  C   UNK N   1      35.477  12.117  11.767  0.00  0.00     0.042 A 
HETATM    5  C   UNK N   1      35.379  12.354  13.144  0.00  0.00     0.017 A 
HETATM    6  C   UNK N   1      34.681  11.134  11.176  0.00  0.00     0.047 A 
HETATM    7  C   UNK N   1      34.473  11.582  13.904  0.00  0.00     0.046 A 
HETATM    8  C   UNK N   1      36.134  13.356  13.769  0.00  0.00     0.018 A 
HETATM    9  C   UNK N   1      33.809  10.385  11.965  0.00  0.00     0.090 A 
HETATM   10  C   UNK N   1      34.341  11.817  15.275  0.00  0.00     0.054 A 
HETATM   11  C   UNK N   1      35.997  13.582  15.141  0.00  0.00     0.025 A 
HETATM   12  C   UNK N   1      35.103  12.813  15.892  0.00  0.00     0.036 A 
ENDROOT
BRANCH   4  13
HETATM   13  N   UNK N   1      36.292  12.932  10.958  0.00  0.00    -0.385 N 
HETATM   14  H   UNK N   1      37.266  12.981  11.092  0.00  0.00     0.160 HD
BRANCH  13  15
HETATM   15  C   UNK N   1      35.640  13.688   9.928  0.00  0.00     0.077 C 
HETATM   16  C   UNK N   1      36.413  13.756   8.621  0.00  0.00     0.032 C 
BRANCH  15  17
HETATM   17  C   UNK N   1      34.896  14.910  10.461  0.00  0.00     0.026 C 
BRANCH  17  18
HETATM   18  C   UNK N   1      34.688  16.020   9.451  0.00  0.00     0.032 C 
BRANCH  18  19
HETATM   19  C   UNK N   1      33.230  16.164   8.994  0.00  0.00     0.272 C 
BRANCH  19  20
HETATM   20  N   UNK N   1      32.969  17.481   8.396  0.00  0.00     0.087 N 
BRANCH  20  21
HETATM   21  C   UNK N   1      31.598  17.516   7.871  0.00  0.00     0.268 C 
HETATM   22  C   UNK N   1      30.658  18.171   8.865  0.00  0.00     0.037 C 
ENDBRANCH  20  21
BRANCH  20  23
HETATM   23  C   UNK N   1      34.006  17.694   7.374  0.00  0.00     0.268 C 
HETATM   24  C   UNK N   1      33.562  17.484   5.931  0.00  0.00     0.037 C 
ENDBRANCH  20  23
ENDBRANCH  19  20
ENDBRANCH  18  19
ENDBRANCH  17  18
ENDBRANCH  15  17
ENDBRANCH  13  15
ENDBRANCH   4  13
TORSDOF 8
ENDMDL
MODEL 4
REMARK VINA RESULT:      -4.9     11.365     13.374
REMARK  8 active torsions:
REMARK  status: ('A' for Active; 'I' for Inactive)
REMARK    1  A    between atoms: N_2  and  C_9 
REMARK    2  A    between atoms: N_2  and  C_11 
REMARK    3  A    between atoms: N_2  and  C_12 
REMARK    4  A    between atoms: N_3  and  C_8 
REMARK    5  A    between atoms: N_3  and  C_13 
REMARK    6  A    between atoms: C_6  and  C_7 
REMARK    7  A    between atoms: C_6  and  C_8 
REMARK    8  A    between atoms: C_7  and  C_9 
ROOT
HETATM    1 Cl   UNK N   1      26.849  20.282   3.616  0.00  0.00    -0.084 Cl
HETATM    2  N   UNK N   1      21.917  20.698   2.330  0.00  0.00    -0.365 N 
ATOM      3  HN  UNK N   1      22.195  21.475   1.730  1.00  0.00     0.165 HD
HETATM    4  C   UNK N   1      21.156  18.591   3.959  0.00  0.00     0.042 A 
HETATM    5  C   UNK N   1      22.500  18.981   3.906  0.00  0.00     0.017 A 
HETATM    6  C   UNK N   1      20.209  19.263   3.183  0.00  0.00     0.047 A 
HETATM    7  C   UNK N   1      22.863  20.056   3.064  0.00  0.00     0.046 A 
HETATM    8  C   UNK N   1      23.486  18.308   4.640  0.00  0.00     0.018 A 
HETATM    9  C   UNK N   1      20.608  20.328   2.377  0.00  0.00     0.090 A 
HETATM   10  C   UNK N   1      24.202  20.447   2.977  0.00  0.00     0.054 A 
HETATM   11  C   UNK N   1      24.822  18.709   4.547  0.00  0.00     0.025 A 
HETATM   12  C   UNK N   1      25.178  19.777   3.718  0.00  0.00     0.036 A 
ENDROOT
BRANCH   4  13
HETATM   13  N   UNK N   1      20.768  17.461   4.705  0.00  0.00    -0.385 N 
HETATM   14  H   UNK N   1      20.956  17.393   5.669  0.00  0.00     0.160 HD
BRANCH  13  15
HETATM   15  C   UNK N   1      20.089  16.414   3.998  0.00  0.00     0.077 C 
HETATM   16  C   UNK N   1      19.016  15.709   4.810  0.00  0.00     0.032 C 
BRANCH  15  17
HETATM   17  C   UNK N   1      21.006  15.629   3.063  0.00  0.00     0.026 C 
BRANCH  17  18
HETATM   18  C   UNK N   1      21.553  14.340   3.643  0.00  0.00     0.032 C 
BRANCH  18  19
HETATM   19  C   UNK N   1      23.046  14.411   3.988  0.00  0.00     0.272 C 
BRANCH  19  20
HETATM   20  N   UNK N   1      23.873  14.672   2.801  0.00  0.00     0.087 N 
BRANCH  20  21
HETATM   21  C   UNK N   1      23.875  13.484   1.937  0.00  0.00     0.268 C 
HETATM   22  C   UNK N   1      23.573  13.863   0.500  0.00  0.00     0.037 C 
ENDBRANCH  20  21
BRANCH  20  23
HETATM   23  C   UNK N   1      25.205  15.059   3.289  0.00  0.00     0.268 C 
HETATM   24  C   UNK N   1      25.972  16.039   2.408  0.00  0.00     0.037 C 
ENDBRANCH  20  23
ENDBRANCH  19  20
ENDBRANCH  18  19
ENDBRANCH  17  18
ENDBRANCH  15  17
ENDBRANCH  13  15
ENDBRANCH   4  13
TORSDOF 8
ENDMDL
MODEL 5
REMARK VINA RESULT:      -4.9     19.105     23.725
REMARK  8 active torsions:
REMARK  status: ('A' for Active; 'I' for Inactive)
REMARK    1  A    between atoms: N_2  and  C_9 
REMARK    2  A    between atoms: N_2  and  C_11 
REMARK    3  A    between atoms: N_2  and  C_12 
REMARK    4  A    between atoms: N_3  and  C_8 
REMARK    5  A    between atoms: N_3  and  C_13 
REMARK    6  A    between atoms: C_6  and  C_7 
REMARK    7  A    between atoms: C_6  and  C_8 
REMARK    8  A    between atoms: C_7  and  C_9 
ROOT
HETATM    1 Cl   UNK N   1      35.230  11.513  18.611  0.00  0.00    -0.084 Cl
HETATM    2  N   UNK N   1      37.042  10.158  14.025  0.00  0.00    -0.365 N 
ATOM      3  HN  UNK N   1      37.085   9.204  14.384  1.00  0.00     0.165 HD
HETATM    4  C   UNK N   1      36.927  12.746  13.045  0.00  0.00     0.042 A 
HETATM    5  C   UNK N   1      36.536  12.482  14.363  0.00  0.00     0.017 A 
HETATM    6  C   UNK N   1      37.365  11.700  12.230  0.00  0.00     0.047 A 
HETATM    7  C   UNK N   1      36.600  11.153  14.838  0.00  0.00     0.046 A 
HETATM    8  C   UNK N   1      36.057  13.497  15.201  0.00  0.00     0.018 A 
HETATM    9  C   UNK N   1      37.426  10.405  12.742  0.00  0.00     0.090 A 
HETATM   10  C   UNK N   1      36.193  10.862  16.143  0.00  0.00     0.054 A 
HETATM   11  C   UNK N   1      35.654  13.197  16.505  0.00  0.00     0.025 A 
HETATM   12  C   UNK N   1      35.724  11.882  16.974  0.00  0.00     0.036 A 
ENDROOT
BRANCH   4  13
HETATM   13  N   UNK N   1      36.782  14.037  12.501  0.00  0.00    -0.385 N 
HETATM   14  H   UNK N   1      37.054  14.839  13.002  0.00  0.00     0.160 HD
BRANCH  13  15
HETATM   15  C   UNK N   1      36.221  14.131  11.185  0.00  0.00     0.077 C 
HETATM   16  C   UNK N   1      37.234  14.445  10.097  0.00  0.00     0.032 C 
BRANCH  15  17
HETATM   17  C   UNK N   1      34.834  14.768  11.169  0.00  0.00     0.026 C 
BRANCH  17  18
HETATM   18  C   UNK N   1      34.332  15.169   9.796  0.00  0.00     0.032 C 
BRANCH  18  19
HETATM   19  C   UNK N   1      34.335  16.685   9.564  0.00  0.00     0.272 C 
BRANCH  19  20
HETATM   20  N   UNK N   1      34.694  17.029   8.181  0.00  0.00     0.087 N 
BRANCH  20  21
HETATM   21  C   UNK N   1      33.726  17.999   7.652  0.00  0.00     0.268 C 
HETATM   22  C   UNK N   1      32.404  17.894   8.386  0.00  0.00     0.037 C 
ENDBRANCH  20  21
BRANCH  20  23
HETATM   23  C   UNK N   1      34.744  15.765   7.430  0.00  0.00     0.268 C 
HETATM   24  C   UNK N   1      34.411  15.866   5.946  0.00  0.00     0.037 C 
ENDBRANCH  20  23
ENDBRANCH  19  20
ENDBRANCH  18  19
ENDBRANCH  17  18
ENDBRANCH  15  17
ENDBRANCH  13  15
ENDBRANCH   4  13
TORSDOF 8
ENDMDL
MODEL 6
REMARK VINA RESULT:      -4.8     12.058     14.590
REMARK  8 active torsions:
REMARK  status: ('A' for Active; 'I' for Inactive)
REMARK    1  A    between atoms: N_2  and  C_9 
REMARK    2  A    between atoms: N_2  and  C_11 
REMARK    3  A    between atoms: N_2  and  C_12 
REMARK    4  A    between atoms: N_3  and  C_8 
REMARK    5  A    between atoms: N_3  and  C_13 
REMARK    6  A    between atoms: C_6  and  C_7 
REMARK    7  A    between atoms: C_6  and  C_8 
REMARK    8  A    between atoms: C_7  and  C_9 
ROOT
HETATM    1 Cl   UNK N   1      24.488  20.573   3.154  0.00  0.00    -0.084 Cl
HETATM    2  N   UNK N   1      27.388  16.430   3.913  0.00  0.00    -0.365 N 
ATOM      3  HN  UNK N   1      26.874  15.996   3.147  1.00  0.00     0.165 HD
HETATM    4  C   UNK N   1      28.787  17.603   5.996  0.00  0.00     0.042 A 
HETATM    5  C   UNK N   1      27.769  18.317   5.351  0.00  0.00     0.017 A 
HETATM    6  C   UNK N   1      29.096  16.307   5.578  0.00  0.00     0.047 A 
HETATM    7  C   UNK N   1      27.073  17.698   4.289  0.00  0.00     0.046 A 
HETATM    8  C   UNK N   1      27.454  19.632   5.716  0.00  0.00     0.018 A 
HETATM    9  C   UNK N   1      28.375  15.728   4.535  0.00  0.00     0.090 A 
HETATM   10  C   UNK N   1      26.069  18.399   3.616  0.00  0.00     0.054 A 
HETATM   11  C   UNK N   1      26.448  20.324   5.038  0.00  0.00     0.025 A 
HETATM   12  C   UNK N   1      25.756  19.707   3.991  0.00  0.00     0.036 A 
ENDROOT
BRANCH   4  13
HETATM   13  N   UNK N   1      29.573  18.219   6.989  0.00  0.00    -0.385 N 
HETATM   14  H   UNK N   1      30.147  18.992   6.784  0.00  0.00     0.160 HD
BRANCH  13  15
HETATM   15  C   UNK N   1      29.501  17.671   8.312  0.00  0.00     0.077 C 
HETATM   16  C   UNK N   1      28.186  17.939   9.026  0.00  0.00     0.032 C 
BRANCH  15  17
HETATM   17  C   UNK N   1      30.828  17.742   9.064  0.00  0.00     0.026 C 
BRANCH  17  18
HETATM   18  C   UNK N   1      32.047  17.937   8.185  0.00  0.00     0.032 C 
BRANCH  18  19
HETATM   19  C   UNK N   1      32.738  16.622   7.800  0.00  0.00     0.272 C 
BRANCH  19  20
HETATM   20  N   UNK N   1      32.546  16.295   6.380  0.00  0.00     0.087 N 
BRANCH  20  21
HETATM   21  C   UNK N   1      33.278  15.062   6.060  0.00  0.00     0.268 C 
HETATM   22  C   UNK N   1      32.781  13.906   6.907  0.00  0.00     0.037 C 
ENDBRANCH  20  21
BRANCH  20  23
HETATM   23  C   UNK N   1      32.988  17.469   5.612  0.00  0.00     0.268 C 
HETATM   24  C   UNK N   1      32.455  17.562   4.187  0.00  0.00     0.037 C 
ENDBRANCH  20  23
ENDBRANCH  19  20
ENDBRANCH  18  19
ENDBRANCH  17  18
ENDBRANCH  15  17
ENDBRANCH  13  15
ENDBRANCH   4  13
TORSDOF 8
ENDMDL
MODEL 7
REMARK VINA RESULT:      -4.8     16.010     18.759
REMARK  8 active torsions:
REMARK  status: ('A' for Active; 'I' for Inactive)
REMARK    1  A    between atoms: N_2  and  C_9 
REMARK    2  A    between atoms: N_2  and  C_11 
REMARK    3  A    between atoms: N_2  and  C_12 
REMARK    4  A    between atoms: N_3  and  C_8 
REMARK    5  A    between atoms: N_3  and  C_13 
REMARK    6  A    between atoms: C_6  and  C_7 
REMARK    7  A    between atoms: C_6  and  C_8 
REMARK    8  A    between atoms: C_7  and  C_9 
ROOT
HETATM    1 Cl   UNK N   1      22.933  11.564  12.887  0.00  0.00    -0.084 Cl
HETATM    2  N   UNK N   1      24.524  13.356   8.369  0.00  0.00    -0.365 N 
ATOM      3  HN  UNK N   1      25.466  13.092   8.657  1.00  0.00     0.165 HD
HETATM    4  C   UNK N   1      21.968  14.078   7.583  0.00  0.00     0.042 A 
HETATM    5  C   UNK N   1      22.173  13.501   8.842  0.00  0.00     0.017 A 
HETATM    6  C   UNK N   1      23.054  14.278   6.728  0.00  0.00     0.047 A 
HETATM    7  C   UNK N   1      23.485  13.138   9.218  0.00  0.00     0.046 A 
HETATM    8  C   UNK N   1      21.105  13.250   9.714  0.00  0.00     0.018 A 
HETATM    9  C   UNK N   1      24.336  13.918   7.144  0.00  0.00     0.090 A 
HETATM   10  C   UNK N   1      23.711  12.539  10.460  0.00  0.00     0.054 A 
HETATM   11  C   UNK N   1      21.341  12.652  10.955  0.00  0.00     0.025 A 
HETATM   12  C   UNK N   1      22.641  12.300  11.327  0.00  0.00     0.036 A 
ENDROOT
BRANCH   4  13
HETATM   13  N   UNK N   1      20.665  14.360   7.129  0.00  0.00    -0.385 N 
HETATM   14  H   UNK N   1      20.007  13.643   6.982  0.00  0.00     0.160 HD
BRANCH  13  15
HETATM   15  C   UNK N   1      20.340  15.736   6.890  0.00  0.00     0.077 C 
HETATM   16  C   UNK N   1      20.220  16.575   8.151  0.00  0.00     0.032 C 
BRANCH  15  17
HETATM   17  C   UNK N   1      19.371  15.929   5.726  0.00  0.00     0.026 C 
BRANCH  17  18
HETATM   18  C   UNK N   1      19.057  14.670   4.944  0.00  0.00     0.032 C 
BRANCH  18  19
HETATM   19  C   UNK N   1      19.556  14.713   3.494  0.00  0.00     0.272 C 
BRANCH  19  20
HETATM   20  N   UNK N   1      20.615  15.714   3.306  0.00  0.00     0.087 N 
BRANCH  20  21
HETATM   21  C   UNK N   1      20.316  16.525   2.118  0.00  0.00     0.268 C 
HETATM   22  C   UNK N   1      20.304  18.001   2.463  0.00  0.00     0.037 C 
ENDBRANCH  20  21
BRANCH  20  23
HETATM   23  C   UNK N   1      21.885  14.977   3.223  0.00  0.00     0.268 C 
HETATM   24  C   UNK N   1      22.528  14.926   1.841  0.00  0.00     0.037 C 
ENDBRANCH  20  23
ENDBRANCH  19  20
ENDBRANCH  18  19
ENDBRANCH  17  18
ENDBRANCH  15  17
ENDBRANCH  13  15
ENDBRANCH   4  13
TORSDOF 8
ENDMDL
MODEL 8
REMARK VINA RESULT:      -4.7     14.319     17.017
REMARK  8 active torsions:
REMARK  status: ('A' for Active; 'I' for Inactive)
REMARK    1  A    between atoms: N_2  and  C_9 
REMARK    2  A    between atoms: N_2  and  C_11 
REMARK    3  A    between atoms: N_2  and  C_12 
REMARK    4  A    between atoms: N_3  and  C_8 
REMARK    5  A    between atoms: N_3  and  C_13 
REMARK    6  A    between atoms: C_6  and  C_7 
REMARK    7  A    between atoms: C_6  and  C_8 
REMARK    8  A    between atoms: C_7  and  C_9 
ROOT
HETATM    1 Cl   UNK N   1      22.695  11.596  10.658  0.00  0.00    -0.084 Cl
HETATM    2  N   UNK N   1      19.898  15.598   9.139  0.00  0.00    -0.365 N 
ATOM      3  HN  UNK N   1      19.445  15.559  10.051  1.00  0.00     0.165 HD
HETATM    4  C   UNK N   1      21.125  15.708   6.658  0.00  0.00     0.042 A 
HETATM    5  C   UNK N   1      21.501  14.722   7.578  0.00  0.00     0.017 A 
HETATM    6  C   UNK N   1      20.139  16.636   7.001  0.00  0.00     0.047 A 
HETATM    7  C   UNK N   1      20.863  14.689   8.838  0.00  0.00     0.046 A 
HETATM    8  C   UNK N   1      22.512  13.797   7.286  0.00  0.00     0.018 A 
HETATM    9  C   UNK N   1      19.525  16.560   8.250  0.00  0.00     0.090 A 
HETATM   10  C   UNK N   1      21.238  13.729   9.781  0.00  0.00     0.054 A 
HETATM   11  C   UNK N   1      22.879  12.839   8.235  0.00  0.00     0.025 A 
HETATM   12  C   UNK N   1      22.241  12.805   9.479  0.00  0.00     0.036 A 
ENDROOT
BRANCH   4  13
HETATM   13  N   UNK N   1      21.807  15.840   5.432  0.00  0.00    -0.385 N 
HETATM   14  H   UNK N   1      22.198  15.060   4.976  0.00  0.00     0.160 HD
BRANCH  13  15
HETATM   15  C   UNK N   1      21.905  17.158   4.878  0.00  0.00     0.077 C 
HETATM   16  C   UNK N   1      21.358  17.283   3.466  0.00  0.00     0.032 C 
BRANCH  15  17
HETATM   17  C   UNK N   1      23.182  17.888   5.290  0.00  0.00     0.026 C 
BRANCH  17  18
HETATM   18  C   UNK N   1      24.463  17.118   5.039  0.00  0.00     0.032 C 
BRANCH  18  19
HETATM   19  C   UNK N   1      25.667  18.020   4.739  0.00  0.00     0.272 C 
BRANCH  19  20
HETATM   20  N   UNK N   1      25.286  19.438   4.662  0.00  0.00     0.087 N 
BRANCH  20  21
HETATM   21  C   UNK N   1      25.353  19.885   3.264  0.00  0.00     0.268 C 
HETATM   22  C   UNK N   1      24.075  20.598   2.866  0.00  0.00     0.037 C 
ENDBRANCH  20  21
BRANCH  20  23
HETATM   23  C   UNK N   1      26.187  20.168   5.567  0.00  0.00     0.268 C 
HETATM   24  C   UNK N   1      27.634  20.289   5.102  0.00  0.00     0.037 C 
ENDBRANCH  20  23
ENDBRANCH  19  20
ENDBRANCH  18  19
ENDBRANCH  17  18
ENDBRANCH  15  17
ENDBRANCH  13  15
ENDBRANCH   4  13
TORSDOF 8
ENDMDL
MODEL 9
REMARK VINA RESULT:      -4.7     13.557     17.371
REMARK  8 active torsions:
REMARK  status: ('A' for Active; 'I' for Inactive)
REMARK    1  A    between atoms: N_2  and  C_9 
REMARK    2  A    between atoms: N_2  and  C_11 
REMARK    3  A    between atoms: N_2  and  C_12 
REMARK    4  A    between atoms: N_3  and  C_8 
REMARK    5  A    between atoms: N_3  and  C_13 
REMARK    6  A    between atoms: C_6  and  C_7 
REMARK    7  A    between atoms: C_6  and  C_8 
REMARK    8  A    between atoms: C_7  and  C_9 
ROOT
HETATM    1 Cl   UNK N   1      35.517  12.128   8.385  0.00  0.00    -0.084 Cl
HETATM    2  N   UNK N   1      34.653  17.136   7.814  0.00  0.00    -0.365 N 
ATOM      3  HN  UNK N   1      35.621  17.213   7.501  1.00  0.00     0.165 HD
HETATM    4  C   UNK N   1      32.026  16.936   8.667  0.00  0.00     0.042 A 
HETATM    5  C   UNK N   1      32.833  15.792   8.623  0.00  0.00     0.017 A 
HETATM    6  C   UNK N   1      32.549  18.169   8.273  0.00  0.00     0.047 A 
HETATM    7  C   UNK N   1      34.169  15.920   8.181  0.00  0.00     0.046 A 
HETATM    8  C   UNK N   1      32.335  14.531   8.975  0.00  0.00     0.018 A 
HETATM    9  C   UNK N   1      33.877  18.254   7.856  0.00  0.00     0.090 A 
HETATM   10  C   UNK N   1      34.986  14.790   8.105  0.00  0.00     0.054 A 
HETATM   11  C   UNK N   1      33.161  13.407   8.898  0.00  0.00     0.025 A 
HETATM   12  C   UNK N   1      34.484  13.537   8.466  0.00  0.00     0.036 A 
ENDROOT
BRANCH   4  13
HETATM   13  N   UNK N   1      30.662  16.835   9.003  0.00  0.00    -0.385 N 
HETATM   14  H   UNK N   1      30.353  16.239   9.723  0.00  0.00     0.160 HD
BRANCH  13  15
HETATM   15  C   UNK N   1      29.743  17.639   8.251  0.00  0.00     0.077 C 
HETATM   16  C   UNK N   1      28.798  18.469   9.105  0.00  0.00     0.032 C 
BRANCH  15  17
HETATM   17  C   UNK N   1      29.251  16.955   6.978  0.00  0.00     0.026 C 
BRANCH  17  18
HETATM   18  C   UNK N   1      29.626  17.661   5.690  0.00  0.00     0.032 C 
BRANCH  18  19
HETATM   19  C   UNK N   1      28.416  18.037   4.826  0.00  0.00     0.272 C 
BRANCH  19  20
HETATM   20  N   UNK N   1      27.171  18.070   5.608  0.00  0.00     0.087 N 
BRANCH  20  21
HETATM   21  C   UNK N   1      26.234  17.073   5.075  0.00  0.00     0.268 C 
HETATM   22  C   UNK N   1      26.163  17.156   3.562  0.00  0.00     0.037 C 
ENDBRANCH  20  21
BRANCH  20  23
HETATM   23  C   UNK N   1      26.671  19.452   5.550  0.00  0.00     0.268 C 
HETATM   24  C   UNK N   1      27.586  20.510   6.157  0.00  0.00     0.037 C 
ENDBRANCH  20  23
ENDBRANCH  19  20
ENDBRANCH  18  19
ENDBRANCH  17  18
ENDBRANCH  15  17
ENDBRANCH  13  15
ENDBRANCH   4  13
TORSDOF 8
ENDMDL
