MODEL 1
REMARK VINA RESULT:      -8.1      0.000      0.000
REMARK  5 active torsions:
REMARK  status: ('A' for Active; 'I' for Inactive)
REMARK    1  A    between atoms: C_17  and  C_12 
REMARK    2  A    between atoms: N_31  and  C_12 
REMARK    3  A    between atoms: N_32  and  C_14 
REMARK    4  A    between atoms: C_16  and  C_18 
REMARK    5  A    between atoms: O_33  and  C_20 
ROOT
HETATM    1  C   UNK N   1      21.137  20.086   2.252  0.00  0.00     0.127 A 
HETATM    2  C   UNK N   1      20.674  18.991   2.962  0.00  0.00     0.077 A 
HETATM    3  C   UNK N   1      20.441  16.833   4.621  0.00  0.00     0.091 A 
HETATM    4  C   UNK N   1      21.711  18.572   3.714  0.00  0.00     0.140 A 
HETATM    5  C   UNK N   1      19.462  18.318   3.024  0.00  0.00     0.157 A 
HETATM    6  N   UNK N   1      22.440  20.276   2.602  0.00  0.00    -0.307 N 
ATOM      7  HN  UNK N   1      23.052  21.007   2.241  1.00  0.00     0.186 HD
HETATM    8  N   UNK N   1      21.623  17.506   4.541  0.00  0.00    -0.330 N 
ATOM      9  HN  UNK N   1      22.426  17.212   5.096  1.00  0.00     0.168 HD
HETATM   10  N   UNK N   1      19.365  17.239   3.862  0.00  0.00    -0.325 N 
ATOM     11  HN  UNK N   1      18.484  16.729   3.926  1.00  0.00     0.169 HD
HETATM   12  N   UNK N   1      22.782  19.349   3.495  0.00  0.00    -0.271 N 
ENDROOT
BRANCH   3  13
HETATM   13  C   UNK N   1      20.338  15.688   5.584  0.00  0.00     0.087 C 
HETATM   14  C   UNK N   1      21.497  15.603   6.556  0.00  0.00     0.285 C 
HETATM   15  N   UNK N   1      21.426  14.266   7.154  0.00  0.00     0.096 N 
HETATM   16  C   UNK N   1      20.563  13.482   6.256  0.00  0.00     0.278 C 
HETATM   17  C   UNK N   1      20.366  14.300   5.001  0.00  0.00     0.023 C 
HETATM   18  C   UNK N   1      19.088  13.927   4.273  0.00  0.00     0.012 C 
BRANCH  15  19
HETATM   19  C   UNK N   1      20.753  14.425   8.447  0.00  0.00     0.348 C 
BRANCH  19  20
HETATM   20  C   UNK N   1      21.350  13.596   9.548  0.00  0.00     0.109 A 
HETATM   21  N   UNK N   1      22.696  13.405   9.635  0.00  0.00    -0.354 N 
HETATM   22  C   UNK N   1      23.230  12.624  10.608  0.00  0.00     0.090 A 
ATOM     23  HN  UNK N   1      23.312  13.856   8.957  1.00  0.00     0.166 HD
HETATM   24  C   UNK N   1      22.397  12.007  11.538  0.00  0.00     0.034 A 
HETATM   25  C   UNK N   1      21.023  12.216  11.442  0.00  0.00     0.090 A 
HETATM   26  N   UNK N   1      20.525  13.002  10.452  0.00  0.00    -0.354 N 
ATOM     27  HN  UNK N   1      19.517  13.149  10.385  1.00  0.00     0.166 HD
ENDBRANCH  19  20
ENDBRANCH  15  19
ENDBRANCH   3  13
BRANCH   5  28
HETATM   28  O   UNK N   1      18.409  18.708   2.286  0.00  0.00    -0.345 OA
HETATM   29  H   UNK N   1      17.547  18.394   2.476  0.00  0.00     0.219 HD
ENDBRANCH   5  28
BRANCH  12  30
HETATM   30  C   UNK N   1      24.129  19.232   4.075  0.00  0.00     0.114 C 
HETATM   31  C   UNK N   1      25.004  20.391   3.562  0.00  0.00     0.053 C 
HETATM   32  C   UNK N   1      26.509  20.077   3.528  0.00  0.00     0.169 C 
HETATM   33  O   UNK N   1      26.823  18.922   4.259  0.00  0.00    -0.391 OA
HETATM   34  C   UNK N   1      26.235  17.872   3.546  0.00  0.00     0.169 C 
HETATM   35  C   UNK N   1      24.745  17.830   3.859  0.00  0.00     0.053 C 
ENDBRANCH  12  30
TORSDOF 5
ENDMDL
MODEL 2
REMARK VINA RESULT:      -7.9      5.528      9.428
REMARK  5 active torsions:
REMARK  status: ('A' for Active; 'I' for Inactive)
REMARK    1  A    between atoms: C_17  and  C_12 
REMARK    2  A    between atoms: N_31  and  C_12 
REMARK    3  A    between atoms: N_32  and  C_14 
REMARK    4  A    between atoms: C_16  and  C_18 
REMARK    5  A    between atoms: O_33  and  C_20 
ROOT
HETATM    1  C   UNK N   1      31.605  17.008   8.519  0.00  0.00     0.127 A 
HETATM    2  C   UNK N   1      30.413  17.645   8.218  0.00  0.00     0.077 A 
HETATM    3  C   UNK N   1      28.197  18.632   6.962  0.00  0.00     0.091 A 
HETATM    4  C   UNK N   1      30.183  17.402   6.912  0.00  0.00     0.140 A 
HETATM    5  C   UNK N   1      29.513  18.412   8.945  0.00  0.00     0.157 A 
HETATM    6  N   UNK N   1      32.048  16.414   7.376  0.00  0.00    -0.307 N 
ATOM      7  HN  UNK N   1      32.907  15.870   7.283  1.00  0.00     0.186 HD
HETATM    8  N   UNK N   1      29.097  17.881   6.267  0.00  0.00    -0.330 N 
ATOM      9  HN  UNK N   1      28.952  17.682   5.277  1.00  0.00     0.168 HD
HETATM   10  N   UNK N   1      28.408  18.897   8.298  0.00  0.00    -0.325 N 
ATOM     11  HN  UNK N   1      27.732  19.462   8.810  1.00  0.00     0.169 HD
HETATM   12  N   UNK N   1      31.175  16.658   6.401  0.00  0.00    -0.271 N 
ENDROOT
BRANCH   3  13
HETATM   13  C   UNK N   1      26.967  19.109   6.249  0.00  0.00     0.087 C 
HETATM   14  C   UNK N   1      26.469  18.152   5.186  0.00  0.00     0.285 C 
HETATM   15  N   UNK N   1      25.519  18.914   4.368  0.00  0.00     0.096 N 
HETATM   16  C   UNK N   1      25.798  20.330   4.664  0.00  0.00     0.278 C 
HETATM   17  C   UNK N   1      27.091  20.375   5.444  0.00  0.00     0.023 C 
HETATM   18  C   UNK N   1      27.197  21.625   6.298  0.00  0.00     0.012 C 
BRANCH  15  19
HETATM   19  C   UNK N   1      24.182  18.576   4.863  0.00  0.00     0.348 C 
BRANCH  19  20
HETATM   20  C   UNK N   1      23.075  18.927   3.910  0.00  0.00     0.109 A 
HETATM   21  N   UNK N   1      23.090  20.099   3.215  0.00  0.00    -0.354 N 
HETATM   22  C   UNK N   1      22.070  20.430   2.383  0.00  0.00     0.090 A 
ATOM     23  HN  UNK N   1      23.880  20.736   3.322  1.00  0.00     0.166 HD
HETATM   24  C   UNK N   1      20.990  19.566   2.229  0.00  0.00     0.034 A 
HETATM   25  C   UNK N   1      20.991  18.367   2.940  0.00  0.00     0.090 A 
HETATM   26  N   UNK N   1      22.028  18.070   3.767  0.00  0.00    -0.354 N 
ATOM     27  HN  UNK N   1      22.021  17.193   4.287  1.00  0.00     0.166 HD
ENDBRANCH  19  20
ENDBRANCH  15  19
ENDBRANCH   3  13
BRANCH   5  28
HETATM   28  O   UNK N   1      29.714  18.674  10.247  0.00  0.00    -0.345 OA
HETATM   29  H   UNK N   1      29.001  18.924  10.802  0.00  0.00     0.219 HD
ENDBRANCH   5  28
BRANCH  12  30
HETATM   30  C   UNK N   1      31.346  16.191   5.017  0.00  0.00     0.114 C 
HETATM   31  C   UNK N   1      32.130  14.866   5.022  0.00  0.00     0.053 C 
HETATM   32  C   UNK N   1      32.927  14.600   3.733  0.00  0.00     0.169 C 
HETATM   33  O   UNK N   1      32.540  15.453   2.689  0.00  0.00    -0.391 OA
HETATM   34  C   UNK N   1      32.950  16.728   3.092  0.00  0.00     0.169 C 
HETATM   35  C   UNK N   1      31.948  17.280   4.098  0.00  0.00     0.053 C 
ENDBRANCH  12  30
TORSDOF 5
ENDMDL
MODEL 3
REMARK VINA RESULT:      -7.8      2.835      4.123
REMARK  5 active torsions:
REMARK  status: ('A' for Active; 'I' for Inactive)
REMARK    1  A    between atoms: C_17  and  C_12 
REMARK    2  A    between atoms: N_31  and  C_12 
REMARK    3  A    between atoms: N_32  and  C_14 
REMARK    4  A    between atoms: C_16  and  C_18 
REMARK    5  A    between atoms: O_33  and  C_20 
ROOT
HETATM    1  C   UNK N   1      27.103  20.418   3.628  0.00  0.00     0.127 A 
HETATM    2  C   UNK N   1      25.833  19.901   3.818  0.00  0.00     0.077 A 
HETATM    3  C   UNK N   1      23.664  18.504   4.717  0.00  0.00     0.091 A 
HETATM    4  C   UNK N   1      25.937  19.031   4.842  0.00  0.00     0.140 A 
HETATM    5  C   UNK N   1      24.604  20.094   3.202  0.00  0.00     0.157 A 
HETATM    6  N   UNK N   1      27.922  19.829   4.544  0.00  0.00    -0.307 N 
ATOM      7  HN  UNK N   1      28.921  20.007   4.648  1.00  0.00     0.186 HD
HETATM    8  N   UNK N   1      24.880  18.326   5.305  0.00  0.00    -0.330 N 
ATOM      9  HN  UNK N   1      24.991  17.673   6.080  1.00  0.00     0.168 HD
HETATM   10  N   UNK N   1      23.529  19.386   3.668  0.00  0.00    -0.325 N 
ATOM     11  HN  UNK N   1      22.616  19.513   3.232  1.00  0.00     0.169 HD
HETATM   12  N   UNK N   1      27.203  18.986   5.282  0.00  0.00    -0.271 N 
ENDROOT
BRANCH   3  13
HETATM   13  C   UNK N   1      22.488  17.759   5.276  0.00  0.00     0.087 C 
HETATM   14  C   UNK N   1      22.868  16.518   6.058  0.00  0.00     0.285 C 
HETATM   15  N   UNK N   1      21.633  15.742   6.208  0.00  0.00     0.096 N 
HETATM   16  C   UNK N   1      20.708  16.278   5.196  0.00  0.00     0.278 C 
HETATM   17  C   UNK N   1      21.515  17.175   4.286  0.00  0.00     0.023 C 
HETATM   18  C   UNK N   1      20.651  18.218   3.603  0.00  0.00     0.012 C 
BRANCH  15  19
HETATM   19  C   UNK N   1      21.110  16.048   7.543  0.00  0.00     0.348 C 
BRANCH  19  20
HETATM   20  C   UNK N   1      21.218  14.908   8.514  0.00  0.00     0.109 A 
HETATM   21  N   UNK N   1      22.338  14.134   8.569  0.00  0.00    -0.354 N 
HETATM   22  C   UNK N   1      22.418  13.080   9.421  0.00  0.00     0.090 A 
ATOM     23  HN  UNK N   1      23.128  14.350   7.960  1.00  0.00     0.166 HD
HETATM   24  C   UNK N   1      21.346  12.780  10.257  0.00  0.00     0.034 A 
HETATM   25  C   UNK N   1      20.210  13.584  10.196  0.00  0.00     0.090 A 
HETATM   26  N   UNK N   1      20.164  14.628   9.328  0.00  0.00    -0.354 N 
ATOM     27  HN  UNK N   1      19.328  15.211   9.285  1.00  0.00     0.166 HD
ENDBRANCH  19  20
ENDBRANCH  15  19
ENDBRANCH   3  13
BRANCH   5  28
HETATM   28  O   UNK N   1      24.467  20.953   2.177  0.00  0.00    -0.345 OA
HETATM   29  H   UNK N   1      23.797  21.608   2.186  0.00  0.00     0.219 HD
ENDBRANCH   5  28
BRANCH  12  30
HETATM   30  C   UNK N   1      27.769  18.153   6.353  0.00  0.00     0.114 C 
HETATM   31  C   UNK N   1      28.117  19.045   7.559  0.00  0.00     0.053 C 
HETATM   32  C   UNK N   1      29.252  18.498   8.442  0.00  0.00     0.169 C 
HETATM   33  O   UNK N   1      29.534  17.153   8.162  0.00  0.00    -0.391 OA
HETATM   34  C   UNK N   1      30.073  17.157   6.871  0.00  0.00     0.169 C 
HETATM   35  C   UNK N   1      28.940  17.271   5.859  0.00  0.00     0.053 C 
ENDBRANCH  12  30
TORSDOF 5
ENDMDL
MODEL 4
REMARK VINA RESULT:      -7.7      5.443      8.896
REMARK  5 active torsions:
REMARK  status: ('A' for Active; 'I' for Inactive)
REMARK    1  A    between atoms: C_17  and  C_12 
REMARK    2  A    between atoms: N_31  and  C_12 
REMARK    3  A    between atoms: N_32  and  C_14 
REMARK    4  A    between atoms: C_16  and  C_18 
REMARK    5  A    between atoms: O_33  and  C_20 
ROOT
HETATM    1  C   UNK N   1      31.633  16.961   8.554  0.00  0.00     0.127 A 
HETATM    2  C   UNK N   1      30.456  17.617   8.235  0.00  0.00     0.077 A 
HETATM    3  C   UNK N   1      28.276  18.638   6.944  0.00  0.00     0.091 A 
HETATM    4  C   UNK N   1      30.241  17.375   6.926  0.00  0.00     0.140 A 
HETATM    5  C   UNK N   1      29.559  18.401   8.947  0.00  0.00     0.157 A 
HETATM    6  N   UNK N   1      32.082  16.356   7.420  0.00  0.00    -0.307 N 
ATOM      7  HN  UNK N   1      32.933  15.799   7.340  1.00  0.00     0.186 HD
HETATM    8  N   UNK N   1      29.172  17.870   6.264  0.00  0.00    -0.330 N 
ATOM      9  HN  UNK N   1      29.038  17.671   5.273  1.00  0.00     0.168 HD
HETATM   10  N   UNK N   1      28.471  18.902   8.282  0.00  0.00    -0.325 N 
ATOM     11  HN  UNK N   1      27.798  19.480   8.784  1.00  0.00     0.169 HD
HETATM   12  N   UNK N   1      31.227  16.613   6.431  0.00  0.00    -0.271 N 
ENDROOT
BRANCH   3  13
HETATM   13  C   UNK N   1      27.064  19.134   6.212  0.00  0.00     0.087 C 
HETATM   14  C   UNK N   1      26.542  18.165   5.171  0.00  0.00     0.285 C 
HETATM   15  N   UNK N   1      25.620  18.935   4.330  0.00  0.00     0.096 N 
HETATM   16  C   UNK N   1      25.940  20.348   4.590  0.00  0.00     0.278 C 
HETATM   17  C   UNK N   1      27.231  20.374   5.375  0.00  0.00     0.023 C 
HETATM   18  C   UNK N   1      27.371  21.642   6.197  0.00  0.00     0.012 C 
BRANCH  15  19
HETATM   19  C   UNK N   1      24.270  18.652   4.826  0.00  0.00     0.348 C 
BRANCH  19  20
HETATM   20  C   UNK N   1      23.916  17.192   4.822  0.00  0.00     0.109 A 
HETATM   21  N   UNK N   1      23.658  16.527   5.983  0.00  0.00    -0.354 N 
HETATM   22  C   UNK N   1      23.375  15.200   5.980  0.00  0.00     0.090 A 
ATOM     23  HN  UNK N   1      23.679  17.036   6.867  1.00  0.00     0.166 HD
HETATM   24  C   UNK N   1      23.343  14.499   4.777  0.00  0.00     0.034 A 
HETATM   25  C   UNK N   1      23.600  15.192   3.597  0.00  0.00     0.090 A 
HETATM   26  N   UNK N   1      23.884  16.521   3.639  0.00  0.00    -0.354 N 
ATOM     27  HN  UNK N   1      24.075  17.022   2.771  1.00  0.00     0.166 HD
ENDBRANCH  19  20
ENDBRANCH  15  19
ENDBRANCH   3  13
BRANCH   5  28
HETATM   28  O   UNK N   1      29.745  18.663  10.251  0.00  0.00    -0.345 OA
HETATM   29  H   UNK N   1      30.497  18.335  10.704  0.00  0.00     0.219 HD
ENDBRANCH   5  28
BRANCH  12  30
HETATM   30  C   UNK N   1      31.411  16.140   5.051  0.00  0.00     0.114 C 
HETATM   31  C   UNK N   1      32.186  14.810   5.069  0.00  0.00     0.053 C 
HETATM   32  C   UNK N   1      32.995  14.535   3.790  0.00  0.00     0.169 C 
HETATM   33  O   UNK N   1      32.625  15.386   2.739  0.00  0.00    -0.391 OA
HETATM   34  C   UNK N   1      33.039  16.660   3.142  0.00  0.00     0.169 C 
HETATM   35  C   UNK N   1      32.029  17.222   4.134  0.00  0.00     0.053 C 
ENDBRANCH  12  30
TORSDOF 5
ENDMDL
MODEL 5
REMARK VINA RESULT:      -7.6     13.952     16.586
REMARK  5 active torsions:
REMARK  status: ('A' for Active; 'I' for Inactive)
REMARK    1  A    between atoms: C_17  and  C_12 
REMARK    2  A    between atoms: N_31  and  C_12 
REMARK    3  A    between atoms: N_32  and  C_14 
REMARK    4  A    between atoms: C_16  and  C_18 
REMARK    5  A    between atoms: O_33  and  C_20 
ROOT
HETATM    1  C   UNK N   1      31.532  21.073  -3.569  0.00  0.00     0.127 A 
HETATM    2  C   UNK N   1      30.548  22.040  -3.679  0.00  0.00     0.077 A 
HETATM    3  C   UNK N   1      28.607  23.733  -4.592  0.00  0.00     0.091 A 
HETATM    4  C   UNK N   1      30.154  22.022  -4.968  0.00  0.00     0.140 A 
HETATM    5  C   UNK N   1      29.964  22.935  -2.793  0.00  0.00     0.157 A 
HETATM    6  N   UNK N   1      31.695  20.516  -4.802  0.00  0.00    -0.307 N 
ATOM      7  HN  UNK N   1      32.354  19.774  -5.036  1.00  0.00     0.186 HD
HETATM    8  N   UNK N   1      29.198  22.850  -5.445  0.00  0.00    -0.330 N 
ATOM      9  HN  UNK N   1      28.923  22.814  -6.427  1.00  0.00     0.168 HD
HETATM   10  N   UNK N   1      28.992  23.774  -3.270  0.00  0.00    -0.325 N 
ATOM     11  HN  UNK N   1      28.547  24.439  -2.638  1.00  0.00     0.169 HD
HETATM   12  N   UNK N   1      30.850  21.100  -5.649  0.00  0.00    -0.271 N 
ENDROOT
BRANCH   3  13
HETATM   13  C   UNK N   1      27.508  24.607  -5.120  0.00  0.00     0.087 C 
HETATM   14  C   UNK N   1      27.293  25.870  -4.313  0.00  0.00     0.285 C 
HETATM   15  N   UNK N   1      25.992  26.400  -4.732  0.00  0.00     0.096 N 
HETATM   16  C   UNK N   1      25.308  25.279  -5.397  0.00  0.00     0.278 C 
HETATM   17  C   UNK N   1      26.116  24.034  -5.112  0.00  0.00     0.023 C 
HETATM   18  C   UNK N   1      25.899  22.962  -6.164  0.00  0.00     0.012 C 
BRANCH  15  19
HETATM   19  C   UNK N   1      26.268  27.446  -5.720  0.00  0.00     0.348 C 
BRANCH  19  20
HETATM   20  C   UNK N   1      26.751  28.736  -5.121  0.00  0.00     0.109 A 
HETATM   21  N   UNK N   1      27.886  29.340  -5.571  0.00  0.00    -0.354 N 
HETATM   22  C   UNK N   1      28.341  30.485  -5.003  0.00  0.00     0.090 A 
ATOM     23  HN  UNK N   1      28.402  28.923  -6.347  1.00  0.00     0.166 HD
HETATM   24  C   UNK N   1      27.642  31.062  -3.945  0.00  0.00     0.034 A 
HETATM   25  C   UNK N   1      26.478  30.438  -3.500  0.00  0.00     0.090 A 
HETATM   26  N   UNK N   1      26.055  29.290  -4.091  0.00  0.00    -0.354 N 
ATOM     27  HN  UNK N   1      25.205  28.836  -3.758  1.00  0.00     0.166 HD
ENDBRANCH  19  20
ENDBRANCH  15  19
ENDBRANCH   3  13
BRANCH   5  28
HETATM   28  O   UNK N   1      30.335  22.981  -1.503  0.00  0.00    -0.345 OA
HETATM   29  H   UNK N   1      29.975  23.621  -0.922  0.00  0.00     0.219 HD
ENDBRANCH   5  28
BRANCH  12  30
HETATM   30  C   UNK N   1      30.769  20.768  -7.079  0.00  0.00     0.114 C 
HETATM   31  C   UNK N   1      29.616  19.772  -7.305  0.00  0.00     0.053 C 
HETATM   32  C   UNK N   1      29.798  18.865  -8.534  0.00  0.00     0.169 C 
HETATM   33  O   UNK N   1      30.814  19.326  -9.383  0.00  0.00    -0.391 OA
HETATM   34  C   UNK N   1      31.997  19.162  -8.655  0.00  0.00     0.169 C 
HETATM   35  C   UNK N   1      32.128  20.303  -7.654  0.00  0.00     0.053 C 
ENDBRANCH  12  30
TORSDOF 5
ENDMDL
MODEL 6
REMARK VINA RESULT:      -7.6      2.590      3.661
REMARK  5 active torsions:
REMARK  status: ('A' for Active; 'I' for Inactive)
REMARK    1  A    between atoms: C_17  and  C_12 
REMARK    2  A    between atoms: N_31  and  C_12 
REMARK    3  A    between atoms: N_32  and  C_14 
REMARK    4  A    between atoms: C_16  and  C_18 
REMARK    5  A    between atoms: O_33  and  C_20 
ROOT
HETATM    1  C   UNK N   1      26.499  20.481   3.413  0.00  0.00     0.127 A 
HETATM    2  C   UNK N   1      25.345  19.789   3.738  0.00  0.00     0.077 A 
HETATM    3  C   UNK N   1      23.544  17.967   4.689  0.00  0.00     0.091 A 
HETATM    4  C   UNK N   1      25.746  18.705   4.431  0.00  0.00     0.140 A 
HETATM    5  C   UNK N   1      23.993  19.989   3.496  0.00  0.00     0.157 A 
HETATM    6  N   UNK N   1      27.551  19.778   3.919  0.00  0.00    -0.307 N 
ATOM      7  HN  UNK N   1      28.534  20.038   3.836  1.00  0.00     0.186 HD
HETATM    8  N   UNK N   1      24.877  17.788   4.911  0.00  0.00    -0.330 N 
ATOM      9  HN  UNK N   1      25.212  16.976   5.430  1.00  0.00     0.168 HD
HETATM   10  N   UNK N   1      23.106  19.066   3.982  0.00  0.00    -0.325 N 
ATOM     11  HN  UNK N   1      22.108  19.192   3.818  1.00  0.00     0.169 HD
HETATM   12  N   UNK N   1      27.083  18.697   4.540  0.00  0.00    -0.271 N 
ENDROOT
BRANCH   3  13
HETATM   13  C   UNK N   1      22.585  16.974   5.275  0.00  0.00     0.087 C 
HETATM   14  C   UNK N   1      23.207  16.069   6.319  0.00  0.00     0.285 C 
HETATM   15  N   UNK N   1      22.265  14.961   6.507  0.00  0.00     0.096 N 
HETATM   16  C   UNK N   1      21.384  14.993   5.328  0.00  0.00     0.278 C 
HETATM   17  C   UNK N   1      22.002  15.952   4.336  0.00  0.00     0.023 C 
HETATM   18  C   UNK N   1      20.972  16.527   3.383  0.00  0.00     0.012 C 
BRANCH  15  19
HETATM   19  C   UNK N   1      21.478  15.285   7.700  0.00  0.00     0.348 C 
BRANCH  19  20
HETATM   20  C   UNK N   1      21.585  14.261   8.794  0.00  0.00     0.109 A 
HETATM   21  N   UNK N   1      22.748  13.588   9.016  0.00  0.00    -0.354 N 
HETATM   22  C   UNK N   1      22.832  12.636   9.981  0.00  0.00     0.090 A 
ATOM     23  HN  UNK N   1      23.569  13.802   8.448  1.00  0.00     0.166 HD
HETATM   24  C   UNK N   1      21.718  12.339  10.762  0.00  0.00     0.034 A 
HETATM   25  C   UNK N   1      20.537  13.041  10.529  0.00  0.00     0.090 A 
HETATM   26  N   UNK N   1      20.490  13.984   9.552  0.00  0.00    -0.354 N 
ATOM     27  HN  UNK N   1      19.621  14.492   9.385  1.00  0.00     0.166 HD
ENDBRANCH  19  20
ENDBRANCH  15  19
ENDBRANCH   3  13
BRANCH   5  28
HETATM   28  O   UNK N   1      23.559  21.058   2.806  0.00  0.00    -0.345 OA
HETATM   29  H   UNK N   1      23.261  20.970   1.923  0.00  0.00     0.219 HD
ENDBRANCH   5  28
BRANCH  12  30
HETATM   30  C   UNK N   1      27.941  17.690   5.182  0.00  0.00     0.114 C 
HETATM   31  C   UNK N   1      28.208  18.107   6.640  0.00  0.00     0.053 C 
HETATM   32  C   UNK N   1      29.530  17.571   7.217  0.00  0.00     0.169 C 
HETATM   33  O   UNK N   1      30.080  16.558   6.420  0.00  0.00    -0.391 OA
HETATM   34  C   UNK N   1      30.455  17.194   5.233  0.00  0.00     0.169 C 
HETATM   35  C   UNK N   1      29.220  17.396   4.364  0.00  0.00     0.053 C 
ENDBRANCH  12  30
TORSDOF 5
ENDMDL
MODEL 7
REMARK VINA RESULT:      -7.6      3.420      6.818
REMARK  5 active torsions:
REMARK  status: ('A' for Active; 'I' for Inactive)
REMARK    1  A    between atoms: C_17  and  C_12 
REMARK    2  A    between atoms: N_31  and  C_12 
REMARK    3  A    between atoms: N_32  and  C_14 
REMARK    4  A    between atoms: C_16  and  C_18 
REMARK    5  A    between atoms: O_33  and  C_20 
ROOT
HETATM    1  C   UNK N   1      19.509  18.957   2.623  0.00  0.00     0.127 A 
HETATM    2  C   UNK N   1      20.827  19.314   2.853  0.00  0.00     0.077 A 
HETATM    3  C   UNK N   1      23.453  19.355   3.604  0.00  0.00     0.091 A 
HETATM    4  C   UNK N   1      21.396  18.256   3.464  0.00  0.00     0.140 A 
HETATM    5  C   UNK N   1      21.582  20.451   2.600  0.00  0.00     0.157 A 
HETATM    6  N   UNK N   1      19.338  17.697   3.113  0.00  0.00    -0.307 N 
ATOM      7  HN  UNK N   1      18.468  17.164   3.091  1.00  0.00     0.186 HD
HETATM    8  N   UNK N   1      22.692  18.251   3.847  0.00  0.00    -0.330 N 
ATOM      9  HN  UNK N   1      23.093  17.436   4.310  1.00  0.00     0.168 HD
HETATM   10  N   UNK N   1      22.897  20.451   2.982  0.00  0.00    -0.325 N 
ATOM     11  HN  UNK N   1      23.472  21.274   2.806  1.00  0.00     0.169 HD
HETATM   12  N   UNK N   1      20.494  17.276   3.623  0.00  0.00    -0.271 N 
ENDROOT
BRANCH   3  13
HETATM   13  C   UNK N   1      24.904  19.316   3.982  0.00  0.00     0.087 C 
HETATM   14  C   UNK N   1      25.143  19.042   5.453  0.00  0.00     0.285 C 
HETATM   15  N   UNK N   1      26.544  19.394   5.707  0.00  0.00     0.096 N 
HETATM   16  C   UNK N   1      26.947  20.237   4.570  0.00  0.00     0.278 C 
HETATM   17  C   UNK N   1      25.690  20.588   3.808  0.00  0.00     0.023 C 
HETATM   18  C   UNK N   1      25.980  20.923   2.357  0.00  0.00     0.012 C 
BRANCH  15  19
HETATM   19  C   UNK N   1      27.301  18.140   5.665  0.00  0.00     0.348 C 
BRANCH  19  20
HETATM   20  C   UNK N   1      28.177  17.919   6.866  0.00  0.00     0.109 A 
HETATM   21  N   UNK N   1      29.411  17.355   6.741  0.00  0.00    -0.354 N 
HETATM   22  C   UNK N   1      30.185  17.122   7.832  0.00  0.00     0.090 A 
ATOM     23  HN  UNK N   1      29.758  17.105   5.815  1.00  0.00     0.166 HD
HETATM   24  C   UNK N   1      29.721  17.462   9.100  0.00  0.00     0.034 A 
HETATM   25  C   UNK N   1      28.461  18.045   9.211  0.00  0.00     0.090 A 
HETATM   26  N   UNK N   1      27.712  18.261   8.097  0.00  0.00    -0.354 N 
ATOM     27  HN  UNK N   1      26.788  18.684   8.186  1.00  0.00     0.166 HD
ENDBRANCH  19  20
ENDBRANCH  15  19
ENDBRANCH   3  13
BRANCH   5  28
HETATM   28  O   UNK N   1      21.044  21.524   1.995  0.00  0.00    -0.345 OA
HETATM   29  H   UNK N   1      20.163  21.785   2.176  0.00  0.00     0.219 HD
ENDBRANCH   5  28
BRANCH  12  30
HETATM   30  C   UNK N   1      20.672  15.966   4.267  0.00  0.00     0.114 C 
HETATM   31  C   UNK N   1      19.544  15.021   3.815  0.00  0.00     0.053 C 
HETATM   32  C   UNK N   1      19.208  13.911   4.826  0.00  0.00     0.169 C 
HETATM   33  O   UNK N   1      20.194  13.784   5.815  0.00  0.00    -0.391 OA
HETATM   34  C   UNK N   1      20.116  14.965   6.559  0.00  0.00     0.169 C 
HETATM   35  C   UNK N   1      20.827  16.079   5.802  0.00  0.00     0.053 C 
ENDBRANCH  12  30
TORSDOF 5
ENDMDL
MODEL 8
REMARK VINA RESULT:      -7.4      4.170      7.546
REMARK  5 active torsions:
REMARK  status: ('A' for Active; 'I' for Inactive)
REMARK    1  A    between atoms: C_17  and  C_12 
REMARK    2  A    between atoms: N_31  and  C_12 
REMARK    3  A    between atoms: N_32  and  C_14 
REMARK    4  A    between atoms: C_16  and  C_18 
REMARK    5  A    between atoms: O_33  and  C_20 
ROOT
HETATM    1  C   UNK N   1      21.505  19.950   3.227  0.00  0.00     0.127 A 
HETATM    2  C   UNK N   1      22.820  19.553   3.403  0.00  0.00     0.077 A 
HETATM    3  C   UNK N   1      25.096  18.199   4.072  0.00  0.00     0.091 A 
HETATM    4  C   UNK N   1      22.766  18.367   4.040  0.00  0.00     0.140 A 
HETATM    5  C   UNK N   1      24.051  20.105   3.079  0.00  0.00     0.157 A 
HETATM    6  N   UNK N   1      20.713  18.987   3.775  0.00  0.00    -0.307 N 
ATOM      7  HN  UNK N   1      19.693  19.001   3.801  1.00  0.00     0.186 HD
HETATM    8  N   UNK N   1      23.877  17.678   4.385  0.00  0.00    -0.330 N 
ATOM      9  HN  UNK N   1      23.803  16.783   4.869  1.00  0.00     0.168 HD
HETATM   10  N   UNK N   1      25.181  19.411   3.422  0.00  0.00    -0.325 N 
ATOM     11  HN  UNK N   1      26.097  19.795   3.193  1.00  0.00     0.169 HD
HETATM   12  N   UNK N   1      21.489  18.024   4.268  0.00  0.00    -0.271 N 
ENDROOT
BRANCH   3  13
HETATM   13  C   UNK N   1      26.319  17.398   4.409  0.00  0.00     0.087 C 
HETATM   14  C   UNK N   1      27.507  18.244   4.821  0.00  0.00     0.285 C 
HETATM   15  N   UNK N   1      28.675  17.360   4.756  0.00  0.00     0.096 N 
HETATM   16  C   UNK N   1      28.254  16.216   3.930  0.00  0.00     0.278 C 
HETATM   17  C   UNK N   1      26.931  16.586   3.299  0.00  0.00     0.023 C 
HETATM   18  C   UNK N   1      26.116  15.362   2.927  0.00  0.00     0.012 C 
BRANCH  15  19
HETATM   19  C   UNK N   1      28.920  16.896   6.124  0.00  0.00     0.348 C 
BRANCH  19  20
HETATM   20  C   UNK N   1      30.326  17.127   6.601  0.00  0.00     0.109 A 
HETATM   21  N   UNK N   1      30.593  17.359   7.917  0.00  0.00    -0.354 N 
HETATM   22  C   UNK N   1      31.860  17.605   8.339  0.00  0.00     0.090 A 
ATOM     23  HN  UNK N   1      29.830  17.347   8.594  1.00  0.00     0.166 HD
HETATM   24  C   UNK N   1      32.908  17.621   7.423  0.00  0.00     0.034 A 
HETATM   25  C   UNK N   1      32.621  17.375   6.082  0.00  0.00     0.090 A 
HETATM   26  N   UNK N   1      31.340  17.136   5.695  0.00  0.00    -0.354 N 
ATOM     27  HN  UNK N   1      31.136  16.961   4.711  1.00  0.00     0.166 HD
ENDBRANCH  19  20
ENDBRANCH  15  19
ENDBRANCH   3  13
BRANCH   5  28
HETATM   28  O   UNK N   1      24.140  21.287   2.445  0.00  0.00    -0.345 OA
HETATM   29  H   UNK N   1      24.172  21.328   1.510  0.00  0.00     0.219 HD
ENDBRANCH   5  28
BRANCH  12  30
HETATM   30  C   UNK N   1      20.973  16.834   4.961  0.00  0.00     0.114 C 
HETATM   31  C   UNK N   1      19.663  16.384   4.288  0.00  0.00     0.053 C 
HETATM   32  C   UNK N   1      18.703  15.626   5.221  0.00  0.00     0.169 C 
HETATM   33  O   UNK N   1      19.333  15.219   6.406  0.00  0.00    -0.391 OA
HETATM   34  C   UNK N   1      19.616  16.405   7.092  0.00  0.00     0.169 C 
HETATM   35  C   UNK N   1      20.860  17.044   6.489  0.00  0.00     0.053 C 
ENDBRANCH  12  30
TORSDOF 5
ENDMDL
MODEL 9
REMARK VINA RESULT:      -7.4     11.285     14.967
REMARK  5 active torsions:
REMARK  status: ('A' for Active; 'I' for Inactive)
REMARK    1  A    between atoms: C_17  and  C_12 
REMARK    2  A    between atoms: N_31  and  C_12 
REMARK    3  A    between atoms: N_32  and  C_14 
REMARK    4  A    between atoms: C_16  and  C_18 
REMARK    5  A    between atoms: O_33  and  C_20 
ROOT
HETATM    1  C   UNK N   1      38.639  13.073  10.541  0.00  0.00     0.127 A 
HETATM    2  C   UNK N   1      37.719  13.444   9.576  0.00  0.00     0.077 A 
HETATM    3  C   UNK N   1      35.456  14.197   8.243  0.00  0.00     0.091 A 
HETATM    4  C   UNK N   1      36.556  13.638  10.228  0.00  0.00     0.140 A 
HETATM    5  C   UNK N   1      37.776  13.626   8.201  0.00  0.00     0.157 A 
HETATM    6  N   UNK N   1      37.987  13.052  11.737  0.00  0.00    -0.307 N 
ATOM      7  HN  UNK N   1      38.403  12.811  12.637  1.00  0.00     0.186 HD
HETATM    8  N   UNK N   1      35.422  14.008   9.592  0.00  0.00    -0.330 N 
ATOM      9  HN  UNK N   1      34.556  14.145  10.113  1.00  0.00     0.168 HD
HETATM   10  N   UNK N   1      36.632  14.004   7.551  0.00  0.00    -0.325 N 
ATOM     11  HN  UNK N   1      36.649  14.145   6.542  1.00  0.00     0.169 HD
HETATM   12  N   UNK N   1      36.716  13.399  11.537  0.00  0.00    -0.271 N 
ENDROOT
BRANCH   3  13
HETATM   13  C   UNK N   1      34.206  14.662   7.557  0.00  0.00     0.087 C 
HETATM   14  C   UNK N   1      33.133  15.149   8.511  0.00  0.00     0.285 C 
HETATM   15  N   UNK N   1      31.895  15.213   7.727  0.00  0.00     0.096 N 
HETATM   16  C   UNK N   1      32.146  14.389   6.532  0.00  0.00     0.278 C 
HETATM   17  C   UNK N   1      33.433  13.635   6.774  0.00  0.00     0.023 C 
HETATM   18  C   UNK N   1      34.109  13.234   5.476  0.00  0.00     0.012 C 
BRANCH  15  19
HETATM   19  C   UNK N   1      31.735  16.611   7.319  0.00  0.00     0.348 C 
BRANCH  19  20
HETATM   20  C   UNK N   1      30.526  17.281   7.909  0.00  0.00     0.109 A 
HETATM   21  N   UNK N   1      29.360  17.370   7.210  0.00  0.00    -0.354 N 
HETATM   22  C   UNK N   1      28.281  18.009   7.730  0.00  0.00     0.090 A 
ATOM     23  HN  UNK N   1      29.298  16.950   6.282  1.00  0.00     0.166 HD
HETATM   24  C   UNK N   1      28.357  18.583   8.996  0.00  0.00     0.034 A 
HETATM   25  C   UNK N   1      29.553  18.478   9.703  0.00  0.00     0.090 A 
HETATM   26  N   UNK N   1      30.614  17.833   9.149  0.00  0.00    -0.354 N 
ATOM     27  HN  UNK N   1      31.488  17.763   9.670  1.00  0.00     0.166 HD
ENDBRANCH  19  20
ENDBRANCH  15  19
ENDBRANCH   3  13
BRANCH   5  28
HETATM   28  O   UNK N   1      38.920  13.439   7.520  0.00  0.00    -0.345 OA
HETATM   29  H   UNK N   1      39.745  13.425   7.963  0.00  0.00     0.219 HD
ENDBRANCH   5  28
BRANCH  12  30
HETATM   30  C   UNK N   1      35.709  13.455  12.606  0.00  0.00     0.114 C 
HETATM   31  C   UNK N   1      36.387  13.882  13.921  0.00  0.00     0.053 C 
HETATM   32  C   UNK N   1      35.676  13.379  15.190  0.00  0.00     0.169 C 
HETATM   33  O   UNK N   1      34.387  12.901  14.916  0.00  0.00    -0.391 OA
HETATM   34  C   UNK N   1      34.583  11.747  14.150  0.00  0.00     0.169 C 
HETATM   35  C   UNK N   1      34.887  12.149  12.713  0.00  0.00     0.053 C 
ENDBRANCH  12  30
TORSDOF 5
ENDMDL
