REMARK  8 active torsions:
REMARK  status: ('A' for Active; 'I' for Inactive)
REMARK    1  A    between atoms: C_11  and  C_5 
REMARK    2  A    between atoms: C_23  and  C_6 
REMARK    3  A    between atoms: N_34  and  C_11 
REMARK    4  A    between atoms: N_31  and  C_16 
REMARK    5  A    between atoms: N_32  and  C_21 
REMARK    6  A    between atoms: O_36  and  C_22 
REMARK    7  A    between atoms: O_35  and  C_23 
REMARK    8  A    between atoms: N_31  and  C_24 
ROOT
HETATM    1  C   UNK N   1       1.969  -0.072   0.024  0.00  0.00     0.050 C 
HETATM    2  C   UNK N   1       1.840   2.684  -0.352  0.00  0.00     0.069 C 
HETATM    3  C   UNK N   1       5.234   2.236   0.941  0.00  0.00     0.182 A 
HETATM    4  C   UNK N   1       3.005   0.738   0.463  0.00  0.00     0.037 A 
HETATM    5  C   UNK N   1       2.978   2.105   0.227  0.00  0.00     0.049 A 
HETATM    6  C   UNK N   1       0.911   0.449  -0.701  0.00  0.00     0.068 C 
HETATM    7  C   UNK N   1       0.794   1.860  -0.833  0.00  0.00     0.097 C 
HETATM    8  C   UNK N   1       4.138   0.136   0.977  0.00  0.00     0.119 A 
HETATM    9  N   UNK N   1       4.097   2.843   0.486  0.00  0.00    -0.351 N 
ATOM     10  HN  UNK N   1       4.085   3.853   0.338  1.00  0.00     0.166 HD
HETATM   11  N   UNK N   1       5.258   0.894   1.185  0.00  0.00    -0.338 N 
ATOM     12  HN  UNK N   1       6.113   0.454   1.523  1.00  0.00     0.168 HD
ENDROOT
BRANCH   6  13
HETATM   13  N   UNK N   1       0.398  -0.408  -1.721  0.00  0.00    -0.335 N 
HETATM   14  C   UNK N   1       0.295  -1.694  -1.613  0.00  0.00     0.140 C 
ATOM     15  HN  UNK N   1       0.091   0.021  -2.594  1.00  0.00     0.168 HD
BRANCH  14  16
HETATM   16  C   UNK N   1      -0.423  -2.354  -0.504  0.00  0.00     0.053 C 
HETATM   17  C   UNK N   1      -1.508  -1.760   0.005  0.00  0.00    -0.003 C 
BRANCH  17  18
HETATM   18  C   UNK N   1      -2.395  -2.471   0.991  0.00  0.00     0.144 C 
BRANCH  18  19
HETATM   19  N   UNK N   1      -3.579  -1.709   1.424  0.00  0.00    -0.409 N 
HETATM   20  C   UNK N   1      -4.855  -2.176   0.867  0.00  0.00     0.117 C 
HETATM   21  C   UNK N   1      -5.248  -1.423  -0.402  0.00  0.00     0.019 C 
HETATM   22  C   UNK N   1      -5.256   0.072  -0.133  0.00  0.00     0.003 C 
HETATM   23  C   UNK N   1      -3.865   0.503   0.298  0.00  0.00     0.019 C 
HETATM   24  C   UNK N   1      -3.445  -0.249   1.566  0.00  0.00     0.117 C 
ENDBRANCH  18  19
ENDBRANCH  17  18
ENDBRANCH  14  16
BRANCH  14  25
HETATM   25  O   UNK N   1       0.745  -2.465  -2.619  0.00  0.00    -0.346 OA
HETATM   26  H   UNK N   1       0.437  -3.005  -3.319  0.00  0.00     0.219 HD
ENDBRANCH  14  25
ENDBRANCH   6  13
BRANCH   7  27
HETATM   27  O   UNK N   1      -0.229   2.449  -1.498  0.00  0.00    -0.354 OA
HETATM   28  C   UNK N   1      -1.410   1.808  -1.800  0.00  0.00     0.210 C 
ENDBRANCH   7  27
BRANCH   8  29
HETATM   29  N   UNK N   1       4.114  -1.268   1.150  0.00  0.00    -0.342 N 
HETATM   30  H   UNK N   1       3.281  -1.646   1.512  0.00  0.00     0.167 HD
BRANCH  29  31
HETATM   31  C   UNK N   1       5.140  -2.186   0.866  0.00  0.00     0.035 A 
HETATM   32  C   UNK N   1       4.765  -3.496   0.563  0.00  0.00     0.032 A 
HETATM   33  C   UNK N   1       5.714  -4.423   0.142  0.00  0.00     0.046 A 
HETATM   34  C   UNK N   1       7.051  -4.044   0.035  0.00  0.00     0.138 A 
HETATM   35  C   UNK N   1       7.439  -2.735   0.360  0.00  0.00     0.074 A 
HETATM   36  F   UNK N   1       7.966  -4.950  -0.386  0.00  0.00    -0.204 F 
HETATM   37  C   UNK N   1       6.480  -1.799   0.758  0.00  0.00     0.056 A 
HETATM   38 Cl   UNK N   1       9.119  -2.254   0.260  0.00  0.00    -0.081 Cl
ENDBRANCH  29  31
ENDBRANCH   8  29
TORSDOF 8
