REMARK  7 active torsions:
REMARK  status: ('A' for Active; 'I' for Inactive)
REMARK    1  A    between atoms: N_5  and  C_8 
REMARK    2  A    between atoms: C_11  and  C_21 
REMARK    3  A    between atoms: C_12  and  N_14 
REMARK    4  A    between atoms: N_14  and  C_15 
REMARK       I    between atoms: C_21  and  N_23 
REMARK    5  A    between atoms: N_23  and  C_24 
REMARK    6  A    between atoms: C_27  and  C_34 
REMARK    7  A    between atoms: C_34  and  C_35 
ROOT
HETATM    1  C   UNK N   1      -0.740   0.017  -0.232  0.00  0.00     0.259 C 
HETATM    2  O   UNK N   1      -1.509  -0.719   0.372  0.00  0.00    -0.267 OA
HETATM    3  N   UNK N   1       0.367  -0.479  -0.813  0.00  0.00    -0.307 N 
HETATM    4  H   UNK N   1       0.877   0.114  -1.410  0.00  0.00     0.170 HD
ENDROOT
BRANCH   1   5
HETATM    5  C   UNK N   1      -0.901   1.490  -0.213  0.00  0.00     0.058 A 
HETATM    6  C   UNK N   1       0.138   2.282  -0.729  0.00  0.00     0.022 A 
HETATM    7  C   UNK N   1       0.046   3.671  -0.732  0.00  0.00     0.030 A 
HETATM    8  C   UNK N   1      -1.105   4.299  -0.241  0.00  0.00     0.032 A 
HETATM    9  C   UNK N   1      -2.141   3.512   0.285  0.00  0.00     0.059 A 
HETATM   10  C   UNK N   1      -2.036   2.119   0.325  0.00  0.00     0.046 A 
BRANCH   8  11
HETATM   11  N   UNK N   1      -1.247   5.714  -0.323  0.00  0.00    -0.377 N 
HETATM   12  C   UNK N   1      -0.124   6.552  -0.705  0.00  0.00     0.153 C 
HETATM   13  C   UNK N   1      -0.528   8.025  -0.700  0.00  0.00     0.291 C 
HETATM   14  N   UNK N   1      -1.231   8.349   0.544  0.00  0.00     0.087 N 
HETATM   15  C   UNK N   1      -1.639   9.739   0.453  0.00  0.00     0.310 C 
HETATM   16  C   UNK N   1      -2.458   7.560   0.747  0.00  0.00     0.291 C 
HETATM   17  C   UNK N   1      -2.552   6.316  -0.137  0.00  0.00     0.153 C 
ENDBRANCH   8  11
BRANCH  10  18
HETATM   18  N   UNK N   1      -3.089   1.348   0.860  0.00  0.00    -0.384 N 
HETATM   19  H   UNK N   1      -2.990   0.925   1.743  0.00  0.00     0.160 HD
BRANCH  18  20
HETATM   20  C   UNK N   1      -4.303   1.181   0.116  0.00  0.00     0.085 C 
HETATM   21  C   UNK N   1      -5.122   0.032   0.682  0.00  0.00     0.051 C 
HETATM   22  C   UNK N   1      -6.407  -0.050  -0.139  0.00  0.00     0.169 C 
HETATM   23  O   UNK N   1      -7.132   1.149   0.003  0.00  0.00    -0.391 OA
HETATM   24  C   UNK N   1      -6.415   2.152  -0.677  0.00  0.00     0.169 C 
HETATM   25  C   UNK N   1      -5.126   2.464   0.080  0.00  0.00     0.051 C 
ENDBRANCH  18  20
ENDBRANCH  10  18
ENDBRANCH   1   5
BRANCH   3  26
HETATM   26  C   UNK N   1       0.842  -1.784  -0.623  0.00  0.00     0.135 A 
HETATM   27  C   UNK N   1       2.093  -2.008  -0.199  0.00  0.00     0.038 A 
HETATM   28  C   UNK N   1       3.108  -1.108   0.045  0.00  0.00     0.025 A 
HETATM   29  C   UNK N   1       2.164  -3.325   0.086  0.00  0.00     0.062 A 
HETATM   30  C   UNK N   1       4.275  -1.598   0.622  0.00  0.00    -0.053 A 
HETATM   31  C   UNK N   1       4.383  -2.985   0.933  0.00  0.00     0.010 A 
HETATM   32  C   UNK N   1       3.313  -3.874   0.649  0.00  0.00     0.032 A 
HETATM   33  N   UNK N   1       0.969  -3.903  -0.173  0.00  0.00    -0.298 N 
HETATM   34  N   UNK N   1       0.140  -2.942  -0.591  0.00  0.00    -0.284 N 
HETATM   35  H   UNK N   1       0.750  -4.858  -0.072  0.00  0.00     0.187 HD
ATOM     36  HN  UNK N   1      -0.843  -3.059  -0.840  1.00  0.00     0.188 HD
BRANCH  30  37
HETATM   37  C   UNK N   1       5.312  -0.597   1.023  0.00  0.00     0.077 C 
BRANCH  37  38
HETATM   38  C   UNK N   1       6.678  -0.785   0.455  0.00  0.00    -0.048 A 
HETATM   39  C   UNK N   1       7.529   0.322   0.373  0.00  0.00     0.049 A 
HETATM   40  C   UNK N   1       8.847   0.163  -0.063  0.00  0.00     0.119 A 
HETATM   41  C   UNK N   1       9.320  -1.108  -0.404  0.00  0.00     0.084 A 
HETATM   42  F   UNK N   1       9.671   1.235  -0.133  0.00  0.00    -0.206 F 
HETATM   43  C   UNK N   1       8.472  -2.216  -0.316  0.00  0.00     0.119 A 
HETATM   44  C   UNK N   1       7.158  -2.055   0.118  0.00  0.00     0.049 A 
HETATM   45  F   UNK N   1       8.929  -3.451  -0.628  0.00  0.00    -0.206 F 
ENDBRANCH  37  38
ENDBRANCH  30  37
ENDBRANCH   3  26
TORSDOF 7
