MODEL 1
REMARK VINA RESULT:      -7.7      0.000      0.000
REMARK  5 active torsions:
REMARK  status: ('A' for Active; 'I' for Inactive)
REMARK    1  A    between atoms: C_3  and  C_16 
REMARK    2  A    between atoms: N_10  and  C_11 
REMARK    3  A    between atoms: C_11  and  C_12 
REMARK    4  A    between atoms: C_12  and  O_14 
REMARK    5  A    between atoms: C_16  and  C_17 
ROOT
HETATM    1  C   UNK N   1      20.045  17.254   3.203  0.00  0.00     0.069 C 
HETATM    2  C   UNK N   1      21.408  17.846   3.362  0.00  0.00     0.016 A 
HETATM    3  C   UNK N   1      22.522  17.190   3.888  0.00  0.00    -0.018 A 
HETATM    4  C   UNK N   1      23.560  18.122   3.826  0.00  0.00     0.002 A 
HETATM    5  C   UNK N   1      24.905  18.053   4.192  0.00  0.00     0.056 A 
HETATM    6  C   UNK N   1      25.701  19.200   4.060  0.00  0.00     0.117 A 
HETATM    7  C   UNK N   1      25.150  20.391   3.549  0.00  0.00     0.044 A 
HETATM    8  C   UNK N   1      23.802  20.436   3.159  0.00  0.00     0.033 A 
HETATM    9  C   UNK N   1      23.036  19.279   3.309  0.00  0.00     0.046 A 
HETATM   10  N   UNK N   1      21.731  19.114   3.007  0.00  0.00    -0.340 N 
HETATM   11  F   UNK N   1      26.999  19.165   4.449  0.00  0.00    -0.206 F 
ENDROOT
BRANCH   3  12
HETATM   12  C   UNK N   1      22.507  15.754   4.390  0.00  0.00     0.098 C 
BRANCH  12  13
HETATM   13  C   UNK N   1      22.112  15.490   5.824  0.00  0.00     0.014 A 
HETATM   14  C   UNK N   1      21.300  16.410   6.501  0.00  0.00     0.026 A 
HETATM   15  C   UNK N   1      20.844  16.112   7.792  0.00  0.00     0.015 A 
HETATM   16  C   UNK N   1      21.180  14.890   8.379  0.00  0.00    -0.009 A 
HETATM   17  C   UNK N   1      20.696  14.535   9.642  0.00  0.00     0.013 A 
HETATM   18  C   UNK N   1      22.007  13.998   7.673  0.00  0.00     0.042 A 
HETATM   19  C   UNK N   1      21.025  13.287  10.189  0.00  0.00     0.001 A 
HETATM   20  C   UNK N   1      21.843  12.400   9.480  0.00  0.00     0.002 A 
HETATM   21  C   UNK N   1      22.337  12.757   8.223  0.00  0.00     0.030 A 
HETATM   22  N   UNK N   1      22.454  14.330   6.439  0.00  0.00    -0.359 N 
ATOM     23  HN  UNK N   1      23.072  13.681   5.952  1.00  0.00     0.166 HD
ENDBRANCH  12  13
ENDBRANCH   3  12
BRANCH  10  24
HETATM   24  C   UNK N   1      20.832  20.116   2.438  0.00  0.00     0.238 C 
BRANCH  24  25
HETATM   25  C   UNK N   1      20.878  20.122   0.936  0.00  0.00     0.158 C 
HETATM   26  O   UNK N   1      21.330  21.090   0.350  0.00  0.00    -0.649 OA
BRANCH  25  27
HETATM   27  O   UNK N   1      20.459  19.054   0.232  0.00  0.00    -0.775 OA
HETATM   28  H   UNK N   1      20.744  18.844  -0.637  0.00  0.00     0.167 HD
ENDBRANCH  25  27
ENDBRANCH  24  25
ENDBRANCH  10  24
TORSDOF 5
ENDMDL
MODEL 2
REMARK VINA RESULT:      -7.7      6.734      9.711
REMARK  5 active torsions:
REMARK  status: ('A' for Active; 'I' for Inactive)
REMARK    1  A    between atoms: C_3  and  C_16 
REMARK    2  A    between atoms: N_10  and  C_11 
REMARK    3  A    between atoms: C_11  and  C_12 
REMARK    4  A    between atoms: C_12  and  O_14 
REMARK    5  A    between atoms: C_16  and  C_17 
ROOT
HETATM    1  C   UNK N   1      30.751  17.817   8.721  0.00  0.00     0.069 C 
HETATM    2  C   UNK N   1      30.752  17.050   7.440  0.00  0.00     0.016 A 
HETATM    3  C   UNK N   1      29.640  16.827   6.626  0.00  0.00    -0.018 A 
HETATM    4  C   UNK N   1      30.119  16.084   5.545  0.00  0.00     0.002 A 
HETATM    5  C   UNK N   1      29.492  15.573   4.408  0.00  0.00     0.056 A 
HETATM    6  C   UNK N   1      30.244  14.798   3.512  0.00  0.00     0.117 A 
HETATM    7  C   UNK N   1      31.612  14.563   3.753  0.00  0.00     0.044 A 
HETATM    8  C   UNK N   1      32.233  15.108   4.887  0.00  0.00     0.033 A 
HETATM    9  C   UNK N   1      31.455  15.868   5.762  0.00  0.00     0.046 A 
HETATM   10  N   UNK N   1      31.853  16.468   6.904  0.00  0.00    -0.340 N 
HETATM   11  F   UNK N   1      29.644  14.258   2.424  0.00  0.00    -0.206 F 
ENDROOT
BRANCH   3  12
HETATM   12  C   UNK N   1      28.241  17.339   6.935  0.00  0.00     0.098 C 
BRANCH  12  13
HETATM   13  C   UNK N   1      27.582  18.286   5.959  0.00  0.00     0.014 A 
HETATM   14  C   UNK N   1      28.371  19.162   5.201  0.00  0.00     0.026 A 
HETATM   15  C   UNK N   1      27.771  19.961   4.220  0.00  0.00     0.015 A 
HETATM   16  C   UNK N   1      26.397  19.857   3.988  0.00  0.00    -0.009 A 
HETATM   17  C   UNK N   1      25.774  20.596   2.978  0.00  0.00     0.013 A 
HETATM   18  C   UNK N   1      25.637  18.975   4.777  0.00  0.00     0.042 A 
HETATM   19  C   UNK N   1      24.400  20.444   2.750  0.00  0.00     0.001 A 
HETATM   20  C   UNK N   1      23.648  19.560   3.533  0.00  0.00     0.002 A 
HETATM   21  C   UNK N   1      24.266  18.829   4.550  0.00  0.00     0.030 A 
HETATM   22  N   UNK N   1      26.245  18.239   5.737  0.00  0.00    -0.359 N 
ATOM     23  HN  UNK N   1      25.673  17.623   6.316  1.00  0.00     0.166 HD
ENDBRANCH  12  13
ENDBRANCH   3  12
BRANCH  10  24
HETATM   24  C   UNK N   1      33.200  16.465   7.470  0.00  0.00     0.238 C 
BRANCH  24  25
HETATM   25  C   UNK N   1      33.985  17.678   7.057  0.00  0.00     0.158 C 
HETATM   26  O   UNK N   1      34.146  17.917   5.873  0.00  0.00    -0.649 OA
BRANCH  25  27
HETATM   27  O   UNK N   1      34.480  18.523   7.980  0.00  0.00    -0.775 OA
HETATM   28  H   UNK N   1      35.358  18.499   8.308  0.00  0.00     0.167 HD
ENDBRANCH  25  27
ENDBRANCH  24  25
ENDBRANCH  10  24
TORSDOF 5
ENDMDL
MODEL 3
REMARK VINA RESULT:      -7.6      2.434      3.555
REMARK  5 active torsions:
REMARK  status: ('A' for Active; 'I' for Inactive)
REMARK    1  A    between atoms: C_3  and  C_16 
REMARK    2  A    between atoms: N_10  and  C_11 
REMARK    3  A    between atoms: C_11  and  C_12 
REMARK    4  A    between atoms: C_12  and  O_14 
REMARK    5  A    between atoms: C_16  and  C_17 
ROOT
HETATM    1  C   UNK N   1      22.092  19.057   4.585  0.00  0.00     0.069 C 
HETATM    2  C   UNK N   1      21.561  18.037   3.631  0.00  0.00     0.016 A 
HETATM    3  C   UNK N   1      21.862  16.674   3.649  0.00  0.00    -0.018 A 
HETATM    4  C   UNK N   1      21.132  16.123   2.594  0.00  0.00     0.002 A 
HETATM    5  C   UNK N   1      21.014  14.817   2.117  0.00  0.00     0.056 A 
HETATM    6  C   UNK N   1      20.234  14.581   0.976  0.00  0.00     0.117 A 
HETATM    7  C   UNK N   1      19.568  15.647   0.340  0.00  0.00     0.044 A 
HETATM    8  C   UNK N   1      19.675  16.951   0.848  0.00  0.00     0.033 A 
HETATM    9  C   UNK N   1      20.465  17.152   1.981  0.00  0.00     0.046 A 
HETATM   10  N   UNK N   1      20.705  18.318   2.617  0.00  0.00    -0.340 N 
HETATM   11  F   UNK N   1      20.139  13.326   0.474  0.00  0.00    -0.206 F 
ENDROOT
BRANCH   3  12
HETATM   12  C   UNK N   1      22.796  16.021   4.656  0.00  0.00     0.098 C 
BRANCH  12  13
HETATM   13  C   UNK N   1      22.247  15.629   6.008  0.00  0.00     0.014 A 
HETATM   14  C   UNK N   1      21.130  16.300   6.525  0.00  0.00     0.026 A 
HETATM   15  C   UNK N   1      20.556  15.864   7.726  0.00  0.00     0.015 A 
HETATM   16  C   UNK N   1      21.084  14.748   8.381  0.00  0.00    -0.009 A 
HETATM   17  C   UNK N   1      20.501  14.251   9.550  0.00  0.00     0.013 A 
HETATM   18  C   UNK N   1      22.212  14.109   7.837  0.00  0.00     0.042 A 
HETATM   19  C   UNK N   1      21.036  13.110  10.165  0.00  0.00     0.001 A 
HETATM   20  C   UNK N   1      22.155  12.473   9.617  0.00  0.00     0.002 A 
HETATM   21  C   UNK N   1      22.745  12.975   8.454  0.00  0.00     0.030 A 
HETATM   22  N   UNK N   1      22.761  14.575   6.690  0.00  0.00    -0.359 N 
ATOM     23  HN  UNK N   1      23.593  14.113   6.324  1.00  0.00     0.166 HD
ENDBRANCH  12  13
ENDBRANCH   3  12
BRANCH  10  24
HETATM   24  C   UNK N   1      20.174  19.633   2.264  0.00  0.00     0.238 C 
BRANCH  24  25
HETATM   25  C   UNK N   1      21.013  20.315   1.221  0.00  0.00     0.158 C 
HETATM   26  O   UNK N   1      22.099  20.776   1.528  0.00  0.00    -0.649 OA
BRANCH  25  27
HETATM   27  O   UNK N   1      20.596  20.390  -0.056  0.00  0.00    -0.775 OA
HETATM   28  H   UNK N   1      19.702  20.493  -0.319  0.00  0.00     0.167 HD
ENDBRANCH  25  27
ENDBRANCH  24  25
ENDBRANCH  10  24
TORSDOF 5
ENDMDL
MODEL 4
REMARK VINA RESULT:      -7.6      7.067      9.964
REMARK  5 active torsions:
REMARK  status: ('A' for Active; 'I' for Inactive)
REMARK    1  A    between atoms: C_3  and  C_16 
REMARK    2  A    between atoms: N_10  and  C_11 
REMARK    3  A    between atoms: C_11  and  C_12 
REMARK    4  A    between atoms: C_12  and  O_14 
REMARK    5  A    between atoms: C_16  and  C_17 
ROOT
HETATM    1  C   UNK N   1      33.026  15.722   5.063  0.00  0.00     0.069 C 
HETATM    2  C   UNK N   1      32.061  16.414   5.971  0.00  0.00     0.016 A 
HETATM    3  C   UNK N   1      30.786  16.857   5.615  0.00  0.00    -0.018 A 
HETATM    4  C   UNK N   1      30.256  17.420   6.778  0.00  0.00     0.002 A 
HETATM    5  C   UNK N   1      29.025  18.017   7.052  0.00  0.00     0.056 A 
HETATM    6  C   UNK N   1      28.804  18.555   8.329  0.00  0.00     0.117 A 
HETATM    7  C   UNK N   1      29.806  18.471   9.316  0.00  0.00     0.044 A 
HETATM    8  C   UNK N   1      31.028  17.843   9.032  0.00  0.00     0.033 A 
HETATM    9  C   UNK N   1      31.218  17.325   7.750  0.00  0.00     0.046 A 
HETATM   10  N   UNK N   1      32.313  16.697   7.273  0.00  0.00    -0.340 N 
HETATM   11  F   UNK N   1      27.631  19.175   8.603  0.00  0.00    -0.206 F 
ENDROOT
BRANCH   3  12
HETATM   12  C   UNK N   1      30.187  16.702   4.225  0.00  0.00     0.098 C 
BRANCH  12  13
HETATM   13  C   UNK N   1      28.734  17.060   4.017  0.00  0.00     0.014 A 
HETATM   14  C   UNK N   1      27.751  16.069   4.143  0.00  0.00     0.026 A 
HETATM   15  C   UNK N   1      26.397  16.422   4.058  0.00  0.00     0.015 A 
HETATM   16  C   UNK N   1      26.042  17.762   3.878  0.00  0.00    -0.009 A 
HETATM   17  C   UNK N   1      24.702  18.158   3.847  0.00  0.00     0.013 A 
HETATM   18  C   UNK N   1      27.058  18.725   3.745  0.00  0.00     0.042 A 
HETATM   19  C   UNK N   1      24.380  19.514   3.697  0.00  0.00     0.001 A 
HETATM   20  C   UNK N   1      25.394  20.470   3.571  0.00  0.00     0.002 A 
HETATM   21  C   UNK N   1      26.733  20.075   3.591  0.00  0.00     0.030 A 
HETATM   22  N   UNK N   1      28.356  18.344   3.802  0.00  0.00    -0.359 N 
ATOM     23  HN  UNK N   1      29.079  19.054   3.678  1.00  0.00     0.166 HD
ENDBRANCH  12  13
ENDBRANCH   3  12
BRANCH  10  24
HETATM   24  C   UNK N   1      33.544  16.406   8.006  0.00  0.00     0.238 C 
BRANCH  24  25
HETATM   25  C   UNK N   1      34.452  17.602   8.072  0.00  0.00     0.158 C 
HETATM   26  O   UNK N   1      34.627  18.282   7.076  0.00  0.00    -0.649 OA
BRANCH  25  27
HETATM   27  O   UNK N   1      35.045  17.950   9.229  0.00  0.00    -0.775 OA
HETATM   28  H   UNK N   1      35.970  17.923   9.383  0.00  0.00     0.167 HD
ENDBRANCH  25  27
ENDBRANCH  24  25
ENDBRANCH  10  24
TORSDOF 5
ENDMDL
MODEL 5
REMARK VINA RESULT:      -7.6      5.821      8.635
REMARK  5 active torsions:
REMARK  status: ('A' for Active; 'I' for Inactive)
REMARK    1  A    between atoms: C_3  and  C_16 
REMARK    2  A    between atoms: N_10  and  C_11 
REMARK    3  A    between atoms: C_11  and  C_12 
REMARK    4  A    between atoms: C_12  and  O_14 
REMARK    5  A    between atoms: C_16  and  C_17 
ROOT
HETATM    1  C   UNK N   1      29.148  15.296   3.928  0.00  0.00     0.069 C 
HETATM    2  C   UNK N   1      29.559  16.031   5.162  0.00  0.00     0.016 A 
HETATM    3  C   UNK N   1      28.691  16.604   6.093  0.00  0.00    -0.018 A 
HETATM    4  C   UNK N   1      29.518  17.161   7.071  0.00  0.00     0.002 A 
HETATM    5  C   UNK N   1      29.240  17.855   8.249  0.00  0.00     0.056 A 
HETATM    6  C   UNK N   1      30.309  18.352   9.010  0.00  0.00     0.117 A 
HETATM    7  C   UNK N   1      31.637  18.134   8.594  0.00  0.00     0.044 A 
HETATM    8  C   UNK N   1      31.900  17.410   7.420  0.00  0.00     0.033 A 
HETATM    9  C   UNK N   1      30.814  16.935   6.684  0.00  0.00     0.046 A 
HETATM   10  N   UNK N   1      30.848  16.232   5.532  0.00  0.00    -0.340 N 
HETATM   11  F   UNK N   1      30.058  19.064  10.135  0.00  0.00    -0.206 F 
ENDROOT
BRANCH   3  12
HETATM   12  C   UNK N   1      27.175  16.568   5.980  0.00  0.00     0.098 C 
BRANCH  12  13
HETATM   13  C   UNK N   1      26.474  17.688   5.247  0.00  0.00     0.014 A 
HETATM   14  C   UNK N   1      27.231  18.655   4.571  0.00  0.00     0.026 A 
HETATM   15  C   UNK N   1      26.580  19.629   3.802  0.00  0.00     0.015 A 
HETATM   16  C   UNK N   1      25.187  19.609   3.694  0.00  0.00    -0.009 A 
HETATM   17  C   UNK N   1      24.509  20.529   2.890  0.00  0.00     0.013 A 
HETATM   18  C   UNK N   1      24.463  18.629   4.397  0.00  0.00     0.042 A 
HETATM   19  C   UNK N   1      23.114  20.461   2.777  0.00  0.00     0.001 A 
HETATM   20  C   UNK N   1      22.397  19.481   3.473  0.00  0.00     0.002 A 
HETATM   21  C   UNK N   1      23.072  18.567   4.286  0.00  0.00     0.030 A 
HETATM   22  N   UNK N   1      25.121  17.721   5.155  0.00  0.00    -0.359 N 
ATOM     23  HN  UNK N   1      24.577  17.033   5.676  1.00  0.00     0.166 HD
ENDBRANCH  12  13
ENDBRANCH   3  12
BRANCH  10  24
HETATM   24  C   UNK N   1      32.041  15.798   4.808  0.00  0.00     0.238 C 
BRANCH  24  25
HETATM   25  C   UNK N   1      32.336  16.685   3.631  0.00  0.00     0.158 C 
HETATM   26  O   UNK N   1      32.940  16.234   2.673  0.00  0.00    -0.649 OA
BRANCH  25  27
HETATM   27  O   UNK N   1      31.908  17.960   3.607  0.00  0.00    -0.775 OA
HETATM   28  H   UNK N   1      32.309  18.647   3.111  0.00  0.00     0.167 HD
ENDBRANCH  25  27
ENDBRANCH  24  25
ENDBRANCH  10  24
TORSDOF 5
ENDMDL
MODEL 6
REMARK VINA RESULT:      -7.4     12.697     14.331
REMARK  5 active torsions:
REMARK  status: ('A' for Active; 'I' for Inactive)
REMARK    1  A    between atoms: C_3  and  C_16 
REMARK    2  A    between atoms: N_10  and  C_11 
REMARK    3  A    between atoms: C_11  and  C_12 
REMARK    4  A    between atoms: C_12  and  O_14 
REMARK    5  A    between atoms: C_16  and  C_17 
ROOT
HETATM    1  C   UNK N   1      35.490  16.551  11.019  0.00  0.00     0.069 C 
HETATM    2  C   UNK N   1      34.909  15.646   9.982  0.00  0.00     0.016 A 
HETATM    3  C   UNK N   1      35.177  14.282   9.852  0.00  0.00    -0.018 A 
HETATM    4  C   UNK N   1      34.407  13.858   8.767  0.00  0.00     0.002 A 
HETATM    5  C   UNK N   1      34.244  12.610   8.164  0.00  0.00     0.056 A 
HETATM    6  C   UNK N   1      33.428  12.510   7.027  0.00  0.00     0.117 A 
HETATM    7  C   UNK N   1      32.773  13.650   6.522  0.00  0.00     0.044 A 
HETATM    8  C   UNK N   1      32.925  14.892   7.158  0.00  0.00     0.033 A 
HETATM    9  C   UNK N   1      33.750  14.959   8.282  0.00  0.00     0.046 A 
HETATM   10  N   UNK N   1      34.035  16.048   9.026  0.00  0.00    -0.340 N 
HETATM   11  F   UNK N   1      33.290  11.316   6.403  0.00  0.00    -0.206 F 
ENDROOT
BRANCH   3  12
HETATM   12  C   UNK N   1      36.121  13.509  10.761  0.00  0.00     0.098 C 
BRANCH  12  13
HETATM   13  C   UNK N   1      35.540  12.734  11.920  0.00  0.00     0.014 A 
HETATM   14  C   UNK N   1      34.775  11.586  11.674  0.00  0.00     0.026 A 
HETATM   15  C   UNK N   1      34.329  10.807  12.750  0.00  0.00     0.015 A 
HETATM   16  C   UNK N   1      34.675  11.168  14.055  0.00  0.00    -0.009 A 
HETATM   17  C   UNK N   1      34.297  10.383  15.148  0.00  0.00     0.013 A 
HETATM   18  C   UNK N   1      35.435  12.333  14.262  0.00  0.00     0.042 A 
HETATM   19  C   UNK N   1      34.688  10.754  16.442  0.00  0.00     0.001 A 
HETATM   20  C   UNK N   1      35.449  11.912  16.643  0.00  0.00     0.002 A 
HETATM   21  C   UNK N   1      35.819  12.703  15.553  0.00  0.00     0.030 A 
HETATM   22  N   UNK N   1      35.824  13.079  13.201  0.00  0.00    -0.359 N 
ATOM     23  HN  UNK N   1      36.353  13.934  13.373  1.00  0.00     0.166 HD
ENDBRANCH  12  13
ENDBRANCH   3  12
BRANCH  10  24
HETATM   24  C   UNK N   1      33.527  17.404   8.824  0.00  0.00     0.238 C 
BRANCH  24  25
HETATM   25  C   UNK N   1      34.445  18.224   7.963  0.00  0.00     0.158 C 
HETATM   26  O   UNK N   1      34.438  18.067   6.754  0.00  0.00    -0.649 OA
BRANCH  25  27
HETATM   27  O   UNK N   1      35.250  19.154   8.508  0.00  0.00    -0.775 OA
HETATM   28  H   UNK N   1      35.261  20.059   8.263  0.00  0.00     0.167 HD
ENDBRANCH  25  27
ENDBRANCH  24  25
ENDBRANCH  10  24
TORSDOF 5
ENDMDL
MODEL 7
REMARK VINA RESULT:      -7.3      5.016      7.876
REMARK  5 active torsions:
REMARK  status: ('A' for Active; 'I' for Inactive)
REMARK    1  A    between atoms: C_3  and  C_16 
REMARK    2  A    between atoms: N_10  and  C_11 
REMARK    3  A    between atoms: C_11  and  C_12 
REMARK    4  A    between atoms: C_12  and  O_14 
REMARK    5  A    between atoms: C_16  and  C_17 
ROOT
HETATM    1  C   UNK N   1      27.143  20.579   6.918  0.00  0.00     0.069 C 
HETATM    2  C   UNK N   1      27.864  19.410   6.331  0.00  0.00     0.016 A 
HETATM    3  C   UNK N   1      27.767  18.975   5.008  0.00  0.00    -0.018 A 
HETATM    4  C   UNK N   1      28.620  17.874   4.920  0.00  0.00     0.002 A 
HETATM    5  C   UNK N   1      28.953  17.029   3.861  0.00  0.00     0.056 A 
HETATM    6  C   UNK N   1      29.814  15.948   4.103  0.00  0.00     0.117 A 
HETATM    7  C   UNK N   1      30.345  15.738   5.390  0.00  0.00     0.044 A 
HETATM    8  C   UNK N   1      30.022  16.615   6.438  0.00  0.00     0.033 A 
HETATM    9  C   UNK N   1      29.157  17.675   6.166  0.00  0.00     0.046 A 
HETATM   10  N   UNK N   1      28.717  18.617   7.027  0.00  0.00    -0.340 N 
HETATM   11  F   UNK N   1      30.116  15.092   3.097  0.00  0.00    -0.206 F 
ENDROOT
BRANCH   3  12
HETATM   12  C   UNK N   1      26.891  19.639   3.956  0.00  0.00     0.098 C 
BRANCH  12  13
HETATM   13  C   UNK N   1      25.425  19.277   3.898  0.00  0.00     0.014 A 
HETATM   14  C   UNK N   1      24.954  18.173   4.622  0.00  0.00     0.026 A 
HETATM   15  C   UNK N   1      23.579  17.903   4.654  0.00  0.00     0.015 A 
HETATM   16  C   UNK N   1      22.692  18.753   3.989  0.00  0.00    -0.009 A 
HETATM   17  C   UNK N   1      21.310  18.548   4.048  0.00  0.00     0.013 A 
HETATM   18  C   UNK N   1      23.204  19.843   3.264  0.00  0.00     0.042 A 
HETATM   19  C   UNK N   1      20.445  19.437   3.397  0.00  0.00     0.001 A 
HETATM   20  C   UNK N   1      20.959  20.524   2.681  0.00  0.00     0.002 A 
HETATM   21  C   UNK N   1      22.339  20.725   2.612  0.00  0.00     0.030 A 
HETATM   22  N   UNK N   1      24.541  20.057   3.229  0.00  0.00    -0.359 N 
ATOM     23  HN  UNK N   1      24.896  20.839   2.677  1.00  0.00     0.166 HD
ENDBRANCH  12  13
ENDBRANCH   3  12
BRANCH  10  24
HETATM   24  C   UNK N   1      29.065  18.740   8.441  0.00  0.00     0.238 C 
BRANCH  24  25
HETATM   25  C   UNK N   1      28.505  17.610   9.257  0.00  0.00     0.158 C 
HETATM   26  O   UNK N   1      29.193  17.088  10.117  0.00  0.00    -0.649 OA
BRANCH  25  27
HETATM   27  O   UNK N   1      27.239  17.191   9.074  0.00  0.00    -0.775 OA
HETATM   28  H   UNK N   1      26.823  16.517   9.575  0.00  0.00     0.167 HD
ENDBRANCH  25  27
ENDBRANCH  24  25
ENDBRANCH  10  24
TORSDOF 5
ENDMDL
MODEL 8
REMARK VINA RESULT:      -7.3      2.927      3.785
REMARK  5 active torsions:
REMARK  status: ('A' for Active; 'I' for Inactive)
REMARK    1  A    between atoms: C_3  and  C_16 
REMARK    2  A    between atoms: N_10  and  C_11 
REMARK    3  A    between atoms: C_11  and  C_12 
REMARK    4  A    between atoms: C_12  and  O_14 
REMARK    5  A    between atoms: C_16  and  C_17 
ROOT
HETATM    1  C   UNK N   1      22.422  13.802   3.583  0.00  0.00     0.069 C 
HETATM    2  C   UNK N   1      21.881  15.186   3.424  0.00  0.00     0.016 A 
HETATM    3  C   UNK N   1      22.147  16.263   4.270  0.00  0.00    -0.018 A 
HETATM    4  C   UNK N   1      21.446  17.340   3.723  0.00  0.00     0.002 A 
HETATM    5  C   UNK N   1      21.328  18.676   4.112  0.00  0.00     0.056 A 
HETATM    6  C   UNK N   1      20.483  19.521   3.377  0.00  0.00     0.117 A 
HETATM    7  C   UNK N   1      19.787  19.028   2.256  0.00  0.00     0.044 A 
HETATM    8  C   UNK N   1      19.939  17.689   1.863  0.00  0.00     0.033 A 
HETATM    9  C   UNK N   1      20.780  16.873   2.620  0.00  0.00     0.046 A 
HETATM   10  N   UNK N   1      21.054  15.567   2.419  0.00  0.00    -0.340 N 
HETATM   11  F   UNK N   1      20.323  20.810   3.762  0.00  0.00    -0.206 F 
ENDROOT
BRANCH   3  12
HETATM   12  C   UNK N   1      23.036  16.181   5.502  0.00  0.00     0.098 C 
BRANCH  12  13
HETATM   13  C   UNK N   1      22.459  15.610   6.777  0.00  0.00     0.014 A 
HETATM   14  C   UNK N   1      21.302  16.175   7.329  0.00  0.00     0.026 A 
HETATM   15  C   UNK N   1      20.707  15.577   8.448  0.00  0.00     0.015 A 
HETATM   16  C   UNK N   1      21.257  14.410   8.984  0.00  0.00    -0.009 A 
HETATM   17  C   UNK N   1      20.657  13.755  10.063  0.00  0.00     0.013 A 
HETATM   18  C   UNK N   1      22.426  13.880   8.408  0.00  0.00     0.042 A 
HETATM   19  C   UNK N   1      21.216  12.568  10.556  0.00  0.00     0.001 A 
HETATM   20  C   UNK N   1      22.376  12.040   9.976  0.00  0.00     0.002 A 
HETATM   21  C   UNK N   1      22.983  12.699   8.905  0.00  0.00     0.030 A 
HETATM   22  N   UNK N   1      22.992  14.500   7.346  0.00  0.00    -0.359 N 
ATOM     23  HN  UNK N   1      23.853  14.115   6.957  1.00  0.00     0.166 HD
ENDBRANCH  12  13
ENDBRANCH   3  12
BRANCH  10  24
HETATM   24  C   UNK N   1      20.536  14.719   1.347  0.00  0.00     0.238 C 
BRANCH  24  25
HETATM   25  C   UNK N   1      19.143  14.238   1.637  0.00  0.00     0.158 C 
HETATM   26  O   UNK N   1      18.898  13.709   2.707  0.00  0.00    -0.649 OA
BRANCH  25  27
HETATM   27  O   UNK N   1      18.154  14.418   0.742  0.00  0.00    -0.775 OA
HETATM   28  H   UNK N   1      18.100  15.140   0.146  0.00  0.00     0.167 HD
ENDBRANCH  25  27
ENDBRANCH  24  25
ENDBRANCH  10  24
TORSDOF 5
ENDMDL
MODEL 9
REMARK VINA RESULT:      -7.2      9.712     11.426
REMARK  5 active torsions:
REMARK  status: ('A' for Active; 'I' for Inactive)
REMARK    1  A    between atoms: C_3  and  C_16 
REMARK    2  A    between atoms: N_10  and  C_11 
REMARK    3  A    between atoms: C_11  and  C_12 
REMARK    4  A    between atoms: C_12  and  O_14 
REMARK    5  A    between atoms: C_16  and  C_17 
ROOT
HETATM    1  C   UNK N   1      33.440  15.490   4.846  0.00  0.00     0.069 C 
HETATM    2  C   UNK N   1      32.497  16.159   5.792  0.00  0.00     0.016 A 
HETATM    3  C   UNK N   1      32.859  16.829   6.962  0.00  0.00    -0.018 A 
HETATM    4  C   UNK N   1      31.659  17.298   7.502  0.00  0.00     0.002 A 
HETATM    5  C   UNK N   1      31.375  18.040   8.649  0.00  0.00     0.056 A 
HETATM    6  C   UNK N   1      30.035  18.310   8.964  0.00  0.00     0.117 A 
HETATM    7  C   UNK N   1      29.002  17.855   8.122  0.00  0.00     0.044 A 
HETATM    8  C   UNK N   1      29.307  17.134   6.957  0.00  0.00     0.033 A 
HETATM    9  C   UNK N   1      30.650  16.876   6.676  0.00  0.00     0.046 A 
HETATM   10  N   UNK N   1      31.152  16.198   5.622  0.00  0.00    -0.340 N 
HETATM   11  F   UNK N   1      29.736  18.994  10.096  0.00  0.00    -0.206 F 
ENDROOT
BRANCH   3  12
HETATM   12  C   UNK N   1      34.291  16.972   7.454  0.00  0.00     0.098 C 
BRANCH  12  13
HETATM   13  C   UNK N   1      34.695  16.264   8.726  0.00  0.00     0.014 A 
HETATM   14  C   UNK N   1      35.017  17.014   9.865  0.00  0.00     0.026 A 
HETATM   15  C   UNK N   1      35.285  16.357  11.074  0.00  0.00     0.015 A 
HETATM   16  C   UNK N   1      35.201  14.964  11.137  0.00  0.00    -0.009 A 
HETATM   17  C   UNK N   1      35.404  14.279  12.339  0.00  0.00     0.013 A 
HETATM   18  C   UNK N   1      34.886  14.246   9.970  0.00  0.00     0.042 A 
HETATM   19  C   UNK N   1      35.281  12.884  12.376  0.00  0.00     0.001 A 
HETATM   20  C   UNK N   1      34.962  12.173  11.213  0.00  0.00     0.002 A 
HETATM   21  C   UNK N   1      34.768  12.855  10.009  0.00  0.00     0.030 A 
HETATM   22  N   UNK N   1      34.662  14.911   8.812  0.00  0.00    -0.359 N 
ATOM     23  HN  UNK N   1      34.460  14.371   7.970  1.00  0.00     0.166 HD
ENDBRANCH  12  13
ENDBRANCH   3  12
BRANCH  10  24
HETATM   24  C   UNK N   1      30.393  15.594   4.528  0.00  0.00     0.238 C 
BRANCH  24  25
HETATM   25  C   UNK N   1      30.117  16.579   3.428  0.00  0.00     0.158 C 
HETATM   26  O   UNK N   1      28.971  16.932   3.208  0.00  0.00    -0.649 OA
BRANCH  25  27
HETATM   27  O   UNK N   1      31.124  17.105   2.707  0.00  0.00    -0.775 OA
HETATM   28  H   UNK N   1      31.997  17.233   3.025  0.00  0.00     0.167 HD
ENDBRANCH  25  27
ENDBRANCH  24  25
ENDBRANCH  10  24
TORSDOF 5
ENDMDL
