MODEL 1
REMARK VINA RESULT:      -8.1      0.000      0.000
REMARK  6 active torsions:
REMARK  status: ('A' for Active; 'I' for Inactive)
REMARK    1  A    between atoms: C_6  and  C_10 
REMARK    2  A    between atoms: C_10  and  O_11 
REMARK    3  A    between atoms: O_11  and  C_12 
REMARK    4  A    between atoms: C_17  and  O_18 
REMARK    5  A    between atoms: C_20  and  N_26 
REMARK    6  A    between atoms: N_26  and  C_27 
ROOT
HETATM    1  C   UNK N   1      34.261  14.711   8.406  0.00  0.00     0.104 A 
HETATM    2  C   UNK N   1      33.434  13.597   8.186  0.00  0.00     0.070 A 
HETATM    3  C   UNK N   1      33.480  12.488   9.034  0.00  0.00     0.050 A 
HETATM    4  C   UNK N   1      34.360  12.481  10.121  0.00  0.00     0.038 A 
HETATM    5  C   UNK N   1      35.200  13.574  10.345  0.00  0.00     0.057 A 
HETATM    6  C   UNK N   1      35.180  14.685   9.502  0.00  0.00     0.102 A 
HETATM    7  C   UNK N   1      34.383  11.374  10.972  0.00  0.00     0.119 A 
HETATM    8  N   UNK N   1      33.550  10.329  10.721  0.00  0.00    -0.338 N 
ATOM      9  HN  UNK N   1      33.564   9.517  11.338  1.00  0.00     0.168 HD
HETATM   10  C   UNK N   1      32.699  10.347   9.657  0.00  0.00     0.182 A 
HETATM   11  N   UNK N   1      32.666  11.421   8.821  0.00  0.00    -0.351 N 
ATOM     12  HN  UNK N   1      32.024  11.425   8.028  1.00  0.00     0.166 HD
ENDROOT
BRANCH   1  13
HETATM   13  O   UNK N   1      34.096  15.768   7.566  0.00  0.00    -0.348 OA
BRANCH  13  14
HETATM   14  C   UNK N   1      33.439  15.756   6.359  0.00  0.00     0.180 C 
BRANCH  14  15
HETATM   15  C   UNK N   1      32.472  16.924   6.305  0.00  0.00     0.011 C 
HETATM   16  C   UNK N   1      32.343  17.628   7.669  0.00  0.00     0.013 C 
HETATM   17  C   UNK N   1      30.904  17.363   8.017  0.00  0.00     0.020 C 
HETATM   18  C   UNK N   1      30.053  18.332   8.791  0.00  0.00     0.277 C 
HETATM   19  C   UNK N   1      30.252  17.427   6.714  0.00  0.00     0.020 C 
HETATM   20  N   UNK N   1      28.684  18.106   8.288  0.00  0.00     0.085 N 
HETATM   21  C   UNK N   1      27.941  17.381   9.305  0.00  0.00     0.309 C 
HETATM   22  C   UNK N   1      28.826  17.224   7.119  0.00  0.00     0.277 C 
HETATM   23  C   UNK N   1      31.060  16.452   5.921  0.00  0.00     0.013 C 
ENDBRANCH  14  15
ENDBRANCH  13  14
ENDBRANCH   1  13
BRANCH   6  24
HETATM   24  O   UNK N   1      36.041  15.687   9.789  0.00  0.00    -0.353 OA
HETATM   25  C   UNK N   1      35.691  16.751  10.588  0.00  0.00     0.210 C 
ENDBRANCH   6  24
BRANCH   7  26
HETATM   26  N   UNK N   1      35.286  11.393  12.074  0.00  0.00    -0.339 N 
HETATM   27  H   UNK N   1      36.108  10.884  11.892  0.00  0.00     0.167 HD
BRANCH  26  28
HETATM   28  C   UNK N   1      35.284  11.970  13.376  0.00  0.00     0.074 A 
HETATM   29  C   UNK N   1      34.329  11.463  14.261  0.00  0.00     0.034 A 
HETATM   30  C   UNK N   1      34.229  11.933  15.566  0.00  0.00     0.028 A 
HETATM   31  C   UNK N   1      35.088  12.927  16.016  0.00  0.00     0.059 A 
HETATM   32  C   UNK N   1      36.061  13.458  15.150  0.00  0.00     0.096 A 
HETATM   33 Cl   UNK N   1      34.926  13.486  17.673  0.00  0.00    -0.082 Cl
HETATM   34  C   UNK N   1      36.166  12.984  13.829  0.00  0.00     0.166 A 
HETATM   35 Cl   UNK N   1      37.158  14.715  15.710  0.00  0.00    -0.079 Cl
HETATM   36  F   UNK N   1      37.118  13.517  13.033  0.00  0.00    -0.202 F 
ENDBRANCH  26  28
ENDBRANCH   7  26
TORSDOF 6
ENDMDL
MODEL 2
REMARK VINA RESULT:      -8.1      5.735     10.463
REMARK  6 active torsions:
REMARK  status: ('A' for Active; 'I' for Inactive)
REMARK    1  A    between atoms: C_6  and  C_10 
REMARK    2  A    between atoms: C_10  and  O_11 
REMARK    3  A    between atoms: O_11  and  C_12 
REMARK    4  A    between atoms: C_17  and  O_18 
REMARK    5  A    between atoms: C_20  and  N_26 
REMARK    6  A    between atoms: N_26  and  C_27 
ROOT
HETATM    1  C   UNK N   1      32.740  17.002   7.768  0.00  0.00     0.104 A 
HETATM    2  C   UNK N   1      31.844  17.141   8.842  0.00  0.00     0.070 A 
HETATM    3  C   UNK N   1      30.473  17.288   8.621  0.00  0.00     0.050 A 
HETATM    4  C   UNK N   1      29.977  17.296   7.313  0.00  0.00     0.038 A 
HETATM    5  C   UNK N   1      30.855  17.174   6.234  0.00  0.00     0.057 A 
HETATM    6  C   UNK N   1      32.229  17.041   6.432  0.00  0.00     0.102 A 
HETATM    7  C   UNK N   1      28.602  17.423   7.106  0.00  0.00     0.119 A 
HETATM    8  N   UNK N   1      27.779  17.540   8.183  0.00  0.00    -0.338 N 
ATOM      9  HN  UNK N   1      26.774  17.635   8.038  1.00  0.00     0.168 HD
HETATM   10  C   UNK N   1      28.275  17.533   9.452  0.00  0.00     0.182 A 
HETATM   11  N   UNK N   1      29.614  17.407   9.667  0.00  0.00    -0.351 N 
ATOM     12  HN  UNK N   1      29.974  17.401  10.621  1.00  0.00     0.166 HD
ENDROOT
BRANCH   1  13
HETATM   13  O   UNK N   1      34.046  16.798   8.086  0.00  0.00    -0.348 OA
BRANCH  13  14
HETATM   14  C   UNK N   1      34.618  16.957   9.326  0.00  0.00     0.180 C 
BRANCH  14  15
HETATM   15  C   UNK N   1      35.518  15.771   9.616  0.00  0.00     0.011 C 
HETATM   16  C   UNK N   1      34.743  14.440   9.588  0.00  0.00     0.013 C 
HETATM   17  C   UNK N   1      34.863  13.984  11.017  0.00  0.00     0.020 C 
HETATM   18  C   UNK N   1      34.951  12.536  11.413  0.00  0.00     0.277 C 
HETATM   19  C   UNK N   1      36.203  14.435  11.376  0.00  0.00     0.020 C 
HETATM   20  N   UNK N   1      35.764  12.539  12.645  0.00  0.00     0.085 N 
HETATM   21  C   UNK N   1      34.881  12.299  13.773  0.00  0.00     0.309 C 
HETATM   22  C   UNK N   1      36.297  13.904  12.771  0.00  0.00     0.277 C 
HETATM   23  C   UNK N   1      36.143  15.884  11.016  0.00  0.00     0.013 C 
ENDBRANCH  14  15
ENDBRANCH  13  14
ENDBRANCH   1  13
BRANCH   6  24
HETATM   24  O   UNK N   1      33.001  16.946   5.326  0.00  0.00    -0.353 OA
HETATM   25  C   UNK N   1      32.632  17.499   4.122  0.00  0.00     0.210 C 
ENDBRANCH   6  24
BRANCH   7  26
HETATM   26  N   UNK N   1      28.122  17.425   5.765  0.00  0.00    -0.339 N 
HETATM   27  H   UNK N   1      28.593  16.773   5.199  0.00  0.00     0.167 HD
BRANCH  26  28
HETATM   28  C   UNK N   1      27.125  18.146   5.047  0.00  0.00     0.074 A 
HETATM   29  C   UNK N   1      27.573  19.279   4.362  0.00  0.00     0.034 A 
HETATM   30  C   UNK N   1      26.704  20.064   3.614  0.00  0.00     0.028 A 
HETATM   31  C   UNK N   1      25.358  19.730   3.533  0.00  0.00     0.059 A 
HETATM   32  C   UNK N   1      24.876  18.596   4.210  0.00  0.00     0.096 A 
HETATM   33 Cl   UNK N   1      24.299  20.750   2.573  0.00  0.00    -0.082 Cl
HETATM   34  C   UNK N   1      25.754  17.798   4.967  0.00  0.00     0.166 A 
HETATM   35 Cl   UNK N   1      23.173  18.160   4.112  0.00  0.00    -0.079 Cl
HETATM   36  F   UNK N   1      25.249  16.714   5.596  0.00  0.00    -0.202 F 
ENDBRANCH  26  28
ENDBRANCH   7  26
TORSDOF 6
ENDMDL
MODEL 3
REMARK VINA RESULT:      -8.0      2.585      3.170
REMARK  6 active torsions:
REMARK  status: ('A' for Active; 'I' for Inactive)
REMARK    1  A    between atoms: C_6  and  C_10 
REMARK    2  A    between atoms: C_10  and  O_11 
REMARK    3  A    between atoms: O_11  and  C_12 
REMARK    4  A    between atoms: C_17  and  O_18 
REMARK    5  A    between atoms: C_20  and  N_26 
REMARK    6  A    between atoms: N_26  and  C_27 
ROOT
HETATM    1  C   UNK N   1      34.913  14.778   7.483  0.00  0.00     0.104 A 
HETATM    2  C   UNK N   1      36.169  14.150   7.438  0.00  0.00     0.070 A 
HETATM    3  C   UNK N   1      36.903  13.924   8.605  0.00  0.00     0.050 A 
HETATM    4  C   UNK N   1      36.384  14.324   9.840  0.00  0.00     0.038 A 
HETATM    5  C   UNK N   1      35.144  14.963   9.902  0.00  0.00     0.057 A 
HETATM    6  C   UNK N   1      34.401  15.211   8.747  0.00  0.00     0.102 A 
HETATM    7  C   UNK N   1      37.118  14.074  11.002  0.00  0.00     0.119 A 
HETATM    8  N   UNK N   1      38.322  13.449  10.902  0.00  0.00    -0.338 N 
ATOM      9  HN  UNK N   1      38.864  13.266  11.746  1.00  0.00     0.168 HD
HETATM   10  C   UNK N   1      38.818  13.067   9.691  0.00  0.00     0.182 A 
HETATM   11  N   UNK N   1      38.110  13.303   8.552  0.00  0.00    -0.351 N 
ATOM     12  HN  UNK N   1      38.490  13.010   7.652  1.00  0.00     0.166 HD
ENDROOT
BRANCH   1  13
HETATM   13  O   UNK N   1      34.247  14.894   6.304  0.00  0.00    -0.348 OA
BRANCH  13  14
HETATM   14  C   UNK N   1      34.201  16.008   5.499  0.00  0.00     0.180 C 
BRANCH  14  15
HETATM   15  C   UNK N   1      32.929  15.976   4.674  0.00  0.00     0.011 C 
HETATM   16  C   UNK N   1      32.254  17.359   4.604  0.00  0.00     0.013 C 
HETATM   17  C   UNK N   1      30.957  17.106   5.324  0.00  0.00     0.020 C 
HETATM   18  C   UNK N   1      29.669  17.796   4.966  0.00  0.00     0.277 C 
HETATM   19  C   UNK N   1      30.641  15.739   4.924  0.00  0.00     0.020 C 
HETATM   20  N   UNK N   1      28.619  16.817   5.308  0.00  0.00     0.085 N 
HETATM   21  C   UNK N   1      27.963  17.262   6.525  0.00  0.00     0.309 C 
HETATM   22  C   UNK N   1      29.323  15.560   5.607  0.00  0.00     0.277 C 
HETATM   23  C   UNK N   1      31.897  15.017   5.290  0.00  0.00     0.013 C 
ENDBRANCH  14  15
ENDBRANCH  13  14
ENDBRANCH   1  13
BRANCH   6  24
HETATM   24  O   UNK N   1      33.220  15.850   8.904  0.00  0.00    -0.353 OA
HETATM   25  C   UNK N   1      33.079  17.199   8.679  0.00  0.00     0.210 C 
ENDBRANCH   6  24
BRANCH   7  26
HETATM   26  N   UNK N   1      36.566  14.488  12.248  0.00  0.00    -0.339 N 
HETATM   27  H   UNK N   1      36.461  15.465  12.303  0.00  0.00     0.167 HD
BRANCH  26  28
HETATM   28  C   UNK N   1      36.131  13.829  13.433  0.00  0.00     0.074 A 
HETATM   29  C   UNK N   1      36.711  14.278  14.622  0.00  0.00     0.034 A 
HETATM   30  C   UNK N   1      36.366  13.725  15.851  0.00  0.00     0.028 A 
HETATM   31  C   UNK N   1      35.425  12.704  15.916  0.00  0.00     0.059 A 
HETATM   32  C   UNK N   1      34.823  12.231  14.737  0.00  0.00     0.096 A 
HETATM   33 Cl   UNK N   1      35.018  12.040  17.489  0.00  0.00    -0.082 Cl
HETATM   34  C   UNK N   1      35.170  12.789  13.492  0.00  0.00     0.166 A 
HETATM   35 Cl   UNK N   1      33.628  10.941  14.806  0.00  0.00    -0.079 Cl
HETATM   36  F   UNK N   1      34.562  12.308  12.385  0.00  0.00    -0.202 F 
ENDBRANCH  26  28
ENDBRANCH   7  26
TORSDOF 6
ENDMDL
MODEL 4
REMARK VINA RESULT:      -8.0      5.121      8.210
REMARK  6 active torsions:
REMARK  status: ('A' for Active; 'I' for Inactive)
REMARK    1  A    between atoms: C_6  and  C_10 
REMARK    2  A    between atoms: C_10  and  O_11 
REMARK    3  A    between atoms: O_11  and  C_12 
REMARK    4  A    between atoms: C_17  and  O_18 
REMARK    5  A    between atoms: C_20  and  N_26 
REMARK    6  A    between atoms: N_26  and  C_27 
ROOT
HETATM    1  C   UNK N   1      27.652  17.991   5.156  0.00  0.00     0.104 A 
HETATM    2  C   UNK N   1      27.405  18.371   6.486  0.00  0.00     0.070 A 
HETATM    3  C   UNK N   1      28.376  18.203   7.476  0.00  0.00     0.050 A 
HETATM    4  C   UNK N   1      29.617  17.650   7.143  0.00  0.00     0.038 A 
HETATM    5  C   UNK N   1      29.874  17.253   5.829  0.00  0.00     0.057 A 
HETATM    6  C   UNK N   1      28.913  17.399   4.829  0.00  0.00     0.102 A 
HETATM    7  C   UNK N   1      30.587  17.505   8.137  0.00  0.00     0.119 A 
HETATM    8  N   UNK N   1      30.300  17.903   9.405  0.00  0.00    -0.338 N 
ATOM      9  HN  UNK N   1      31.003  17.798  10.136  1.00  0.00     0.168 HD
HETATM   10  C   UNK N   1      29.086  18.438   9.717  0.00  0.00     0.182 A 
HETATM   11  N   UNK N   1      28.132  18.587   8.756  0.00  0.00    -0.351 N 
ATOM     12  HN  UNK N   1      27.228  18.990   8.999  1.00  0.00     0.166 HD
ENDROOT
BRANCH   1  13
HETATM   13  O   UNK N   1      26.670  18.256   4.254  0.00  0.00    -0.348 OA
BRANCH  13  14
HETATM   14  C   UNK N   1      26.524  19.410   3.522  0.00  0.00     0.180 C 
BRANCH  14  15
HETATM   15  C   UNK N   1      25.222  20.085   3.909  0.00  0.00     0.011 C 
HETATM   16  C   UNK N   1      24.258  19.114   4.617  0.00  0.00     0.013 C 
HETATM   17  C   UNK N   1      23.116  19.047   3.639  0.00  0.00     0.020 C 
HETATM   18  C   UNK N   1      21.682  18.873   4.060  0.00  0.00     0.277 C 
HETATM   19  C   UNK N   1      23.072  20.408   3.118  0.00  0.00     0.020 C 
HETATM   20  N   UNK N   1      20.905  19.576   3.022  0.00  0.00     0.085 N 
HETATM   21  C   UNK N   1      20.276  18.579   2.172  0.00  0.00     0.309 C 
HETATM   22  C   UNK N   1      21.889  20.307   2.208  0.00  0.00     0.277 C 
HETATM   23  C   UNK N   1      24.482  20.607   2.666  0.00  0.00     0.013 C 
ENDBRANCH  14  15
ENDBRANCH  13  14
ENDBRANCH   1  13
BRANCH   6  24
HETATM   24  O   UNK N   1      29.246  16.971   3.591  0.00  0.00    -0.353 OA
HETATM   25  C   UNK N   1      29.299  15.636   3.264  0.00  0.00     0.210 C 
ENDBRANCH   6  24
BRANCH   7  26
HETATM   26  N   UNK N   1      31.844  16.942   7.772  0.00  0.00    -0.339 N 
HETATM   27  H   UNK N   1      31.992  16.957   6.799  0.00  0.00     0.167 HD
BRANCH  26  28
HETATM   28  C   UNK N   1      32.937  16.362   8.477  0.00  0.00     0.074 A 
HETATM   29  C   UNK N   1      33.898  17.261   8.949  0.00  0.00     0.034 A 
HETATM   30  C   UNK N   1      35.009  16.825   9.661  0.00  0.00     0.028 A 
HETATM   31  C   UNK N   1      35.184  15.471   9.920  0.00  0.00     0.059 A 
HETATM   32  C   UNK N   1      34.235  14.542   9.459  0.00  0.00     0.096 A 
HETATM   33 Cl   UNK N   1      36.601  14.969  10.827  0.00  0.00    -0.082 Cl
HETATM   34  C   UNK N   1      33.108  14.980   8.738  0.00  0.00     0.166 A 
HETATM   35 Cl   UNK N   1      34.444  12.824   9.784  0.00  0.00    -0.079 Cl
HETATM   36  F   UNK N   1      32.218  14.053   8.321  0.00  0.00    -0.202 F 
ENDBRANCH  26  28
ENDBRANCH   7  26
TORSDOF 6
ENDMDL
MODEL 5
REMARK VINA RESULT:      -7.9      7.350     10.553
REMARK  6 active torsions:
REMARK  status: ('A' for Active; 'I' for Inactive)
REMARK    1  A    between atoms: C_6  and  C_10 
REMARK    2  A    between atoms: C_10  and  O_11 
REMARK    3  A    between atoms: O_11  and  C_12 
REMARK    4  A    between atoms: C_17  and  O_18 
REMARK    5  A    between atoms: C_20  and  N_26 
REMARK    6  A    between atoms: N_26  and  C_27 
ROOT
HETATM    1  C   UNK N   1      24.814  18.469   4.355  0.00  0.00     0.104 A 
HETATM    2  C   UNK N   1      24.918  17.227   3.706  0.00  0.00     0.070 A 
HETATM    3  C   UNK N   1      26.164  16.690   3.374  0.00  0.00     0.050 A 
HETATM    4  C   UNK N   1      27.330  17.394   3.692  0.00  0.00     0.038 A 
HETATM    5  C   UNK N   1      27.244  18.636   4.324  0.00  0.00     0.057 A 
HETATM    6  C   UNK N   1      26.010  19.197   4.651  0.00  0.00     0.102 A 
HETATM    7  C   UNK N   1      28.571  16.837   3.373  0.00  0.00     0.119 A 
HETATM    8  N   UNK N   1      28.613  15.625   2.758  0.00  0.00    -0.338 N 
ATOM      9  HN  UNK N   1      29.516  15.214   2.521  1.00  0.00     0.168 HD
HETATM   10  C   UNK N   1      27.469  14.951   2.452  0.00  0.00     0.182 A 
HETATM   11  N   UNK N   1      26.253  15.482   2.760  0.00  0.00    -0.351 N 
ATOM     12  HN  UNK N   1      25.404  14.968   2.528  1.00  0.00     0.166 HD
ENDROOT
BRANCH   1  13
HETATM   13  O   UNK N   1      23.562  18.876   4.696  0.00  0.00    -0.348 OA
BRANCH  13  14
HETATM   14  C   UNK N   1      22.461  18.901   3.874  0.00  0.00     0.180 C 
BRANCH  14  15
HETATM   15  C   UNK N   1      21.294  18.241   4.583  0.00  0.00     0.011 C 
HETATM   16  C   UNK N   1      21.484  18.223   6.112  0.00  0.00     0.013 C 
HETATM   17  C   UNK N   1      21.579  16.749   6.393  0.00  0.00     0.020 C 
HETATM   18  C   UNK N   1      21.066  16.119   7.659  0.00  0.00     0.277 C 
HETATM   19  C   UNK N   1      20.644  16.187   5.425  0.00  0.00     0.020 C 
HETATM   20  N   UNK N   1      20.661  14.758   7.256  0.00  0.00     0.085 N 
HETATM   21  C   UNK N   1      21.652  13.822   7.758  0.00  0.00     0.309 C 
HETATM   22  C   UNK N   1      20.725  14.738   5.787  0.00  0.00     0.277 C 
HETATM   23  C   UNK N   1      21.141  16.775   4.144  0.00  0.00     0.013 C 
ENDBRANCH  14  15
ENDBRANCH  13  14
ENDBRANCH   1  13
BRANCH   6  24
HETATM   24  O   UNK N   1      26.027  20.411   5.245  0.00  0.00    -0.353 OA
HETATM   25  C   UNK N   1      27.141  20.901   5.885  0.00  0.00     0.210 C 
ENDBRANCH   6  24
BRANCH   7  26
HETATM   26  N   UNK N   1      29.743  17.572   3.710  0.00  0.00    -0.339 N 
HETATM   27  H   UNK N   1      29.869  18.360   3.134  0.00  0.00     0.167 HD
BRANCH  26  28
HETATM   28  C   UNK N   1      30.778  17.440   4.680  0.00  0.00     0.074 A 
HETATM   29  C   UNK N   1      32.081  17.601   4.201  0.00  0.00     0.034 A 
HETATM   30  C   UNK N   1      33.180  17.508   5.046  0.00  0.00     0.028 A 
HETATM   31  C   UNK N   1      32.999  17.250   6.399  0.00  0.00     0.059 A 
HETATM   32  C   UNK N   1      31.701  17.084   6.913  0.00  0.00     0.096 A 
HETATM   33 Cl   UNK N   1      34.418  17.144   7.428  0.00  0.00    -0.082 Cl
HETATM   34  C   UNK N   1      30.586  17.179   6.060  0.00  0.00     0.166 A 
HETATM   35 Cl   UNK N   1      31.458  16.760   8.626  0.00  0.00    -0.079 Cl
HETATM   36  F   UNK N   1      29.356  17.019   6.597  0.00  0.00    -0.202 F 
ENDBRANCH  26  28
ENDBRANCH   7  26
TORSDOF 6
ENDMDL
MODEL 6
REMARK VINA RESULT:      -7.9      7.269     10.901
REMARK  6 active torsions:
REMARK  status: ('A' for Active; 'I' for Inactive)
REMARK    1  A    between atoms: C_6  and  C_10 
REMARK    2  A    between atoms: C_10  and  O_11 
REMARK    3  A    between atoms: O_11  and  C_12 
REMARK    4  A    between atoms: C_17  and  O_18 
REMARK    5  A    between atoms: C_20  and  N_26 
REMARK    6  A    between atoms: N_26  and  C_27 
ROOT
HETATM    1  C   UNK N   1      25.066  18.567   4.068  0.00  0.00     0.104 A 
HETATM    2  C   UNK N   1      25.168  17.290   3.492  0.00  0.00     0.070 A 
HETATM    3  C   UNK N   1      26.414  16.708   3.247  0.00  0.00     0.050 A 
HETATM    4  C   UNK N   1      27.582  17.402   3.582  0.00  0.00     0.038 A 
HETATM    5  C   UNK N   1      27.499  18.678   4.142  0.00  0.00     0.057 A 
HETATM    6  C   UNK N   1      26.265  19.283   4.381  0.00  0.00     0.102 A 
HETATM    7  C   UNK N   1      28.821  16.801   3.352  0.00  0.00     0.119 A 
HETATM    8  N   UNK N   1      28.862  15.556   2.804  0.00  0.00    -0.338 N 
ATOM      9  HN  UNK N   1      29.764  15.113   2.632  1.00  0.00     0.168 HD
HETATM   10  C   UNK N   1      27.717  14.892   2.481  0.00  0.00     0.182 A 
HETATM   11  N   UNK N   1      26.502  15.467   2.703  0.00  0.00    -0.351 N 
ATOM     12  HN  UNK N   1      25.651  14.960   2.459  1.00  0.00     0.166 HD
ENDROOT
BRANCH   1  13
HETATM   13  O   UNK N   1      23.810  19.020   4.327  0.00  0.00    -0.348 OA
BRANCH  13  14
HETATM   14  C   UNK N   1      23.003  19.723   3.466  0.00  0.00     0.180 C 
BRANCH  14  15
HETATM   15  C   UNK N   1      21.622  19.096   3.451  0.00  0.00     0.011 C 
HETATM   16  C   UNK N   1      21.622  17.691   4.084  0.00  0.00     0.013 C 
HETATM   17  C   UNK N   1      21.259  16.824   2.910  0.00  0.00     0.020 C 
HETATM   18  C   UNK N   1      20.445  15.566   3.037  0.00  0.00     0.277 C 
HETATM   19  C   UNK N   1      20.321  17.668   2.178  0.00  0.00     0.020 C 
HETATM   20  N   UNK N   1      19.718  15.464   1.757  0.00  0.00     0.085 N 
HETATM   21  C   UNK N   1      20.337  14.414   0.966  0.00  0.00     0.309 C 
HETATM   22  C   UNK N   1      19.943  16.743   1.065  0.00  0.00     0.277 C 
HETATM   23  C   UNK N   1      21.111  18.926   2.011  0.00  0.00     0.013 C 
ENDBRANCH  14  15
ENDBRANCH  13  14
ENDBRANCH   1  13
BRANCH   6  24
HETATM   24  O   UNK N   1      26.284  20.527   4.910  0.00  0.00    -0.353 OA
HETATM   25  C   UNK N   1      27.302  20.962   5.727  0.00  0.00     0.210 C 
ENDBRANCH   6  24
BRANCH   7  26
HETATM   26  N   UNK N   1      29.995  17.526   3.704  0.00  0.00    -0.339 N 
HETATM   27  H   UNK N   1      30.159  18.288   3.102  0.00  0.00     0.167 HD
BRANCH  26  28
HETATM   28  C   UNK N   1      30.990  17.414   4.717  0.00  0.00     0.074 A 
HETATM   29  C   UNK N   1      32.311  17.574   4.288  0.00  0.00     0.034 A 
HETATM   30  C   UNK N   1      33.376  17.498   5.179  0.00  0.00     0.028 A 
HETATM   31  C   UNK N   1      33.141  17.260   6.527  0.00  0.00     0.059 A 
HETATM   32  C   UNK N   1      31.824  17.095   6.990  0.00  0.00     0.096 A 
HETATM   33 Cl   UNK N   1      34.517  17.176   7.614  0.00  0.00    -0.082 Cl
HETATM   34  C   UNK N   1      30.743  17.172   6.091  0.00  0.00     0.166 A 
HETATM   35 Cl   UNK N   1      31.513  16.796   8.697  0.00  0.00    -0.079 Cl
HETATM   36  F   UNK N   1      29.494  17.014   6.580  0.00  0.00    -0.202 F 
ENDBRANCH  26  28
ENDBRANCH   7  26
TORSDOF 6
ENDMDL
MODEL 7
REMARK VINA RESULT:      -7.7     16.778     19.367
REMARK  6 active torsions:
REMARK  status: ('A' for Active; 'I' for Inactive)
REMARK    1  A    between atoms: C_6  and  C_10 
REMARK    2  A    between atoms: C_10  and  O_11 
REMARK    3  A    between atoms: O_11  and  C_12 
REMARK    4  A    between atoms: C_17  and  O_18 
REMARK    5  A    between atoms: C_20  and  N_26 
REMARK    6  A    between atoms: N_26  and  C_27 
ROOT
HETATM    1  C   UNK N   1      27.323  23.466  -6.520  0.00  0.00     0.104 A 
HETATM    2  C   UNK N   1      27.476  22.449  -7.477  0.00  0.00     0.070 A 
HETATM    3  C   UNK N   1      28.491  21.496  -7.359  0.00  0.00     0.050 A 
HETATM    4  C   UNK N   1      29.370  21.549  -6.272  0.00  0.00     0.038 A 
HETATM    5  C   UNK N   1      29.240  22.562  -5.319  0.00  0.00     0.057 A 
HETATM    6  C   UNK N   1      28.243  23.531  -5.426  0.00  0.00     0.102 A 
HETATM    7  C   UNK N   1      30.367  20.579  -6.155  0.00  0.00     0.119 A 
HETATM    8  N   UNK N   1      30.462  19.608  -7.103  0.00  0.00    -0.338 N 
ATOM      9  HN  UNK N   1      31.189  18.898  -7.024  1.00  0.00     0.168 HD
HETATM   10  C   UNK N   1      29.601  19.570  -8.158  0.00  0.00     0.182 A 
HETATM   11  N   UNK N   1      28.622  20.509  -8.283  0.00  0.00    -0.351 N 
ATOM     12  HN  UNK N   1      27.981  20.469  -9.076  1.00  0.00     0.166 HD
ENDROOT
BRANCH   1  13
HETATM   13  O   UNK N   1      26.266  24.305  -6.686  0.00  0.00    -0.348 OA
BRANCH  13  14
HETATM   14  C   UNK N   1      26.084  25.192  -7.719  0.00  0.00     0.180 C 
BRANCH  14  15
HETATM   15  C   UNK N   1      25.634  26.528  -7.157  0.00  0.00     0.011 C 
HETATM   16  C   UNK N   1      26.798  27.532  -7.058  0.00  0.00     0.013 C 
HETATM   17  C   UNK N   1      26.901  27.738  -5.571  0.00  0.00     0.020 C 
HETATM   18  C   UNK N   1      27.307  29.045  -4.947  0.00  0.00     0.277 C 
HETATM   19  C   UNK N   1      25.505  27.671  -5.150  0.00  0.00     0.020 C 
HETATM   20  N   UNK N   1      26.597  29.074  -3.654  0.00  0.00     0.085 N 
HETATM   21  C   UNK N   1      27.562  28.818  -2.599  0.00  0.00     0.309 C 
HETATM   22  C   UNK N   1      25.655  27.945  -3.687  0.00  0.00     0.277 C 
HETATM   23  C   UNK N   1      25.073  26.366  -5.735  0.00  0.00     0.013 C 
ENDBRANCH  14  15
ENDBRANCH  13  14
ENDBRANCH   1  13
BRANCH   6  24
HETATM   24  O   UNK N   1      28.207  24.481  -4.465  0.00  0.00    -0.353 OA
HETATM   25  C   UNK N   1      27.345  24.413  -3.396  0.00  0.00     0.210 C 
ENDBRANCH   6  24
BRANCH   7  26
HETATM   26  N   UNK N   1      31.248  20.653  -5.037  0.00  0.00    -0.339 N 
HETATM   27  H   UNK N   1      30.791  20.457  -4.188  0.00  0.00     0.167 HD
BRANCH  26  28
HETATM   28  C   UNK N   1      32.630  20.944  -4.853  0.00  0.00     0.074 A 
HETATM   29  C   UNK N   1      33.402  19.905  -4.326  0.00  0.00     0.034 A 
HETATM   30  C   UNK N   1      34.767  20.055  -4.108  0.00  0.00     0.028 A 
HETATM   31  C   UNK N   1      35.393  21.257  -4.416  0.00  0.00     0.059 A 
HETATM   32  C   UNK N   1      34.644  22.321  -4.949  0.00  0.00     0.096 A 
HETATM   33 Cl   UNK N   1      37.119  21.398  -4.127  0.00  0.00    -0.082 Cl
HETATM   34  C   UNK N   1      33.263  22.171  -5.172  0.00  0.00     0.166 A 
HETATM   35 Cl   UNK N   1      35.427  23.846  -5.346  0.00  0.00    -0.079 Cl
HETATM   36  F   UNK N   1      32.583  23.217  -5.691  0.00  0.00    -0.202 F 
ENDBRANCH  26  28
ENDBRANCH   7  26
TORSDOF 6
ENDMDL
MODEL 8
REMARK VINA RESULT:      -7.7      5.024      7.747
REMARK  6 active torsions:
REMARK  status: ('A' for Active; 'I' for Inactive)
REMARK    1  A    between atoms: C_6  and  C_10 
REMARK    2  A    between atoms: C_10  and  O_11 
REMARK    3  A    between atoms: O_11  and  C_12 
REMARK    4  A    between atoms: C_17  and  O_18 
REMARK    5  A    between atoms: C_20  and  N_26 
REMARK    6  A    between atoms: N_26  and  C_27 
ROOT
HETATM    1  C   UNK N   1      28.077  17.370   5.618  0.00  0.00     0.104 A 
HETATM    2  C   UNK N   1      29.008  17.453   4.570  0.00  0.00     0.070 A 
HETATM    3  C   UNK N   1      30.382  17.441   4.824  0.00  0.00     0.050 A 
HETATM    4  C   UNK N   1      30.843  17.342   6.141  0.00  0.00     0.038 A 
HETATM    5  C   UNK N   1      29.931  17.274   7.196  0.00  0.00     0.057 A 
HETATM    6  C   UNK N   1      28.556  17.299   6.965  0.00  0.00     0.102 A 
HETATM    7  C   UNK N   1      32.218  17.311   6.381  0.00  0.00     0.119 A 
HETATM    8  N   UNK N   1      33.075  17.380   5.327  0.00  0.00    -0.338 N 
ATOM      9  HN  UNK N   1      34.081  17.359   5.495  1.00  0.00     0.168 HD
HETATM   10  C   UNK N   1      32.613  17.478   4.049  0.00  0.00     0.182 A 
HETATM   11  N   UNK N   1      31.274  17.507   3.802  0.00  0.00    -0.351 N 
ATOM     12  HN  UNK N   1      30.939  17.579   2.841  1.00  0.00     0.166 HD
ENDROOT
BRANCH   1  13
HETATM   13  O   UNK N   1      26.764  17.323   5.266  0.00  0.00    -0.348 OA
BRANCH  13  14
HETATM   14  C   UNK N   1      26.216  17.800   4.099  0.00  0.00     0.180 C 
BRANCH  14  15
HETATM   15  C   UNK N   1      25.203  18.880   4.428  0.00  0.00     0.011 C 
HETATM   16  C   UNK N   1      23.861  18.286   4.900  0.00  0.00     0.013 C 
HETATM   17  C   UNK N   1      22.928  18.728   3.806  0.00  0.00     0.020 C 
HETATM   18  C   UNK N   1      21.483  19.070   4.047  0.00  0.00     0.277 C 
HETATM   19  C   UNK N   1      23.453  20.044   3.461  0.00  0.00     0.020 C 
HETATM   20  N   UNK N   1      21.171  20.092   3.030  0.00  0.00     0.085 N 
HETATM   21  C   UNK N   1      20.357  19.473   1.998  0.00  0.00     0.309 C 
HETATM   22  C   UNK N   1      22.460  20.464   2.425  0.00  0.00     0.277 C 
HETATM   23  C   UNK N   1      24.890  19.737   3.191  0.00  0.00     0.013 C 
ENDBRANCH  14  15
ENDBRANCH  13  14
ENDBRANCH   1  13
BRANCH   6  24
HETATM   24  O   UNK N   1      27.751  17.245   8.050  0.00  0.00    -0.353 OA
HETATM   25  C   UNK N   1      28.197  17.562   9.312  0.00  0.00     0.210 C 
ENDBRANCH   6  24
BRANCH   7  26
HETATM   26  N   UNK N   1      32.663  17.207   7.730  0.00  0.00    -0.339 N 
HETATM   27  H   UNK N   1      32.475  18.021   8.249  0.00  0.00     0.167 HD
BRANCH  26  28
HETATM   28  C   UNK N   1      33.315  16.208   8.508  0.00  0.00     0.074 A 
HETATM   29  C   UNK N   1      32.764  14.926   8.431  0.00  0.00     0.034 A 
HETATM   30  C   UNK N   1      33.313  13.859   9.133  0.00  0.00     0.028 A 
HETATM   31  C   UNK N   1      34.433  14.052   9.932  0.00  0.00     0.059 A 
HETATM   32  C   UNK N   1      35.011  15.330  10.030  0.00  0.00     0.096 A 
HETATM   33 Cl   UNK N   1      35.092  12.674  10.797  0.00  0.00    -0.082 Cl
HETATM   34  C   UNK N   1      34.459  16.412   9.319  0.00  0.00     0.166 A 
HETATM   35 Cl   UNK N   1      36.432  15.587  11.036  0.00  0.00    -0.079 Cl
HETATM   36  F   UNK N   1      35.050  17.621   9.437  0.00  0.00    -0.202 F 
ENDBRANCH  26  28
ENDBRANCH   7  26
TORSDOF 6
ENDMDL
MODEL 9
REMARK VINA RESULT:      -7.7      7.237     11.108
REMARK  6 active torsions:
REMARK  status: ('A' for Active; 'I' for Inactive)
REMARK    1  A    between atoms: C_6  and  C_10 
REMARK    2  A    between atoms: C_10  and  O_11 
REMARK    3  A    between atoms: O_11  and  C_12 
REMARK    4  A    between atoms: C_17  and  O_18 
REMARK    5  A    between atoms: C_20  and  N_26 
REMARK    6  A    between atoms: N_26  and  C_27 
ROOT
HETATM    1  C   UNK N   1      24.692  16.293   4.124  0.00  0.00     0.104 A 
HETATM    2  C   UNK N   1      24.683  17.684   4.319  0.00  0.00     0.070 A 
HETATM    3  C   UNK N   1      25.874  18.414   4.352  0.00  0.00     0.050 A 
HETATM    4  C   UNK N   1      27.096  17.756   4.185  0.00  0.00     0.038 A 
HETATM    5  C   UNK N   1      27.124  16.372   4.005  0.00  0.00     0.057 A 
HETATM    6  C   UNK N   1      25.948  15.622   3.984  0.00  0.00     0.102 A 
HETATM    7  C   UNK N   1      28.278  18.500   4.199  0.00  0.00     0.119 A 
HETATM    8  N   UNK N   1      28.211  19.846   4.378  0.00  0.00    -0.338 N 
ATOM      9  HN  UNK N   1      29.070  20.395   4.392  1.00  0.00     0.168 HD
HETATM   10  C   UNK N   1      27.013  20.475   4.542  0.00  0.00     0.182 A 
HETATM   11  N   UNK N   1      25.853  19.761   4.528  0.00  0.00    -0.351 N 
ATOM     12  HN  UNK N   1      24.962  20.242   4.649  1.00  0.00     0.166 HD
ENDROOT
BRANCH   1  13
HETATM   13  O   UNK N   1      23.480  15.681   4.042  0.00  0.00    -0.348 OA
BRANCH  13  14
HETATM   14  C   UNK N   1      22.581  15.512   5.067  0.00  0.00     0.180 C 
BRANCH  14  15
HETATM   15  C   UNK N   1      21.289  16.228   4.722  0.00  0.00     0.011 C 
HETATM   16  C   UNK N   1      21.001  16.198   3.208  0.00  0.00     0.013 C 
HETATM   17  C   UNK N   1      21.083  17.657   2.850  0.00  0.00     0.020 C 
HETATM   18  C   UNK N   1      20.240  18.289   1.777  0.00  0.00     0.277 C 
HETATM   19  C   UNK N   1      20.523  18.300   4.034  0.00  0.00     0.020 C 
HETATM   20  N   UNK N   1      20.052  19.682   2.226  0.00  0.00     0.085 N 
HETATM   21  C   UNK N   1      20.890  20.540   1.407  0.00  0.00     0.309 C 
HETATM   22  C   UNK N   1      20.566  19.732   3.604  0.00  0.00     0.277 C 
HETATM   23  C   UNK N   1      21.358  17.711   5.124  0.00  0.00     0.013 C 
ENDBRANCH  14  15
ENDBRANCH  13  14
ENDBRANCH   1  13
BRANCH   6  24
HETATM   24  O   UNK N   1      26.076  14.286   3.820  0.00  0.00    -0.353 OA
HETATM   25  C   UNK N   1      26.103  13.697   2.577  0.00  0.00     0.210 C 
ENDBRANCH   6  24
BRANCH   7  26
HETATM   26  N   UNK N   1      29.510  17.806   4.025  0.00  0.00    -0.339 N 
HETATM   27  H   UNK N   1      29.614  17.453   3.112  0.00  0.00     0.167 HD
BRANCH  26  28
HETATM   28  C   UNK N   1      30.627  17.500   4.854  0.00  0.00     0.074 A 
HETATM   29  C   UNK N   1      31.882  17.641   4.255  0.00  0.00     0.034 A 
HETATM   30  C   UNK N   1      33.053  17.384   4.958  0.00  0.00     0.028 A 
HETATM   31  C   UNK N   1      32.994  16.978   6.285  0.00  0.00     0.059 A 
HETATM   32  C   UNK N   1      31.747  16.827   6.917  0.00  0.00     0.096 A 
HETATM   33 Cl   UNK N   1      34.500  16.669   7.134  0.00  0.00    -0.082 Cl
HETATM   34  C   UNK N   1      30.559  17.088   6.208  0.00  0.00     0.166 A 
HETATM   35 Cl   UNK N   1      31.659  16.317   8.599  0.00  0.00    -0.079 Cl
HETATM   36  F   UNK N   1      29.384  16.937   6.856  0.00  0.00    -0.202 F 
ENDBRANCH  26  28
ENDBRANCH   7  26
TORSDOF 6
ENDMDL
