MODEL 1
REMARK VINA RESULT:      -7.0      0.000      0.000
REMARK  7 active torsions:
REMARK  status: ('A' for Active; 'I' for Inactive)
REMARK    1  A    between atoms: C_9  and  C_22 
REMARK    2  A    between atoms: C_10  and  N_13 
REMARK    3  A    between atoms: N_13  and  C_14 
REMARK       I    between atoms: C_22  and  N_24 
REMARK    4  A    between atoms: N_24  and  O_25 
REMARK    5  A    between atoms: O_25  and  C_26 
REMARK    6  A    between atoms: C_26  and  C_27 
REMARK    7  A    between atoms: C_27  and  O_28 
ROOT
HETATM    1  C   UNK N   1      28.371  29.617  -1.684  0.00  0.00     0.157 C 
HETATM    2  N   UNK N   1      27.371  29.396  -2.712  0.00  0.00    -0.345 N 
HETATM    3  C   UNK N   1      26.635  30.350  -3.332  0.00  0.00     0.183 A 
HETATM    4  N   UNK N   1      25.793  29.800  -4.246  0.00  0.00    -0.348 N 
ATOM      5  HN  UNK N   1      25.130  30.282  -4.852  1.00  0.00     0.167 HD
HETATM    6  C   UNK N   1      26.033  28.475  -4.174  0.00  0.00     0.101 A 
HETATM    7  C   UNK N   1      26.984  28.233  -3.247  0.00  0.00     0.066 A 
HETATM    8  C   UNK N   1      27.430  26.949  -2.963  0.00  0.00     0.051 A 
HETATM    9  C   UNK N   1      26.867  25.863  -3.675  0.00  0.00     0.066 A 
HETATM   10  C   UNK N   1      25.844  26.115  -4.670  0.00  0.00     0.090 A 
HETATM   11  C   UNK N   1      25.430  27.466  -4.908  0.00  0.00     0.172 A 
HETATM   12  F   UNK N   1      24.491  27.822  -5.805  0.00  0.00    -0.201 F 
ENDROOT
BRANCH  10  13
HETATM   13  N   UNK N   1      25.297  24.981  -5.360  0.00  0.00    -0.350 N 
HETATM   14  H   UNK N   1      24.461  24.668  -4.946  0.00  0.00     0.166 HD
BRANCH  13  15
HETATM   15  C   UNK N   1      25.658  24.191  -6.491  0.00  0.00     0.071 A 
HETATM   16  C   UNK N   1      25.913  22.819  -6.419  0.00  0.00     0.034 A 
HETATM   17  C   UNK N   1      26.262  22.092  -7.560  0.00  0.00     0.021 A 
HETATM   18  C   UNK N   1      26.360  22.737  -8.793  0.00  0.00     0.014 A 
HETATM   19  C   UNK N   1      26.109  24.107  -8.883  0.00  0.00     0.063 A 
HETATM   20 Br   UNK N   1      26.834  21.748 -10.349  0.00  0.00    -0.051 Br
HETATM   21  C   UNK N   1      25.760  24.831  -7.739  0.00  0.00     0.144 A 
HETATM   22  F   UNK N   1      25.520  26.162  -7.844  0.00  0.00    -0.204 F 
ENDBRANCH  13  15
ENDBRANCH  10  13
BRANCH   9  23
HETATM   23  C   UNK N   1      27.354  24.459  -3.394  0.00  0.00     0.277 C 
HETATM   24  O   UNK N   1      26.599  23.658  -2.867  0.00  0.00    -0.265 OA
HETATM   25  N   UNK N   1      28.603  24.024  -3.699  0.00  0.00    -0.231 N 
HETATM   26  H   UNK N   1      28.820  23.083  -3.507  0.00  0.00     0.197 HD
BRANCH  25  27
HETATM   27  O   UNK N   1      29.561  24.786  -4.247  0.00  0.00    -0.275 OA
BRANCH  27  28
HETATM   28  C   UNK N   1      30.669  24.619  -3.404  0.00  0.00     0.227 C 
BRANCH  28  29
HETATM   29  C   UNK N   1      30.795  23.169  -2.943  0.00  0.00     0.192 C 
BRANCH  29  30
HETATM   30  O   UNK N   1      30.554  23.088  -1.572  0.00  0.00    -0.399 OA
HETATM   31  H   UNK N   1      30.571  22.283  -1.031  0.00  0.00     0.209 HD
ENDBRANCH  29  30
ENDBRANCH  28  29
ENDBRANCH  27  28
ENDBRANCH  25  27
ENDBRANCH   9  23
TORSDOF 7
ENDMDL
MODEL 2
REMARK VINA RESULT:      -6.8     18.520     22.173
REMARK  7 active torsions:
REMARK  status: ('A' for Active; 'I' for Inactive)
REMARK    1  A    between atoms: C_9  and  C_22 
REMARK    2  A    between atoms: C_10  and  N_13 
REMARK    3  A    between atoms: N_13  and  C_14 
REMARK       I    between atoms: C_22  and  N_24 
REMARK    4  A    between atoms: N_24  and  O_25 
REMARK    5  A    between atoms: O_25  and  C_26 
REMARK    6  A    between atoms: C_26  and  C_27 
REMARK    7  A    between atoms: C_27  and  O_28 
ROOT
HETATM    1  C   UNK N   1      36.564  13.658   5.476  0.00  0.00     0.157 C 
HETATM    2  N   UNK N   1      37.268  13.450   6.729  0.00  0.00    -0.345 N 
HETATM    3  C   UNK N   1      38.441  12.793   6.889  0.00  0.00     0.183 A 
HETATM    4  N   UNK N   1      38.823  12.785   8.193  0.00  0.00    -0.348 N 
ATOM      5  HN  UNK N   1      39.660  12.363   8.595  1.00  0.00     0.167 HD
HETATM    6  C   UNK N   1      37.847  13.460   8.836  0.00  0.00     0.101 A 
HETATM    7  C   UNK N   1      36.909  13.859   7.951  0.00  0.00     0.066 A 
HETATM    8  C   UNK N   1      35.787  14.579   8.338  0.00  0.00     0.051 A 
HETATM    9  C   UNK N   1      35.629  14.904   9.705  0.00  0.00     0.066 A 
HETATM   10  C   UNK N   1      36.630  14.477  10.662  0.00  0.00     0.090 A 
HETATM   11  C   UNK N   1      37.762  13.734  10.191  0.00  0.00     0.172 A 
HETATM   12  F   UNK N   1      38.754  13.285  10.983  0.00  0.00    -0.201 F 
ENDROOT
BRANCH  10  13
HETATM   13  N   UNK N   1      36.422  14.823  12.039  0.00  0.00    -0.350 N 
HETATM   14  H   UNK N   1      36.450  15.796  12.181  0.00  0.00     0.166 HD
BRANCH  13  15
HETATM   15  C   UNK N   1      36.185  14.116  13.255  0.00  0.00     0.071 A 
HETATM   16  C   UNK N   1      36.753  14.481  14.478  0.00  0.00     0.034 A 
HETATM   17  C   UNK N   1      36.487  13.753  15.640  0.00  0.00     0.021 A 
HETATM   18  C   UNK N   1      35.643  12.643  15.588  0.00  0.00     0.014 A 
HETATM   19  C   UNK N   1      35.067  12.264  14.374  0.00  0.00     0.063 A 
HETATM   20 Br   UNK N   1      35.277  11.650  17.171  0.00  0.00    -0.051 Br
HETATM   21  C   UNK N   1      35.336  12.995  13.214  0.00  0.00     0.144 A 
HETATM   22  F   UNK N   1      34.769  12.613  12.042  0.00  0.00    -0.204 F 
ENDBRANCH  13  15
ENDBRANCH  10  13
BRANCH   9  23
HETATM   23  C   UNK N   1      34.423  15.705  10.144  0.00  0.00     0.277 C 
HETATM   24  O   UNK N   1      33.533  15.152  10.770  0.00  0.00    -0.265 OA
HETATM   25  N   UNK N   1      34.266  17.027   9.881  0.00  0.00    -0.231 N 
HETATM   26  H   UNK N   1      33.461  17.472  10.234  0.00  0.00     0.197 HD
BRANCH  25  27
HETATM   27  O   UNK N   1      35.132  17.771   9.177  0.00  0.00    -0.275 OA
BRANCH  27  28
HETATM   28  C   UNK N   1      34.332  18.474   8.265  0.00  0.00     0.227 C 
BRANCH  28  29
HETATM   29  C   UNK N   1      33.711  17.532   7.237  0.00  0.00     0.192 C 
BRANCH  29  30
HETATM   30  O   UNK N   1      34.289  17.750   5.988  0.00  0.00    -0.399 OA
HETATM   31  H   UNK N   1      34.985  18.393   5.778  0.00  0.00     0.209 HD
ENDBRANCH  29  30
ENDBRANCH  28  29
ENDBRANCH  27  28
ENDBRANCH  25  27
ENDBRANCH   9  23
TORSDOF 7
ENDMDL
MODEL 3
REMARK VINA RESULT:      -6.8     12.543     14.068
REMARK  7 active torsions:
REMARK  status: ('A' for Active; 'I' for Inactive)
REMARK    1  A    between atoms: C_9  and  C_22 
REMARK    2  A    between atoms: C_10  and  N_13 
REMARK    3  A    between atoms: N_13  and  C_14 
REMARK       I    between atoms: C_22  and  N_24 
REMARK    4  A    between atoms: N_24  and  O_25 
REMARK    5  A    between atoms: O_25  and  C_26 
REMARK    6  A    between atoms: C_26  and  C_27 
REMARK    7  A    between atoms: C_27  and  O_28 
ROOT
HETATM    1  C   UNK N   1      33.298  16.899   8.849  0.00  0.00     0.157 C 
HETATM    2  N   UNK N   1      33.131  17.036   7.413  0.00  0.00    -0.345 N 
HETATM    3  C   UNK N   1      34.120  17.044   6.489  0.00  0.00     0.183 A 
HETATM    4  N   UNK N   1      33.617  17.186   5.235  0.00  0.00    -0.348 N 
ATOM      5  HN  UNK N   1      34.133  17.224   4.356  1.00  0.00     0.167 HD
HETATM    6  C   UNK N   1      32.282  17.266   5.413  0.00  0.00     0.101 A 
HETATM    7  C   UNK N   1      31.991  17.177   6.728  0.00  0.00     0.066 A 
HETATM    8  C   UNK N   1      30.687  17.227   7.201  0.00  0.00     0.051 A 
HETATM    9  C   UNK N   1      29.633  17.375   6.270  0.00  0.00     0.066 A 
HETATM   10  C   UNK N   1      29.938  17.474   4.856  0.00  0.00     0.090 A 
HETATM   11  C   UNK N   1      31.307  17.417   4.440  0.00  0.00     0.172 A 
HETATM   12  F   UNK N   1      31.712  17.498   3.158  0.00  0.00    -0.201 F 
ENDROOT
BRANCH  10  13
HETATM   13  N   UNK N   1      28.835  17.632   3.950  0.00  0.00    -0.350 N 
HETATM   14  H   UNK N   1      28.741  18.563   3.645  0.00  0.00     0.166 HD
BRANCH  13  15
HETATM   15  C   UNK N   1      27.841  16.783   3.380  0.00  0.00     0.071 A 
HETATM   16  C   UNK N   1      26.469  17.004   3.524  0.00  0.00     0.034 A 
HETATM   17  C   UNK N   1      25.537  16.142   2.943  0.00  0.00     0.021 A 
HETATM   18  C   UNK N   1      25.973  15.039   2.207  0.00  0.00     0.014 A 
HETATM   19  C   UNK N   1      27.339  14.803   2.053  0.00  0.00     0.063 A 
HETATM   20 Br   UNK N   1      24.704  13.862   1.413  0.00  0.00    -0.051 Br
HETATM   21  C   UNK N   1      28.269  15.669   2.636  0.00  0.00     0.144 A 
HETATM   22  F   UNK N   1      29.594  15.425   2.477  0.00  0.00    -0.204 F 
ENDBRANCH  13  15
ENDBRANCH  10  13
BRANCH   9  23
HETATM   23  C   UNK N   1      28.203  17.413   6.764  0.00  0.00     0.277 C 
HETATM   24  O   UNK N   1      27.551  16.383   6.789  0.00  0.00    -0.265 OA
HETATM   25  N   UNK N   1      27.589  18.545   7.191  0.00  0.00    -0.231 N 
HETATM   26  H   UNK N   1      26.666  18.468   7.524  0.00  0.00     0.197 HD
BRANCH  25  27
HETATM   27  O   UNK N   1      28.153  19.762   7.193  0.00  0.00    -0.275 OA
BRANCH  27  28
HETATM   28  C   UNK N   1      27.443  20.482   6.221  0.00  0.00     0.227 C 
BRANCH  28  29
HETATM   29  C   UNK N   1      26.436  21.431   6.865  0.00  0.00     0.192 C 
BRANCH  29  30
HETATM   30  O   UNK N   1      26.009  20.910   8.085  0.00  0.00    -0.399 OA
HETATM   31  H   UNK N   1      26.242  20.044   8.455  0.00  0.00     0.209 HD
ENDBRANCH  29  30
ENDBRANCH  28  29
ENDBRANCH  27  28
ENDBRANCH  25  27
ENDBRANCH   9  23
TORSDOF 7
ENDMDL
MODEL 4
REMARK VINA RESULT:      -6.7     15.168     16.981
REMARK  7 active torsions:
REMARK  status: ('A' for Active; 'I' for Inactive)
REMARK    1  A    between atoms: C_9  and  C_22 
REMARK    2  A    between atoms: C_10  and  N_13 
REMARK    3  A    between atoms: N_13  and  C_14 
REMARK       I    between atoms: C_22  and  N_24 
REMARK    4  A    between atoms: N_24  and  O_25 
REMARK    5  A    between atoms: O_25  and  C_26 
REMARK    6  A    between atoms: C_26  and  C_27 
REMARK    7  A    between atoms: C_27  and  O_28 
ROOT
HETATM    1  C   UNK N   1      28.289  18.274   9.101  0.00  0.00     0.157 C 
HETATM    2  N   UNK N   1      28.834  17.703   7.882  0.00  0.00    -0.345 N 
HETATM    3  C   UNK N   1      28.123  17.256   6.820  0.00  0.00     0.183 A 
HETATM    4  N   UNK N   1      28.945  16.785   5.845  0.00  0.00    -0.348 N 
ATOM      5  HN  UNK N   1      28.680  16.391   4.942  1.00  0.00     0.167 HD
HETATM    6  C   UNK N   1      30.189  16.956   6.339  0.00  0.00     0.101 A 
HETATM    7  C   UNK N   1      30.120  17.508   7.569  0.00  0.00     0.066 A 
HETATM    8  C   UNK N   1      31.255  17.798   8.313  0.00  0.00     0.051 A 
HETATM    9  C   UNK N   1      32.523  17.505   7.759  0.00  0.00     0.066 A 
HETATM   10  C   UNK N   1      32.605  16.910   6.440  0.00  0.00     0.090 A 
HETATM   11  C   UNK N   1      31.391  16.636   5.729  0.00  0.00     0.172 A 
HETATM   12  F   UNK N   1      31.341  16.086   4.501  0.00  0.00    -0.201 F 
ENDROOT
BRANCH  10  13
HETATM   13  N   UNK N   1      33.913  16.622   5.922  0.00  0.00    -0.350 N 
HETATM   14  H   UNK N   1      34.354  17.429   5.573  0.00  0.00     0.166 HD
BRANCH  13  15
HETATM   15  C   UNK N   1      34.735  15.465   5.785  0.00  0.00     0.071 A 
HETATM   16  C   UNK N   1      35.567  14.989   6.802  0.00  0.00     0.034 A 
HETATM   17  C   UNK N   1      36.352  13.850   6.614  0.00  0.00     0.021 A 
HETATM   18  C   UNK N   1      36.312  13.170   5.396  0.00  0.00     0.014 A 
HETATM   19  C   UNK N   1      35.487  13.632   4.370  0.00  0.00     0.063 A 
HETATM   20 Br   UNK N   1      37.380  11.615   5.139  0.00  0.00    -0.051 Br
HETATM   21  C   UNK N   1      34.703  14.773   4.561  0.00  0.00     0.144 A 
HETATM   22  F   UNK N   1      33.907  15.208   3.553  0.00  0.00    -0.204 F 
ENDBRANCH  13  15
ENDBRANCH  10  13
BRANCH   9  23
HETATM   23  C   UNK N   1      33.772  17.830   8.546  0.00  0.00     0.277 C 
HETATM   24  O   UNK N   1      34.396  18.846   8.286  0.00  0.00    -0.265 OA
HETATM   25  N   UNK N   1      34.252  17.048   9.546  0.00  0.00    -0.231 N 
HETATM   26  H   UNK N   1      35.056  17.357  10.023  0.00  0.00     0.197 HD
BRANCH  25  27
HETATM   27  O   UNK N   1      33.707  15.885   9.930  0.00  0.00    -0.275 OA
BRANCH  27  28
HETATM   28  C   UNK N   1      34.745  15.208  10.587  0.00  0.00     0.227 C 
BRANCH  28  29
HETATM   29  C   UNK N   1      35.648  16.183  11.337  0.00  0.00     0.192 C 
BRANCH  29  30
HETATM   30  O   UNK N   1      36.934  16.142  10.802  0.00  0.00    -0.399 OA
HETATM   31  H   UNK N   1      37.174  16.235   9.867  0.00  0.00     0.209 HD
ENDBRANCH  29  30
ENDBRANCH  28  29
ENDBRANCH  27  28
ENDBRANCH  25  27
ENDBRANCH   9  23
TORSDOF 7
ENDMDL
MODEL 5
REMARK VINA RESULT:      -6.5     14.546     16.286
REMARK  7 active torsions:
REMARK  status: ('A' for Active; 'I' for Inactive)
REMARK    1  A    between atoms: C_9  and  C_22 
REMARK    2  A    between atoms: C_10  and  N_13 
REMARK    3  A    between atoms: N_13  and  C_14 
REMARK       I    between atoms: C_22  and  N_24 
REMARK    4  A    between atoms: N_24  and  O_25 
REMARK    5  A    between atoms: O_25  and  C_26 
REMARK    6  A    between atoms: C_26  and  C_27 
REMARK    7  A    between atoms: C_27  and  O_28 
ROOT
HETATM    1  C   UNK N   1      23.099  20.266   2.807  0.00  0.00     0.157 C 
HETATM    2  N   UNK N   1      23.535  19.278   3.777  0.00  0.00    -0.345 N 
HETATM    3  C   UNK N   1      24.724  19.262   4.425  0.00  0.00     0.183 A 
HETATM    4  N   UNK N   1      24.807  18.198   5.267  0.00  0.00    -0.348 N 
ATOM      5  HN  UNK N   1      25.586  17.943   5.874  1.00  0.00     0.167 HD
HETATM    6  C   UNK N   1      23.630  17.556   5.120  0.00  0.00     0.101 A 
HETATM    7  C   UNK N   1      22.864  18.209   4.219  0.00  0.00     0.066 A 
HETATM    8  C   UNK N   1      21.594  17.769   3.873  0.00  0.00     0.051 A 
HETATM    9  C   UNK N   1      21.090  16.599   4.490  0.00  0.00     0.066 A 
HETATM   10  C   UNK N   1      21.908  15.893   5.455  0.00  0.00     0.090 A 
HETATM   11  C   UNK N   1      23.211  16.403   5.762  0.00  0.00     0.172 A 
HETATM   12  F   UNK N   1      24.058  15.834   6.640  0.00  0.00    -0.201 F 
ENDROOT
BRANCH  10  13
HETATM   13  N   UNK N   1      21.357  14.706   6.048  0.00  0.00    -0.350 N 
HETATM   14  H   UNK N   1      20.879  14.154   5.388  0.00  0.00     0.166 HD
BRANCH  13  15
HETATM   15  C   UNK N   1      21.324  14.125   7.350  0.00  0.00     0.071 A 
HETATM   16  C   UNK N   1      20.551  14.631   8.398  0.00  0.00     0.034 A 
HETATM   17  C   UNK N   1      20.555  14.021   9.654  0.00  0.00     0.021 A 
HETATM   18  C   UNK N   1      21.341  12.890   9.876  0.00  0.00     0.014 A 
HETATM   19  C   UNK N   1      22.120  12.371   8.841  0.00  0.00     0.063 A 
HETATM   20 Br   UNK N   1      21.347  12.056  11.588  0.00  0.00    -0.051 Br
HETATM   21  C   UNK N   1      22.113  12.984   7.585  0.00  0.00     0.144 A 
HETATM   22  F   UNK N   1      22.876  12.467   6.590  0.00  0.00    -0.204 F 
ENDBRANCH  13  15
ENDBRANCH  10  13
BRANCH   9  23
HETATM   23  C   UNK N   1      19.701  16.114   4.140  0.00  0.00     0.277 C 
HETATM   24  O   UNK N   1      18.768  16.388   4.877  0.00  0.00    -0.265 OA
HETATM   25  N   UNK N   1      19.420  15.379   3.035  0.00  0.00    -0.231 N 
HETATM   26  H   UNK N   1      18.481  15.134   2.873  0.00  0.00     0.197 HD
BRANCH  25  27
HETATM   27  O   UNK N   1      20.334  14.965   2.144  0.00  0.00    -0.275 OA
BRANCH  27  28
HETATM   28  C   UNK N   1      19.787  15.298   0.896  0.00  0.00     0.227 C 
BRANCH  28  29
HETATM   29  C   UNK N   1      20.062  16.758   0.547  0.00  0.00     0.192 C 
BRANCH  29  30
HETATM   30  O   UNK N   1      19.004  17.554   0.982  0.00  0.00    -0.399 OA
HETATM   31  H   UNK N   1      18.845  17.856   1.891  0.00  0.00     0.209 HD
ENDBRANCH  29  30
ENDBRANCH  28  29
ENDBRANCH  27  28
ENDBRANCH  25  27
ENDBRANCH   9  23
TORSDOF 7
ENDMDL
MODEL 6
REMARK VINA RESULT:      -6.5      3.408      5.430
REMARK  7 active torsions:
REMARK  status: ('A' for Active; 'I' for Inactive)
REMARK    1  A    between atoms: C_9  and  C_22 
REMARK    2  A    between atoms: C_10  and  N_13 
REMARK    3  A    between atoms: N_13  and  C_14 
REMARK       I    between atoms: C_22  and  N_24 
REMARK    4  A    between atoms: N_24  and  O_25 
REMARK    5  A    between atoms: O_25  and  C_26 
REMARK    6  A    between atoms: C_26  and  C_27 
REMARK    7  A    between atoms: C_27  and  O_28 
ROOT
HETATM    1  C   UNK N   1      26.418  30.043  -3.695  0.00  0.00     0.157 C 
HETATM    2  N   UNK N   1      27.647  29.273  -3.767  0.00  0.00    -0.345 N 
HETATM    3  C   UNK N   1      28.906  29.766  -3.702  0.00  0.00     0.183 A 
HETATM    4  N   UNK N   1      29.827  28.770  -3.798  0.00  0.00    -0.348 N 
ATOM      5  HN  UNK N   1      30.843  28.856  -3.779  1.00  0.00     0.167 HD
HETATM    6  C   UNK N   1      29.095  27.644  -3.924  0.00  0.00     0.101 A 
HETATM    7  C   UNK N   1      27.780  27.949  -3.907  0.00  0.00     0.066 A 
HETATM    8  C   UNK N   1      26.795  26.978  -4.017  0.00  0.00     0.051 A 
HETATM    9  C   UNK N   1      27.188  25.625  -4.150  0.00  0.00     0.066 A 
HETATM   10  C   UNK N   1      28.598  25.290  -4.172  0.00  0.00     0.090 A 
HETATM   11  C   UNK N   1      29.560  26.345  -4.055  0.00  0.00     0.172 A 
HETATM   12  F   UNK N   1      30.893  26.157  -4.063  0.00  0.00    -0.201 F 
ENDROOT
BRANCH  10  13
HETATM   13  N   UNK N   1      28.948  23.905  -4.316  0.00  0.00    -0.350 N 
HETATM   14  H   UNK N   1      28.169  23.353  -4.556  0.00  0.00     0.166 HD
BRANCH  13  15
HETATM   15  C   UNK N   1      30.136  23.125  -4.200  0.00  0.00     0.071 A 
HETATM   16  C   UNK N   1      30.950  22.801  -5.288  0.00  0.00     0.034 A 
HETATM   17  C   UNK N   1      32.105  22.034  -5.118  0.00  0.00     0.021 A 
HETATM   18  C   UNK N   1      32.458  21.580  -3.847  0.00  0.00     0.014 A 
HETATM   19  C   UNK N   1      31.656  21.894  -2.749  0.00  0.00     0.063 A 
HETATM   20 Br   UNK N   1      34.033  20.535  -3.612  0.00  0.00    -0.051 Br
HETATM   21  C   UNK N   1      30.501  22.662  -2.923  0.00  0.00     0.144 A 
HETATM   22  F   UNK N   1      29.732  22.958  -1.846  0.00  0.00    -0.204 F 
ENDBRANCH  13  15
ENDBRANCH  10  13
BRANCH   9  23
HETATM   23  C   UNK N   1      26.129  24.550  -4.252  0.00  0.00     0.277 C 
HETATM   24  O   UNK N   1      25.940  23.804  -3.306  0.00  0.00    -0.265 OA
HETATM   25  N   UNK N   1      25.360  24.360  -5.354  0.00  0.00    -0.231 N 
HETATM   26  H   UNK N   1      24.674  23.654  -5.318  0.00  0.00     0.197 HD
BRANCH  25  27
HETATM   27  O   UNK N   1      25.465  25.068  -6.487  0.00  0.00    -0.275 OA
BRANCH  27  28
HETATM   28  C   UNK N   1      26.182  24.235  -7.359  0.00  0.00     0.227 C 
BRANCH  28  29
HETATM   29  C   UNK N   1      25.337  23.849  -8.569  0.00  0.00     0.192 C 
BRANCH  29  30
HETATM   30  O   UNK N   1      24.379  22.909  -8.196  0.00  0.00    -0.399 OA
HETATM   31  H   UNK N   1      23.487  23.095  -7.862  0.00  0.00     0.209 HD
ENDBRANCH  29  30
ENDBRANCH  28  29
ENDBRANCH  27  28
ENDBRANCH  25  27
ENDBRANCH   9  23
TORSDOF 7
ENDMDL
MODEL 7
REMARK VINA RESULT:      -6.5     20.323     23.650
REMARK  7 active torsions:
REMARK  status: ('A' for Active; 'I' for Inactive)
REMARK    1  A    between atoms: C_9  and  C_22 
REMARK    2  A    between atoms: C_10  and  N_13 
REMARK    3  A    between atoms: N_13  and  C_14 
REMARK       I    between atoms: C_22  and  N_24 
REMARK    4  A    between atoms: N_24  and  O_25 
REMARK    5  A    between atoms: O_25  and  C_26 
REMARK    6  A    between atoms: C_26  and  C_27 
REMARK    7  A    between atoms: C_27  and  O_28 
ROOT
HETATM    1  C   UNK N   1      34.636  15.567   7.204  0.00  0.00     0.157 C 
HETATM    2  N   UNK N   1      34.889  15.864   8.602  0.00  0.00    -0.345 N 
HETATM    3  C   UNK N   1      34.557  17.005   9.252  0.00  0.00     0.183 A 
HETATM    4  N   UNK N   1      34.937  16.954  10.555  0.00  0.00    -0.348 N 
ATOM      5  HN  UNK N   1      34.813  17.671  11.270  1.00  0.00     0.167 HD
HETATM    6  C   UNK N   1      35.516  15.743  10.692  0.00  0.00     0.101 A 
HETATM    7  C   UNK N   1      35.488  15.088   9.512  0.00  0.00     0.066 A 
HETATM    8  C   UNK N   1      36.015  13.812   9.363  0.00  0.00     0.051 A 
HETATM    9  C   UNK N   1      36.598  13.183  10.488  0.00  0.00     0.066 A 
HETATM   10  C   UNK N   1      36.634  13.881  11.757  0.00  0.00     0.090 A 
HETATM   11  C   UNK N   1      36.073  15.197  11.837  0.00  0.00     0.172 A 
HETATM   12  F   UNK N   1      36.049  15.942  12.959  0.00  0.00    -0.201 F 
ENDROOT
BRANCH  10  13
HETATM   13  N   UNK N   1      37.243  13.206  12.868  0.00  0.00    -0.350 N 
HETATM   14  H   UNK N   1      38.207  13.065  12.728  0.00  0.00     0.166 HD
BRANCH  13  15
HETATM   15  C   UNK N   1      36.807  12.685  14.122  0.00  0.00     0.071 A 
HETATM   16  C   UNK N   1      36.089  13.436  15.057  0.00  0.00     0.034 A 
HETATM   17  C   UNK N   1      35.685  12.877  16.271  0.00  0.00     0.021 A 
HETATM   18  C   UNK N   1      35.999  11.550  16.564  0.00  0.00     0.014 A 
HETATM   19  C   UNK N   1      36.715  10.785  15.642  0.00  0.00     0.063 A 
HETATM   20 Br   UNK N   1      35.448  10.784  18.218  0.00  0.00    -0.051 Br
HETATM   21  C   UNK N   1      37.118  11.349  14.428  0.00  0.00     0.144 A 
HETATM   22  F   UNK N   1      37.814  10.592  13.544  0.00  0.00    -0.204 F 
ENDBRANCH  13  15
ENDBRANCH  10  13
BRANCH   9  23
HETATM   23  C   UNK N   1      37.160  11.786  10.350  0.00  0.00     0.277 C 
HETATM   24  O   UNK N   1      38.361  11.637  10.199  0.00  0.00    -0.265 OA
HETATM   25  N   UNK N   1      36.397  10.665  10.385  0.00  0.00    -0.231 N 
HETATM   26  H   UNK N   1      36.855   9.796  10.317  0.00  0.00     0.197 HD
BRANCH  25  27
HETATM   27  O   UNK N   1      35.061  10.657  10.508  0.00  0.00    -0.275 OA
BRANCH  27  28
HETATM   28  C   UNK N   1      34.809   9.760  11.557  0.00  0.00     0.227 C 
BRANCH  28  29
HETATM   29  C   UNK N   1      34.033  10.437  12.683  0.00  0.00     0.192 C 
BRANCH  29  30
HETATM   30  O   UNK N   1      34.187  11.820  12.599  0.00  0.00    -0.399 OA
HETATM   31  H   UNK N   1      33.532  12.490  12.848  0.00  0.00     0.209 HD
ENDBRANCH  29  30
ENDBRANCH  28  29
ENDBRANCH  27  28
ENDBRANCH  25  27
ENDBRANCH   9  23
TORSDOF 7
ENDMDL
MODEL 8
REMARK VINA RESULT:      -6.4     14.104     17.268
REMARK  7 active torsions:
REMARK  status: ('A' for Active; 'I' for Inactive)
REMARK    1  A    between atoms: C_9  and  C_22 
REMARK    2  A    between atoms: C_10  and  N_13 
REMARK    3  A    between atoms: N_13  and  C_14 
REMARK       I    between atoms: C_22  and  N_24 
REMARK    4  A    between atoms: N_24  and  O_25 
REMARK    5  A    between atoms: O_25  and  C_26 
REMARK    6  A    between atoms: C_26  and  C_27 
REMARK    7  A    between atoms: C_27  and  O_28 
ROOT
HETATM    1  C   UNK N   1      28.360  17.384   4.047  0.00  0.00     0.157 C 
HETATM    2  N   UNK N   1      28.518  17.358   5.490  0.00  0.00    -0.345 N 
HETATM    3  C   UNK N   1      27.522  17.412   6.407  0.00  0.00     0.183 A 
HETATM    4  N   UNK N   1      28.018  17.362   7.671  0.00  0.00    -0.348 N 
ATOM      5  HN  UNK N   1      27.497  17.385   8.547  1.00  0.00     0.167 HD
HETATM    6  C   UNK N   1      29.355  17.275   7.507  0.00  0.00     0.101 A 
HETATM    7  C   UNK N   1      29.654  17.274   6.191  0.00  0.00     0.066 A 
HETATM    8  C   UNK N   1      30.961  17.191   5.731  0.00  0.00     0.051 A 
HETATM    9  C   UNK N   1      32.009  17.102   6.677  0.00  0.00     0.066 A 
HETATM   10  C   UNK N   1      31.695  17.105   8.092  0.00  0.00     0.090 A 
HETATM   11  C   UNK N   1      30.323  17.196   8.495  0.00  0.00     0.172 A 
HETATM   12  F   UNK N   1      29.910  17.208   9.777  0.00  0.00    -0.201 F 
ENDROOT
BRANCH  10  13
HETATM   13  N   UNK N   1      32.792  17.022   9.015  0.00  0.00    -0.350 N 
HETATM   14  H   UNK N   1      32.936  17.871   9.491  0.00  0.00     0.166 HD
BRANCH  13  15
HETATM   15  C   UNK N   1      33.727  16.022   9.416  0.00  0.00     0.071 A 
HETATM   16  C   UNK N   1      33.409  14.665   9.504  0.00  0.00     0.034 A 
HETATM   17  C   UNK N   1      34.364  13.727   9.902  0.00  0.00     0.021 A 
HETATM   18  C   UNK N   1      35.658  14.143  10.219  0.00  0.00     0.014 A 
HETATM   19  C   UNK N   1      35.993  15.495  10.136  0.00  0.00     0.063 A 
HETATM   20 Br   UNK N   1      36.963  12.866  10.760  0.00  0.00    -0.051 Br
HETATM   21  C   UNK N   1      35.034  16.431   9.737  0.00  0.00     0.144 A 
HETATM   22  F   UNK N   1      35.376  17.741   9.663  0.00  0.00    -0.204 F 
ENDBRANCH  13  15
ENDBRANCH  10  13
BRANCH   9  23
HETATM   23  C   UNK N   1      33.439  16.992   6.196  0.00  0.00     0.277 C 
HETATM   24  O   UNK N   1      34.192  17.940   6.336  0.00  0.00    -0.265 OA
HETATM   25  N   UNK N   1      33.946  15.880   5.605  0.00  0.00    -0.231 N 
HETATM   26  H   UNK N   1      34.897  15.889   5.352  0.00  0.00     0.197 HD
BRANCH  25  27
HETATM   27  O   UNK N   1      33.242  14.768   5.346  0.00  0.00    -0.275 OA
BRANCH  27  28
HETATM   28  C   UNK N   1      33.570  14.445   4.021  0.00  0.00     0.227 C 
BRANCH  28  29
HETATM   29  C   UNK N   1      32.596  15.092   3.040  0.00  0.00     0.192 C 
BRANCH  29  30
HETATM   30  O   UNK N   1      33.071  16.347   2.662  0.00  0.00    -0.399 OA
HETATM   31  H   UNK N   1      32.628  16.979   2.074  0.00  0.00     0.209 HD
ENDBRANCH  29  30
ENDBRANCH  28  29
ENDBRANCH  27  28
ENDBRANCH  25  27
ENDBRANCH   9  23
TORSDOF 7
ENDMDL
MODEL 9
REMARK VINA RESULT:      -6.4     14.009     15.909
REMARK  7 active torsions:
REMARK  status: ('A' for Active; 'I' for Inactive)
REMARK    1  A    between atoms: C_9  and  C_22 
REMARK    2  A    between atoms: C_10  and  N_13 
REMARK    3  A    between atoms: N_13  and  C_14 
REMARK       I    between atoms: C_22  and  N_24 
REMARK    4  A    between atoms: N_24  and  O_25 
REMARK    5  A    between atoms: O_25  and  C_26 
REMARK    6  A    between atoms: C_26  and  C_27 
REMARK    7  A    between atoms: C_27  and  O_28 
ROOT
HETATM    1  C   UNK N   1      25.935  20.307   3.472  0.00  0.00     0.157 C 
HETATM    2  N   UNK N   1      26.078  18.929   3.907  0.00  0.00    -0.345 N 
HETATM    3  C   UNK N   1      27.195  18.170   3.810  0.00  0.00     0.183 A 
HETATM    4  N   UNK N   1      26.987  16.926   4.316  0.00  0.00    -0.348 N 
ATOM      5  HN  UNK N   1      27.652  16.155   4.370  1.00  0.00     0.167 HD
HETATM    6  C   UNK N   1      25.703  16.939   4.730  0.00  0.00     0.101 A 
HETATM    7  C   UNK N   1      25.156  18.149   4.481  0.00  0.00     0.066 A 
HETATM    8  C   UNK N   1      23.839  18.445   4.808  0.00  0.00     0.051 A 
HETATM    9  C   UNK N   1      23.052  17.445   5.424  0.00  0.00     0.066 A 
HETATM   10  C   UNK N   1      23.631  16.144   5.692  0.00  0.00     0.090 A 
HETATM   11  C   UNK N   1      24.996  15.907   5.325  0.00  0.00     0.172 A 
HETATM   12  F   UNK N   1      25.641  14.742   5.523  0.00  0.00    -0.201 F 
ENDROOT
BRANCH  10  13
HETATM   13  N   UNK N   1      22.791  15.158   6.310  0.00  0.00    -0.350 N 
HETATM   14  H   UNK N   1      22.020  14.926   5.744  0.00  0.00     0.166 HD
BRANCH  13  15
HETATM   15  C   UNK N   1      22.786  14.431   7.537  0.00  0.00     0.071 A 
HETATM   16  C   UNK N   1      23.863  13.654   7.973  0.00  0.00     0.034 A 
HETATM   17  C   UNK N   1      23.807  12.962   9.184  0.00  0.00     0.021 A 
HETATM   18  C   UNK N   1      22.662  13.041   9.978  0.00  0.00     0.014 A 
HETATM   19  C   UNK N   1      21.577  13.812   9.559  0.00  0.00     0.063 A 
HETATM   20 Br   UNK N   1      22.584  12.100  11.632  0.00  0.00    -0.051 Br
HETATM   21  C   UNK N   1      21.638  14.503   8.345  0.00  0.00     0.144 A 
HETATM   22  F   UNK N   1      20.574  15.248   7.952  0.00  0.00    -0.204 F 
ENDBRANCH  13  15
ENDBRANCH  10  13
BRANCH   9  23
HETATM   23  C   UNK N   1      21.621  17.755   5.805  0.00  0.00     0.277 C 
HETATM   24  O   UNK N   1      21.352  17.999   6.969  0.00  0.00    -0.265 OA
HETATM   25  N   UNK N   1      20.598  17.779   4.914  0.00  0.00    -0.231 N 
HETATM   26  H   UNK N   1      19.704  18.021   5.250  0.00  0.00     0.197 HD
BRANCH  25  27
HETATM   27  O   UNK N   1      20.719  17.500   3.608  0.00  0.00    -0.275 OA
BRANCH  27  28
HETATM   28  C   UNK N   1      19.822  18.373   2.976  0.00  0.00     0.227 C 
BRANCH  28  29
HETATM   29  C   UNK N   1      20.466  19.732   2.719  0.00  0.00     0.192 C 
BRANCH  29  30
HETATM   30  O   UNK N   1      20.392  20.515   3.870  0.00  0.00    -0.399 OA
HETATM   31  H   UNK N   1      19.617  21.006   4.185  0.00  0.00     0.209 HD
ENDBRANCH  29  30
ENDBRANCH  28  29
ENDBRANCH  27  28
ENDBRANCH  25  27
ENDBRANCH   9  23
TORSDOF 7
ENDMDL
