MODEL 1
REMARK VINA RESULT:      -8.5      0.000      0.000
REMARK  8 active torsions:
REMARK  status: ('A' for Active; 'I' for Inactive)
REMARK    1  A    between atoms: N_5  and  C_8 
REMARK       I    between atoms: N_11  and  C_14 
REMARK       I    between atoms: C_14  and  N_16 
REMARK    2  A    between atoms: N_16  and  C_17 
REMARK    3  A    between atoms: C_19  and  O_24 
REMARK    4  A    between atoms: O_24  and  C_25 
REMARK    5  A    between atoms: C_28  and  N_32 
REMARK       I    between atoms: N_32  and  C_33 
REMARK    6  A    between atoms: C_33  and  C_35 
REMARK    7  A    between atoms: C_35  and  C_38 
REMARK       I    between atoms: C_38  and  N_40 
REMARK    8  A    between atoms: N_40  and  C_41 
ROOT
HETATM    1  C   UNK N   1      30.628  23.020  -2.715  0.00  0.00     0.079 A 
HETATM    2  C   UNK N   1      31.180  24.143  -3.313  0.00  0.00     0.040 A 
HETATM    3  C   UNK N   1      30.344  25.185  -3.690  0.00  0.00     0.035 A 
HETATM    4  C   UNK N   1      28.952  25.113  -3.469  0.00  0.00     0.073 A 
HETATM    5  C   UNK N   1      28.394  23.961  -2.930  0.00  0.00     0.145 A 
HETATM    6  C   UNK N   1      29.226  22.928  -2.551  0.00  0.00     0.081 A 
HETATM    7  F   UNK N   1      27.064  23.877  -2.677  0.00  0.00    -0.204 F 
ENDROOT
BRANCH   1   8
HETATM    8  O   UNK N   1      31.429  22.026  -2.270  0.00  0.00    -0.311 OA
BRANCH   8   9
HETATM    9  C   UNK N   1      32.181  21.391  -3.176  0.00  0.00     0.081 A 
HETATM   10  C   UNK N   1      31.533  20.790  -4.237  0.00  0.00     0.086 A 
HETATM   11  C   UNK N   1      32.223  19.944  -5.068  0.00  0.00     0.111 A 
HETATM   12  N   UNK N   1      33.547  19.696  -4.851  0.00  0.00    -0.352 N 
HETATM   13  C   UNK N   1      34.209  20.269  -3.804  0.00  0.00     0.092 A 
ATOM     14  HN  UNK N   1      34.051  19.072  -5.480  1.00  0.00     0.166 HD
HETATM   15  C   UNK N   1      33.532  21.133  -2.939  0.00  0.00     0.054 A 
BRANCH  11  16
HETATM   16  N   UNK N   1      31.528  19.430  -6.178  0.00  0.00    -0.294 N 
HETATM   17  C   UNK N   1      31.868  19.646  -7.467  0.00  0.00     0.323 C 
HETATM   18  N   UNK N   1      30.964  19.344  -8.433  0.00  0.00    -0.334 N 
HETATM   19  O   UNK N   1      32.897  20.242  -7.746  0.00  0.00    -0.247 OA
HETATM   20  C   UNK N   1      29.673  18.785  -8.080  0.00  0.00     0.129 C 
HETATM   21  C   UNK N   1      31.096  19.951  -9.735  0.00  0.00     0.129 C 
HETATM   22  C   UNK N   1      28.568  19.832  -8.301  0.00  0.00     0.056 C 
HETATM   23  C   UNK N   1      29.186  21.213  -8.558  0.00  0.00     0.226 C 
HETATM   24  C   UNK N   1      30.156  21.175  -9.775  0.00  0.00     0.056 C 
HETATM   25  H   UNK N   1      30.738  18.871  -6.002  0.00  0.00     0.172 HD
BRANCH  23  26
HETATM   26  N   UNK N   1      28.170  22.266  -8.613  0.00  0.00     0.096 N 
HETATM   27  C   UNK N   1      26.840  21.659  -8.447  0.00  0.00     0.303 C 
HETATM   28  C   UNK N   1      25.897  22.564  -7.661  0.00  0.00     0.302 C 
HETATM   29  N   UNK N   1      26.428  22.792  -6.313  0.00  0.00     0.087 N 
HETATM   30  C   UNK N   1      25.727  23.936  -5.761  0.00  0.00     0.310 C 
HETATM   31  C   UNK N   1      27.865  23.106  -6.287  0.00  0.00     0.302 C 
HETATM   32  C   UNK N   1      28.461  23.368  -7.678  0.00  0.00     0.303 C 
ENDBRANCH  23  26
ENDBRANCH  11  16
ENDBRANCH   8   9
ENDBRANCH   1   8
BRANCH   4  33
HETATM   33  N   UNK N   1      28.142  26.255  -3.662  0.00  0.00    -0.323 N 
HETATM   34  C   UNK N   1      27.978  26.764  -4.911  0.00  0.00     0.240 C 
HETATM   35  O   UNK N   1      28.595  26.285  -5.856  0.00  0.00    -0.272 OA
HETATM   36  H   UNK N   1      27.697  26.681  -2.894  0.00  0.00     0.169 HD
BRANCH  34  37
HETATM   37  C   UNK N   1      27.105  27.945  -5.163  0.00  0.00     0.122 A 
HETATM   38  C   UNK N   1      25.939  27.521  -6.049  0.00  0.00     0.031 A 
HETATM   39  C   UNK N   1      25.673  27.975  -4.640  0.00  0.00     0.031 A 
BRANCH  37  40
HETATM   40  C   UNK N   1      27.810  29.119  -5.815  0.00  0.00     0.240 C 
HETATM   41  O   UNK N   1      27.813  29.188  -7.035  0.00  0.00    -0.272 OA
HETATM   42  N   UNK N   1      28.585  29.987  -5.114  0.00  0.00    -0.326 N 
HETATM   43  H   UNK N   1      29.142  30.614  -5.629  0.00  0.00     0.169 HD
BRANCH  42  44
HETATM   44  C   UNK N   1      28.655  30.060  -3.703  0.00  0.00     0.034 A 
HETATM   45  C   UNK N   1      29.727  29.462  -3.032  0.00  0.00     0.032 A 
HETATM   46  C   UNK N   1      29.826  29.563  -1.641  0.00  0.00     0.044 A 
HETATM   47  C   UNK N   1      28.866  30.285  -0.923  0.00  0.00     0.116 A 
HETATM   48  C   UNK N   1      27.813  30.906  -1.594  0.00  0.00     0.044 A 
HETATM   49  F   UNK N   1      28.960  30.388   0.423  0.00  0.00    -0.206 F 
HETATM   50  C   UNK N   1      27.712  30.797  -2.981  0.00  0.00     0.032 A 
ENDBRANCH  42  44
ENDBRANCH  37  40
ENDBRANCH  34  37
ENDBRANCH   4  33
TORSDOF 8
ENDMDL
MODEL 2
REMARK VINA RESULT:      -8.5     15.307     19.114
REMARK  8 active torsions:
REMARK  status: ('A' for Active; 'I' for Inactive)
REMARK    1  A    between atoms: N_5  and  C_8 
REMARK       I    between atoms: N_11  and  C_14 
REMARK       I    between atoms: C_14  and  N_16 
REMARK    2  A    between atoms: N_16  and  C_17 
REMARK    3  A    between atoms: C_19  and  O_24 
REMARK    4  A    between atoms: O_24  and  C_25 
REMARK    5  A    between atoms: C_28  and  N_32 
REMARK       I    between atoms: N_32  and  C_33 
REMARK    6  A    between atoms: C_33  and  C_35 
REMARK    7  A    between atoms: C_35  and  C_38 
REMARK       I    between atoms: C_38  and  N_40 
REMARK    8  A    between atoms: N_40  and  C_41 
ROOT
HETATM    1  C   UNK N   1      32.823  16.591   8.787  0.00  0.00     0.079 A 
HETATM    2  C   UNK N   1      32.169  15.369   8.828  0.00  0.00     0.040 A 
HETATM    3  C   UNK N   1      32.856  14.251   9.281  0.00  0.00     0.035 A 
HETATM    4  C   UNK N   1      34.200  14.348   9.699  0.00  0.00     0.073 A 
HETATM    5  C   UNK N   1      34.873  15.559   9.596  0.00  0.00     0.145 A 
HETATM    6  C   UNK N   1      34.188  16.670   9.150  0.00  0.00     0.081 A 
HETATM    7  F   UNK N   1      36.155  15.689  10.020  0.00  0.00    -0.204 F 
ENDROOT
BRANCH   1   8
HETATM    8  O   UNK N   1      32.153  17.707   8.423  0.00  0.00    -0.311 OA
BRANCH   8   9
HETATM    9  C   UNK N   1      30.817  17.638   8.390  0.00  0.00     0.081 A 
HETATM   10  C   UNK N   1      30.205  17.679   7.154  0.00  0.00     0.086 A 
HETATM   11  C   UNK N   1      28.844  17.835   7.070  0.00  0.00     0.111 A 
HETATM   12  N   UNK N   1      28.094  17.947   8.205  0.00  0.00    -0.352 N 
HETATM   13  C   UNK N   1      28.675  17.919   9.439  0.00  0.00     0.092 A 
ATOM     14  HN  UNK N   1      27.083  18.054   8.129  1.00  0.00     0.166 HD
HETATM   15  C   UNK N   1      30.060  17.764   9.556  0.00  0.00     0.054 A 
BRANCH  11  16
HETATM   16  N   UNK N   1      28.272  17.787   5.786  0.00  0.00    -0.294 N 
HETATM   17  C   UNK N   1      27.555  18.784   5.225  0.00  0.00     0.323 C 
HETATM   18  N   UNK N   1      26.821  18.508   4.116  0.00  0.00    -0.334 N 
HETATM   19  O   UNK N   1      27.445  19.863   5.787  0.00  0.00    -0.247 OA
HETATM   20  C   UNK N   1      26.828  17.174   3.545  0.00  0.00     0.129 C 
HETATM   21  C   UNK N   1      25.731  19.382   3.759  0.00  0.00     0.129 C 
HETATM   22  C   UNK N   1      25.478  16.484   3.803  0.00  0.00     0.056 C 
HETATM   23  C   UNK N   1      24.648  17.294   4.807  0.00  0.00     0.226 C 
HETATM   24  C   UNK N   1      24.432  18.753   4.307  0.00  0.00     0.056 C 
HETATM   25  H   UNK N   1      28.405  16.967   5.258  0.00  0.00     0.172 HD
BRANCH  23  26
HETATM   26  N   UNK N   1      23.426  16.592   5.201  0.00  0.00     0.096 N 
HETATM   27  C   UNK N   1      22.510  17.547   5.845  0.00  0.00     0.303 C 
HETATM   28  C   UNK N   1      21.052  17.244   5.518  0.00  0.00     0.302 C 
HETATM   29  N   UNK N   1      20.828  17.354   4.073  0.00  0.00     0.087 N 
HETATM   30  C   UNK N   1      19.571  16.693   3.779  0.00  0.00     0.310 C 
HETATM   31  C   UNK N   1      21.867  16.700   3.261  0.00  0.00     0.302 C 
HETATM   32  C   UNK N   1      22.834  15.836   4.082  0.00  0.00     0.303 C 
ENDBRANCH  23  26
ENDBRANCH  11  16
ENDBRANCH   8   9
ENDBRANCH   1   8
BRANCH   4  33
HETATM   33  N   UNK N   1      34.822  13.259  10.351  0.00  0.00    -0.323 N 
HETATM   34  C   UNK N   1      34.931  13.253  11.705  0.00  0.00     0.240 C 
HETATM   35  O   UNK N   1      34.564  14.226  12.355  0.00  0.00    -0.272 OA
HETATM   36  H   UNK N   1      35.177  12.506   9.825  0.00  0.00     0.169 HD
BRANCH  34  37
HETATM   37  C   UNK N   1      35.549  12.110  12.433  0.00  0.00     0.122 A 
HETATM   38  C   UNK N   1      36.727  11.584  11.623  0.00  0.00     0.031 A 
HETATM   39  C   UNK N   1      36.973  12.212  12.966  0.00  0.00     0.031 A 
BRANCH  37  40
HETATM   40  C   UNK N   1      34.601  10.961  12.717  0.00  0.00     0.240 C 
HETATM   41  O   UNK N   1      34.160  10.326  11.770  0.00  0.00    -0.272 OA
HETATM   42  N   UNK N   1      34.085  10.727  13.952  0.00  0.00    -0.326 N 
HETATM   43  H   UNK N   1      33.351  10.074  14.019  0.00  0.00     0.169 HD
BRANCH  42  44
HETATM   44  C   UNK N   1      34.518  11.347  15.147  0.00  0.00     0.034 A 
HETATM   45  C   UNK N   1      34.193  12.687  15.388  0.00  0.00     0.032 A 
HETATM   46  C   UNK N   1      34.583  13.297  16.584  0.00  0.00     0.044 A 
HETATM   47  C   UNK N   1      35.275  12.560  17.552  0.00  0.00     0.116 A 
HETATM   48  C   UNK N   1      35.574  11.216  17.325  0.00  0.00     0.044 A 
HETATM   49  F   UNK N   1      35.650  13.146  18.712  0.00  0.00    -0.206 F 
HETATM   50  C   UNK N   1      35.191  10.612  16.127  0.00  0.00     0.032 A 
ENDBRANCH  42  44
ENDBRANCH  37  40
ENDBRANCH  34  37
ENDBRANCH   4  33
TORSDOF 8
ENDMDL
MODEL 3
REMARK VINA RESULT:      -8.3      1.498      2.126
REMARK  8 active torsions:
REMARK  status: ('A' for Active; 'I' for Inactive)
REMARK    1  A    between atoms: N_5  and  C_8 
REMARK       I    between atoms: N_11  and  C_14 
REMARK       I    between atoms: C_14  and  N_16 
REMARK    2  A    between atoms: N_16  and  C_17 
REMARK    3  A    between atoms: C_19  and  O_24 
REMARK    4  A    between atoms: O_24  and  C_25 
REMARK    5  A    between atoms: C_28  and  N_32 
REMARK       I    between atoms: N_32  and  C_33 
REMARK    6  A    between atoms: C_33  and  C_35 
REMARK    7  A    between atoms: C_35  and  C_38 
REMARK       I    between atoms: C_38  and  N_40 
REMARK    8  A    between atoms: N_40  and  C_41 
ROOT
HETATM    1  C   UNK N   1      30.663  22.989  -2.562  0.00  0.00     0.079 A 
HETATM    2  C   UNK N   1      29.303  22.813  -2.358  0.00  0.00     0.040 A 
HETATM    3  C   UNK N   1      28.421  23.781  -2.817  0.00  0.00     0.035 A 
HETATM    4  C   UNK N   1      28.891  24.930  -3.487  0.00  0.00     0.073 A 
HETATM    5  C   UNK N   1      30.257  25.136  -3.634  0.00  0.00     0.145 A 
HETATM    6  C   UNK N   1      31.132  24.171  -3.182  0.00  0.00     0.081 A 
HETATM    7  F   UNK N   1      30.737  26.215  -4.303  0.00  0.00    -0.204 F 
ENDROOT
BRANCH   1   8
HETATM    8  O   UNK N   1      31.535  22.025  -2.193  0.00  0.00    -0.311 OA
BRANCH   8   9
HETATM    9  C   UNK N   1      32.195  21.388  -3.168  0.00  0.00     0.081 A 
HETATM   10  C   UNK N   1      31.450  20.842  -4.195  0.00  0.00     0.086 A 
HETATM   11  C   UNK N   1      32.046  19.995  -5.096  0.00  0.00     0.111 A 
HETATM   12  N   UNK N   1      33.371  19.693  -4.981  0.00  0.00    -0.352 N 
HETATM   13  C   UNK N   1      34.128  20.210  -3.971  0.00  0.00     0.092 A 
ATOM     14  HN  UNK N   1      33.804  19.069  -5.662  1.00  0.00     0.166 HD
HETATM   15  C   UNK N   1      33.548  21.074  -3.036  0.00  0.00     0.054 A 
BRANCH  11  16
HETATM   16  N   UNK N   1      31.254  19.539  -6.165  0.00  0.00    -0.294 N 
HETATM   17  C   UNK N   1      31.564  19.687  -7.470  0.00  0.00     0.323 C 
HETATM   18  N   UNK N   1      30.595  19.468  -8.395  0.00  0.00    -0.334 N 
HETATM   19  O   UNK N   1      32.642  20.155  -7.804  0.00  0.00    -0.247 OA
HETATM   20  C   UNK N   1      29.263  19.068  -7.980  0.00  0.00     0.129 C 
HETATM   21  C   UNK N   1      30.743  20.027  -9.716  0.00  0.00     0.129 C 
HETATM   22  C   UNK N   1      28.276  20.229  -8.187  0.00  0.00     0.056 C 
HETATM   23  C   UNK N   1      29.035  21.524  -8.503  0.00  0.00     0.226 C 
HETATM   24  C   UNK N   1      29.946  21.349  -9.753  0.00  0.00     0.056 C 
HETATM   25  H   UNK N   1      30.413  19.078  -5.945  0.00  0.00     0.172 HD
BRANCH  23  26
HETATM   26  N   UNK N   1      28.143  22.685  -8.549  0.00  0.00     0.096 N 
HETATM   27  C   UNK N   1      28.748  23.720  -9.401  0.00  0.00     0.303 C 
HETATM   28  C   UNK N   1      27.697  24.489 -10.194  0.00  0.00     0.302 C 
HETATM   29  N   UNK N   1      26.975  23.578 -11.087  0.00  0.00     0.087 N 
HETATM   30  C   UNK N   1      25.764  24.255 -11.510  0.00  0.00     0.310 C 
HETATM   31  C   UNK N   1      26.569  22.317 -10.445  0.00  0.00     0.302 C 
HETATM   32  C   UNK N   1      26.766  22.312  -8.923  0.00  0.00     0.303 C 
ENDBRANCH  23  26
ENDBRANCH  11  16
ENDBRANCH   8   9
ENDBRANCH   1   8
BRANCH   4  33
HETATM   33  N   UNK N   1      27.983  25.800  -4.131  0.00  0.00    -0.323 N 
HETATM   34  C   UNK N   1      27.689  25.619  -5.445  0.00  0.00     0.240 C 
HETATM   35  O   UNK N   1      28.270  24.755  -6.092  0.00  0.00    -0.272 OA
HETATM   36  H   UNK N   1      27.564  26.536  -3.629  0.00  0.00     0.169 HD
BRANCH  34  37
HETATM   37  C   UNK N   1      26.711  26.492  -6.153  0.00  0.00     0.122 A 
HETATM   38  C   UNK N   1      25.799  25.622  -7.010  0.00  0.00     0.031 A 
HETATM   39  C   UNK N   1      25.220  26.386  -5.852  0.00  0.00     0.031 A 
BRANCH  37  40
HETATM   40  C   UNK N   1      27.340  27.554  -7.034  0.00  0.00     0.240 C 
HETATM   41  O   UNK N   1      27.436  27.331  -8.232  0.00  0.00    -0.272 OA
HETATM   42  N   UNK N   1      27.960  28.651  -6.526  0.00  0.00    -0.326 N 
HETATM   43  H   UNK N   1      28.489  29.201  -7.148  0.00  0.00     0.169 HD
BRANCH  42  44
HETATM   44  C   UNK N   1      27.907  29.065  -5.175  0.00  0.00     0.034 A 
HETATM   45  C   UNK N   1      29.071  29.045  -4.398  0.00  0.00     0.032 A 
HETATM   46  C   UNK N   1      29.036  29.489  -3.073  0.00  0.00     0.044 A 
HETATM   47  C   UNK N   1      27.842  29.978  -2.531  0.00  0.00     0.116 A 
HETATM   48  C   UNK N   1      26.688  30.026  -3.313  0.00  0.00     0.044 A 
HETATM   49  F   UNK N   1      27.805  30.413  -1.250  0.00  0.00    -0.206 F 
HETATM   50  C   UNK N   1      26.723  29.574  -4.632  0.00  0.00     0.032 A 
ENDBRANCH  42  44
ENDBRANCH  37  40
ENDBRANCH  34  37
ENDBRANCH   4  33
TORSDOF 8
ENDMDL
MODEL 4
REMARK VINA RESULT:      -8.3     12.668     16.571
REMARK  8 active torsions:
REMARK  status: ('A' for Active; 'I' for Inactive)
REMARK    1  A    between atoms: N_5  and  C_8 
REMARK       I    between atoms: N_11  and  C_14 
REMARK       I    between atoms: C_14  and  N_16 
REMARK    2  A    between atoms: N_16  and  C_17 
REMARK    3  A    between atoms: C_19  and  O_24 
REMARK    4  A    between atoms: O_24  and  C_25 
REMARK    5  A    between atoms: C_28  and  N_32 
REMARK       I    between atoms: N_32  and  C_33 
REMARK    6  A    between atoms: C_33  and  C_35 
REMARK    7  A    between atoms: C_35  and  C_38 
REMARK       I    between atoms: C_38  and  N_40 
REMARK    8  A    between atoms: N_40  and  C_41 
ROOT
HETATM    1  C   UNK N   1      26.853  16.881   3.711  0.00  0.00     0.079 A 
HETATM    2  C   UNK N   1      27.782  17.894   3.897  0.00  0.00     0.040 A 
HETATM    3  C   UNK N   1      28.922  17.635   4.646  0.00  0.00     0.035 A 
HETATM    4  C   UNK N   1      29.143  16.361   5.210  0.00  0.00     0.073 A 
HETATM    5  C   UNK N   1      28.181  15.367   5.078  0.00  0.00     0.145 A 
HETATM    6  C   UNK N   1      27.051  15.625   4.330  0.00  0.00     0.081 A 
HETATM    7  F   UNK N   1      28.381  14.124   5.582  0.00  0.00    -0.204 F 
ENDROOT
BRANCH   1   8
HETATM    8  O   UNK N   1      25.775  17.086   2.923  0.00  0.00    -0.311 OA
BRANCH   8   9
HETATM    9  C   UNK N   1      24.808  17.879   3.399  0.00  0.00     0.081 A 
HETATM   10  C   UNK N   1      23.682  17.274   3.919  0.00  0.00     0.086 A 
HETATM   11  C   UNK N   1      22.574  18.029   4.215  0.00  0.00     0.111 A 
HETATM   12  N   UNK N   1      22.584  19.376   3.999  0.00  0.00    -0.352 N 
HETATM   13  C   UNK N   1      23.680  19.998   3.477  0.00  0.00     0.092 A 
ATOM     14  HN  UNK N   1      21.758  19.927   4.230  1.00  0.00     0.166 HD
HETATM   15  C   UNK N   1      24.823  19.255   3.164  0.00  0.00     0.054 A 
BRANCH  11  16
HETATM   16  N   UNK N   1      21.490  17.366   4.818  0.00  0.00    -0.294 N 
HETATM   17  C   UNK N   1      21.083  17.557   6.091  0.00  0.00     0.323 C 
HETATM   18  N   UNK N   1      20.224  16.659   6.637  0.00  0.00    -0.334 N 
HETATM   19  O   UNK N   1      21.593  18.425   6.783  0.00  0.00    -0.247 OA
HETATM   20  C   UNK N   1      19.747  15.533   5.856  0.00  0.00     0.129 C 
HETATM   21  C   UNK N   1      20.118  16.570   8.072  0.00  0.00     0.129 C 
HETATM   22  C   UNK N   1      20.388  14.231   6.364  0.00  0.00     0.056 C 
HETATM   23  C   UNK N   1      21.528  14.544   7.341  0.00  0.00     0.226 C 
HETATM   24  C   UNK N   1      21.023  15.408   8.534  0.00  0.00     0.056 C 
HETATM   25  H   UNK N   1      20.992  16.716   4.272  0.00  0.00     0.172 HD
BRANCH  23  26
HETATM   26  N   UNK N   1      22.269  13.340   7.724  0.00  0.00     0.096 N 
HETATM   27  C   UNK N   1      23.607  13.731   8.195  0.00  0.00     0.303 C 
HETATM   28  C   UNK N   1      24.091  12.839   9.334  0.00  0.00     0.302 C 
HETATM   29  N   UNK N   1      23.188  12.959  10.483  0.00  0.00     0.087 N 
HETATM   30  C   UNK N   1      23.454  11.835  11.361  0.00  0.00     0.310 C 
HETATM   31  C   UNK N   1      21.762  12.908  10.125  0.00  0.00     0.302 C 
HETATM   32  C   UNK N   1      21.510  12.498   8.666  0.00  0.00     0.303 C 
ENDBRANCH  23  26
ENDBRANCH  11  16
ENDBRANCH   8   9
ENDBRANCH   1   8
BRANCH   4  33
HETATM   33  N   UNK N   1      30.393  16.046   5.789  0.00  0.00    -0.323 N 
HETATM   34  C   UNK N   1      30.702  16.513   7.027  0.00  0.00     0.240 C 
HETATM   35  O   UNK N   1      29.933  17.270   7.608  0.00  0.00    -0.272 OA
HETATM   36  H   UNK N   1      31.040  15.491   5.296  0.00  0.00     0.169 HD
BRANCH  34  37
HETATM   37  C   UNK N   1      31.995  16.177   7.687  0.00  0.00     0.122 A 
HETATM   38  C   UNK N   1      31.739  15.890   9.162  0.00  0.00     0.031 A 
HETATM   39  C   UNK N   1      32.229  14.786   8.266  0.00  0.00     0.031 A 
BRANCH  37  40
HETATM   40  C   UNK N   1      33.055  17.256   7.577  0.00  0.00     0.240 C 
HETATM   41  O   UNK N   1      33.167  18.053   8.496  0.00  0.00    -0.272 OA
HETATM   42  N   UNK N   1      33.751  17.482   6.433  0.00  0.00    -0.326 N 
HETATM   43  H   UNK N   1      34.294  18.302   6.388  0.00  0.00     0.169 HD
BRANCH  42  44
HETATM   44  C   UNK N   1      33.759  16.632   5.302  0.00  0.00     0.034 A 
HETATM   45  C   UNK N   1      33.119  17.039   4.127  0.00  0.00     0.032 A 
HETATM   46  C   UNK N   1      33.155  16.223   2.991  0.00  0.00     0.044 A 
HETATM   47  C   UNK N   1      33.854  15.011   3.024  0.00  0.00     0.116 A 
HETATM   48  C   UNK N   1      34.517  14.618   4.187  0.00  0.00     0.044 A 
HETATM   49  F   UNK N   1      33.894  14.221   1.926  0.00  0.00    -0.206 F 
HETATM   50  C   UNK N   1      34.473  15.429   5.320  0.00  0.00     0.032 A 
ENDBRANCH  42  44
ENDBRANCH  37  40
ENDBRANCH  34  37
ENDBRANCH   4  33
TORSDOF 8
ENDMDL
MODEL 5
REMARK VINA RESULT:      -8.2     13.153     17.110
REMARK  8 active torsions:
REMARK  status: ('A' for Active; 'I' for Inactive)
REMARK    1  A    between atoms: N_5  and  C_8 
REMARK       I    between atoms: N_11  and  C_14 
REMARK       I    between atoms: C_14  and  N_16 
REMARK    2  A    between atoms: N_16  and  C_17 
REMARK    3  A    between atoms: C_19  and  O_24 
REMARK    4  A    between atoms: O_24  and  C_25 
REMARK    5  A    between atoms: C_28  and  N_32 
REMARK       I    between atoms: N_32  and  C_33 
REMARK    6  A    between atoms: C_33  and  C_35 
REMARK    7  A    between atoms: C_35  and  C_38 
REMARK       I    between atoms: C_38  and  N_40 
REMARK    8  A    between atoms: N_40  and  C_41 
ROOT
HETATM    1  C   UNK N   1      27.292  16.836   4.063  0.00  0.00     0.079 A 
HETATM    2  C   UNK N   1      27.217  16.944   5.443  0.00  0.00     0.040 A 
HETATM    3  C   UNK N   1      28.391  17.047   6.177  0.00  0.00     0.035 A 
HETATM    4  C   UNK N   1      29.648  17.047   5.535  0.00  0.00     0.073 A 
HETATM    5  C   UNK N   1      29.724  16.873   4.159  0.00  0.00     0.145 A 
HETATM    6  C   UNK N   1      28.556  16.776   3.431  0.00  0.00     0.081 A 
HETATM    7  F   UNK N   1      30.916  16.901   3.511  0.00  0.00    -0.204 F 
ENDROOT
BRANCH   1   8
HETATM    8  O   UNK N   1      26.162  16.812   3.322  0.00  0.00    -0.311 OA
BRANCH   8   9
HETATM    9  C   UNK N   1      25.192  17.673   3.654  0.00  0.00     0.081 A 
HETATM   10  C   UNK N   1      23.988  17.148   4.078  0.00  0.00     0.086 A 
HETATM   11  C   UNK N   1      22.896  17.968   4.216  0.00  0.00     0.111 A 
HETATM   12  N   UNK N   1      22.998  19.300   3.938  0.00  0.00    -0.352 N 
HETATM   13  C   UNK N   1      24.173  19.843   3.508  0.00  0.00     0.092 A 
ATOM     14  HN  UNK N   1      22.181  19.900   4.053  1.00  0.00     0.166 HD
HETATM   15  C   UNK N   1      25.302  19.032   3.355  0.00  0.00     0.054 A 
BRANCH  11  16
HETATM   16  N   UNK N   1      21.722  17.389   4.731  0.00  0.00    -0.294 N 
HETATM   17  C   UNK N   1      21.243  17.597   5.976  0.00  0.00     0.323 C 
HETATM   18  N   UNK N   1      20.278  16.767   6.445  0.00  0.00    -0.334 N 
HETATM   19  O   UNK N   1      21.771  18.413   6.717  0.00  0.00    -0.247 OA
HETATM   20  C   UNK N   1      19.767  15.692   5.614  0.00  0.00     0.129 C 
HETATM   21  C   UNK N   1      20.064  16.669   7.868  0.00  0.00     0.129 C 
HETATM   22  C   UNK N   1      20.265  14.337   6.142  0.00  0.00     0.056 C 
HETATM   23  C   UNK N   1      21.355  14.544   7.201  0.00  0.00     0.226 C 
HETATM   24  C   UNK N   1      20.837  15.432   8.371  0.00  0.00     0.056 C 
HETATM   25  H   UNK N   1      21.213  16.788   4.141  0.00  0.00     0.172 HD
BRANCH  23  26
HETATM   26  N   UNK N   1      21.967  13.279   7.613  0.00  0.00     0.096 N 
HETATM   27  C   UNK N   1      23.425  13.455   7.689  0.00  0.00     0.303 C 
HETATM   28  C   UNK N   1      24.037  12.646   8.828  0.00  0.00     0.302 C 
HETATM   29  N   UNK N   1      23.491  13.095  10.112  0.00  0.00     0.087 N 
HETATM   30  C   UNK N   1      23.791  12.068  11.092  0.00  0.00     0.310 C 
HETATM   31  C   UNK N   1      22.031  13.280  10.104  0.00  0.00     0.302 C 
HETATM   32  C   UNK N   1      21.351  12.738   8.839  0.00  0.00     0.303 C 
ENDBRANCH  23  26
ENDBRANCH  11  16
ENDBRANCH   8   9
ENDBRANCH   1   8
BRANCH   4  33
HETATM   33  N   UNK N   1      30.818  17.360   6.263  0.00  0.00    -0.323 N 
HETATM   34  C   UNK N   1      31.594  16.361   6.758  0.00  0.00     0.240 C 
HETATM   35  O   UNK N   1      31.240  15.193   6.644  0.00  0.00    -0.272 OA
HETATM   36  H   UNK N   1      31.070  18.301   6.411  0.00  0.00     0.169 HD
BRANCH  34  37
HETATM   37  C   UNK N   1      32.854  16.648   7.501  0.00  0.00     0.122 A 
HETATM   38  C   UNK N   1      32.684  17.944   8.284  0.00  0.00     0.031 A 
HETATM   39  C   UNK N   1      32.869  16.648   9.025  0.00  0.00     0.031 A 
BRANCH  37  40
HETATM   40  C   UNK N   1      34.086  16.765   6.625  0.00  0.00     0.240 C 
HETATM   41  O   UNK N   1      34.191  17.744   5.901  0.00  0.00    -0.272 OA
HETATM   42  N   UNK N   1      34.978  15.751   6.479  0.00  0.00    -0.326 N 
HETATM   43  H   UNK N   1      35.653  15.841   5.768  0.00  0.00     0.169 HD
BRANCH  42  44
HETATM   44  C   UNK N   1      35.014  14.577   7.267  0.00  0.00     0.034 A 
HETATM   45  C   UNK N   1      35.755  14.563   8.454  0.00  0.00     0.032 A 
HETATM   46  C   UNK N   1      35.765  13.420   9.259  0.00  0.00     0.044 A 
HETATM   47  C   UNK N   1      35.011  12.299   8.892  0.00  0.00     0.116 A 
HETATM   48  C   UNK N   1      34.248  12.324   7.724  0.00  0.00     0.044 A 
HETATM   49  F   UNK N   1      35.014  11.193   9.670  0.00  0.00    -0.206 F 
HETATM   50  C   UNK N   1      34.247  13.462   6.918  0.00  0.00     0.032 A 
ENDBRANCH  42  44
ENDBRANCH  37  40
ENDBRANCH  34  37
ENDBRANCH   4  33
TORSDOF 8
ENDMDL
MODEL 6
REMARK VINA RESULT:      -8.1     14.123     18.332
REMARK  8 active torsions:
REMARK  status: ('A' for Active; 'I' for Inactive)
REMARK    1  A    between atoms: N_5  and  C_8 
REMARK       I    between atoms: N_11  and  C_14 
REMARK       I    between atoms: C_14  and  N_16 
REMARK    2  A    between atoms: N_16  and  C_17 
REMARK    3  A    between atoms: C_19  and  O_24 
REMARK    4  A    between atoms: O_24  and  C_25 
REMARK    5  A    between atoms: C_28  and  N_32 
REMARK       I    between atoms: N_32  and  C_33 
REMARK    6  A    between atoms: C_33  and  C_35 
REMARK    7  A    between atoms: C_35  and  C_38 
REMARK       I    between atoms: C_38  and  N_40 
REMARK    8  A    between atoms: N_40  and  C_41 
ROOT
HETATM    1  C   UNK N   1      32.361  16.898   8.472  0.00  0.00     0.079 A 
HETATM    2  C   UNK N   1      31.938  15.594   8.266  0.00  0.00     0.040 A 
HETATM    3  C   UNK N   1      32.786  14.548   8.603  0.00  0.00     0.035 A 
HETATM    4  C   UNK N   1      34.062  14.799   9.153  0.00  0.00     0.073 A 
HETATM    5  C   UNK N   1      34.510  16.106   9.298  0.00  0.00     0.145 A 
HETATM    6  C   UNK N   1      33.663  17.144   8.967  0.00  0.00     0.081 A 
HETATM    7  F   UNK N   1      35.717  16.378   9.853  0.00  0.00    -0.204 F 
ENDROOT
BRANCH   1   8
HETATM    8  O   UNK N   1      31.525  17.930   8.224  0.00  0.00    -0.311 OA
BRANCH   8   9
HETATM    9  C   UNK N   1      30.213  17.664   8.196  0.00  0.00     0.081 A 
HETATM   10  C   UNK N   1      29.575  17.719   6.973  0.00  0.00     0.086 A 
HETATM   11  C   UNK N   1      28.204  17.675   6.915  0.00  0.00     0.111 A 
HETATM   12  N   UNK N   1      27.471  17.575   8.061  0.00  0.00    -0.352 N 
HETATM   13  C   UNK N   1      28.076  17.529   9.283  0.00  0.00     0.092 A 
ATOM     14  HN  UNK N   1      26.454  17.535   8.004  1.00  0.00     0.166 HD
HETATM   15  C   UNK N   1      29.471  17.574   9.374  0.00  0.00     0.054 A 
BRANCH  11  16
HETATM   16  N   UNK N   1      27.619  17.652   5.636  0.00  0.00    -0.294 N 
HETATM   17  C   UNK N   1      26.814  18.617   5.141  0.00  0.00     0.323 C 
HETATM   18  N   UNK N   1      26.089  18.345   4.027  0.00  0.00    -0.334 N 
HETATM   19  O   UNK N   1      26.626  19.650   5.765  0.00  0.00    -0.247 OA
HETATM   20  C   UNK N   1      26.195  17.050   3.380  0.00  0.00     0.129 C 
HETATM   21  C   UNK N   1      24.925  19.145   3.732  0.00  0.00     0.129 C 
HETATM   22  C   UNK N   1      24.910  16.239   3.613  0.00  0.00     0.056 C 
HETATM   23  C   UNK N   1      24.032  16.920   4.670  0.00  0.00     0.226 C 
HETATM   24  C   UNK N   1      23.690  18.382   4.258  0.00  0.00     0.056 C 
HETATM   25  H   UNK N   1      27.810  16.878   5.061  0.00  0.00     0.172 HD
BRANCH  23  26
HETATM   26  N   UNK N   1      22.877  16.098   5.037  0.00  0.00     0.096 N 
HETATM   27  C   UNK N   1      23.127  15.479   6.348  0.00  0.00     0.303 C 
HETATM   28  C   UNK N   1      21.851  15.370   7.177  0.00  0.00     0.302 C 
HETATM   29  N   UNK N   1      21.306  16.706   7.438  0.00  0.00     0.087 N 
HETATM   30  C   UNK N   1      19.932  16.536   7.871  0.00  0.00     0.310 C 
HETATM   31  C   UNK N   1      21.288  17.581   6.255  0.00  0.00     0.302 C 
HETATM   32  C   UNK N   1      21.611  16.848   4.945  0.00  0.00     0.303 C 
ENDBRANCH  23  26
ENDBRANCH  11  16
ENDBRANCH   8   9
ENDBRANCH   1   8
BRANCH   4  33
HETATM   33  N   UNK N   1      34.829  13.737   9.684  0.00  0.00    -0.323 N 
HETATM   34  C   UNK N   1      34.853  13.526  11.025  0.00  0.00     0.240 C 
HETATM   35  O   UNK N   1      34.277  14.301  11.781  0.00  0.00    -0.272 OA
HETATM   36  H   UNK N   1      35.345  13.152   9.083  0.00  0.00     0.169 HD
BRANCH  34  37
HETATM   37  C   UNK N   1      35.621  12.397  11.624  0.00  0.00     0.122 A 
HETATM   38  C   UNK N   1      34.713  11.631  12.579  0.00  0.00     0.031 A 
HETATM   39  C   UNK N   1      35.223  10.954  11.337  0.00  0.00     0.031 A 
BRANCH  37  40
HETATM   40  C   UNK N   1      36.872  12.816  12.370  0.00  0.00     0.240 C 
HETATM   41  O   UNK N   1      36.780  13.059  13.565  0.00  0.00    -0.272 OA
HETATM   42  N   UNK N   1      38.038  13.108  11.737  0.00  0.00    -0.326 N 
HETATM   43  H   UNK N   1      38.748  13.533  12.270  0.00  0.00     0.169 HD
BRANCH  42  44
HETATM   44  C   UNK N   1      38.312  12.848  10.374  0.00  0.00     0.034 A 
HETATM   45  C   UNK N   1      38.516  11.531   9.948  0.00  0.00     0.032 A 
HETATM   46  C   UNK N   1      38.748  11.261   8.596  0.00  0.00     0.044 A 
HETATM   47  C   UNK N   1      38.750  12.306   7.665  0.00  0.00     0.116 A 
HETATM   48  C   UNK N   1      38.518  13.616   8.085  0.00  0.00     0.044 A 
HETATM   49  F   UNK N   1      38.971  12.048   6.355  0.00  0.00    -0.206 F 
HETATM   50  C   UNK N   1      38.295  13.884   9.435  0.00  0.00     0.032 A 
ENDBRANCH  42  44
ENDBRANCH  37  40
ENDBRANCH  34  37
ENDBRANCH   4  33
TORSDOF 8
ENDMDL
MODEL 7
REMARK VINA RESULT:      -8.0      2.237      4.066
REMARK  8 active torsions:
REMARK  status: ('A' for Active; 'I' for Inactive)
REMARK    1  A    between atoms: N_5  and  C_8 
REMARK       I    between atoms: N_11  and  C_14 
REMARK       I    between atoms: C_14  and  N_16 
REMARK    2  A    between atoms: N_16  and  C_17 
REMARK    3  A    between atoms: C_19  and  O_24 
REMARK    4  A    between atoms: O_24  and  C_25 
REMARK    5  A    between atoms: C_28  and  N_32 
REMARK       I    between atoms: N_32  and  C_33 
REMARK    6  A    between atoms: C_33  and  C_35 
REMARK    7  A    between atoms: C_35  and  C_38 
REMARK       I    between atoms: C_38  and  N_40 
REMARK    8  A    between atoms: N_40  and  C_41 
ROOT
HETATM    1  C   UNK N   1      30.921  23.232  -2.890  0.00  0.00     0.079 A 
HETATM    2  C   UNK N   1      29.541  23.232  -2.750  0.00  0.00     0.040 A 
HETATM    3  C   UNK N   1      28.803  24.250  -3.338  0.00  0.00     0.035 A 
HETATM    4  C   UNK N   1      29.439  25.273  -4.073  0.00  0.00     0.073 A 
HETATM    5  C   UNK N   1      30.825  25.309  -4.157  0.00  0.00     0.145 A 
HETATM    6  C   UNK N   1      31.557  24.293  -3.576  0.00  0.00     0.081 A 
HETATM    7  F   UNK N   1      31.462  26.262  -4.883  0.00  0.00    -0.204 F 
ENDROOT
BRANCH   1   8
HETATM    8  O   UNK N   1      31.653  22.212  -2.392  0.00  0.00    -0.311 OA
BRANCH   8   9
HETATM    9  C   UNK N   1      32.307  21.441  -3.270  0.00  0.00     0.081 A 
HETATM   10  C   UNK N   1      31.619  21.021  -4.390  0.00  0.00     0.086 A 
HETATM   11  C   UNK N   1      32.161  20.058  -5.204  0.00  0.00     0.111 A 
HETATM   12  N   UNK N   1      33.378  19.515  -4.910  0.00  0.00    -0.352 N 
HETATM   13  C   UNK N   1      34.074  19.904  -3.803  0.00  0.00     0.092 A 
ATOM     14  HN  UNK N   1      33.773  18.806  -5.526  1.00  0.00     0.166 HD
HETATM   15  C   UNK N   1      33.547  20.882  -2.954  0.00  0.00     0.054 A 
BRANCH  11  16
HETATM   16  N   UNK N   1      31.449  19.734  -6.373  0.00  0.00    -0.294 N 
HETATM   17  C   UNK N   1      32.002  19.600  -7.598  0.00  0.00     0.323 C 
HETATM   18  N   UNK N   1      31.181  19.574  -8.678  0.00  0.00    -0.334 N 
HETATM   19  O   UNK N   1      33.213  19.656  -7.743  0.00  0.00    -0.247 OA
HETATM   20  C   UNK N   1      29.743  19.672  -8.509  0.00  0.00     0.129 C 
HETATM   21  C   UNK N   1      31.722  19.875  -9.981  0.00  0.00     0.129 C 
HETATM   22  C   UNK N   1      29.249  21.045  -8.994  0.00  0.00     0.056 C 
HETATM   23  C   UNK N   1      30.437  21.982  -9.246  0.00  0.00     0.226 C 
HETATM   24  C   UNK N   1      31.430  21.363 -10.273  0.00  0.00     0.056 C 
HETATM   25  H   UNK N   1      30.479  19.594  -6.293  0.00  0.00     0.172 HD
BRANCH  23  26
HETATM   26  N   UNK N   1      30.004  23.346  -9.554  0.00  0.00     0.096 N 
HETATM   27  C   UNK N   1      29.268  23.887  -8.401  0.00  0.00     0.303 C 
HETATM   28  C   UNK N   1      29.524  25.379  -8.213  0.00  0.00     0.302 C 
HETATM   29  N   UNK N   1      30.948  25.616  -7.953  0.00  0.00     0.087 N 
HETATM   30  C   UNK N   1      31.198  27.028  -8.170  0.00  0.00     0.310 C 
HETATM   31  C   UNK N   1      31.846  24.869  -8.849  0.00  0.00     0.302 C 
HETATM   32  C   UNK N   1      31.120  24.190 -10.019  0.00  0.00     0.303 C 
ENDBRANCH  23  26
ENDBRANCH  11  16
ENDBRANCH   8   9
ENDBRANCH   1   8
BRANCH   4  33
HETATM   33  N   UNK N   1      28.672  26.181  -4.838  0.00  0.00    -0.323 N 
HETATM   34  C   UNK N   1      28.474  27.447  -4.387  0.00  0.00     0.240 C 
HETATM   35  O   UNK N   1      28.889  27.777  -3.281  0.00  0.00    -0.272 OA
HETATM   36  H   UNK N   1      28.282  25.897  -5.697  0.00  0.00     0.169 HD
BRANCH  34  37
HETATM   37  C   UNK N   1      27.700  28.445  -5.178  0.00  0.00     0.122 A 
HETATM   38  C   UNK N   1      28.377  29.805  -5.057  0.00  0.00     0.031 A 
HETATM   39  C   UNK N   1      28.325  29.119  -6.394  0.00  0.00     0.031 A 
BRANCH  37  40
HETATM   40  C   UNK N   1      26.248  28.585  -4.765  0.00  0.00     0.240 C 
HETATM   41  O   UNK N   1      25.935  29.532  -4.059  0.00  0.00    -0.272 OA
HETATM   42  N   UNK N   1      25.327  27.612  -4.991  0.00  0.00    -0.326 N 
HETATM   43  H   UNK N   1      24.454  27.703  -4.545  0.00  0.00     0.169 HD
BRANCH  42  44
HETATM   44  C   UNK N   1      25.523  26.481  -5.816  0.00  0.00     0.034 A 
HETATM   45  C   UNK N   1      25.529  25.202  -5.248  0.00  0.00     0.032 A 
HETATM   46  C   UNK N   1      25.684  24.075  -6.060  0.00  0.00     0.044 A 
HETATM   47  C   UNK N   1      25.805  24.224  -7.447  0.00  0.00     0.116 A 
HETATM   48  C   UNK N   1      25.770  25.497  -8.018  0.00  0.00     0.044 A 
HETATM   49  F   UNK N   1      25.950  23.136  -8.237  0.00  0.00    -0.206 F 
HETATM   50  C   UNK N   1      25.624  26.620  -7.204  0.00  0.00     0.032 A 
ENDBRANCH  42  44
ENDBRANCH  37  40
ENDBRANCH  34  37
ENDBRANCH   4  33
TORSDOF 8
ENDMDL
MODEL 8
REMARK VINA RESULT:      -8.0     15.434     19.227
REMARK  8 active torsions:
REMARK  status: ('A' for Active; 'I' for Inactive)
REMARK    1  A    between atoms: N_5  and  C_8 
REMARK       I    between atoms: N_11  and  C_14 
REMARK       I    between atoms: C_14  and  N_16 
REMARK    2  A    between atoms: N_16  and  C_17 
REMARK    3  A    between atoms: C_19  and  O_24 
REMARK    4  A    between atoms: O_24  and  C_25 
REMARK    5  A    between atoms: C_28  and  N_32 
REMARK       I    between atoms: N_32  and  C_33 
REMARK    6  A    between atoms: C_33  and  C_35 
REMARK    7  A    between atoms: C_35  and  C_38 
REMARK       I    between atoms: C_38  and  N_40 
REMARK    8  A    between atoms: N_40  and  C_41 
ROOT
HETATM    1  C   UNK N   1      33.728  16.640   8.501  0.00  0.00     0.079 A 
HETATM    2  C   UNK N   1      32.522  16.580   9.183  0.00  0.00     0.040 A 
HETATM    3  C   UNK N   1      31.346  16.851   8.497  0.00  0.00     0.035 A 
HETATM    4  C   UNK N   1      31.366  17.179   7.125  0.00  0.00     0.073 A 
HETATM    5  C   UNK N   1      32.580  17.301   6.459  0.00  0.00     0.145 A 
HETATM    6  C   UNK N   1      33.747  17.027   7.141  0.00  0.00     0.081 A 
HETATM    7  F   UNK N   1      32.629  17.583   5.133  0.00  0.00    -0.204 F 
ENDROOT
BRANCH   1   8
HETATM    8  O   UNK N   1      34.878  16.306   9.127  0.00  0.00    -0.311 OA
BRANCH   8   9
HETATM    9  C   UNK N   1      35.068  15.012   9.413  0.00  0.00     0.081 A 
HETATM   10  C   UNK N   1      34.757  14.585  10.688  0.00  0.00     0.086 A 
HETATM   11  C   UNK N   1      35.136  13.332  11.101  0.00  0.00     0.111 A 
HETATM   12  N   UNK N   1      35.818  12.507  10.255  0.00  0.00    -0.352 N 
HETATM   13  C   UNK N   1      36.147  12.908   8.993  0.00  0.00     0.092 A 
ATOM     14  HN  UNK N   1      36.087  11.576  10.571  1.00  0.00     0.166 HD
HETATM   15  C   UNK N   1      35.776  14.179   8.544  0.00  0.00     0.054 A 
BRANCH  11  16
HETATM   16  N   UNK N   1      34.718  12.927  12.381  0.00  0.00    -0.294 N 
HETATM   17  C   UNK N   1      35.348  13.243  13.533  0.00  0.00     0.323 C 
HETATM   18  N   UNK N   1      35.018  12.561  14.659  0.00  0.00    -0.334 N 
HETATM   19  O   UNK N   1      36.296  14.013  13.531  0.00  0.00    -0.247 OA
HETATM   20  C   UNK N   1      33.999  11.529  14.619  0.00  0.00     0.129 C 
HETATM   21  C   UNK N   1      35.940  12.547  15.768  0.00  0.00     0.129 C 
HETATM   22  C   UNK N   1      34.649  10.142  14.762  0.00  0.00     0.056 C 
HETATM   23  C   UNK N   1      36.173  10.250  14.628  0.00  0.00     0.226 C 
HETATM   24  C   UNK N   1      36.759  11.241  15.676  0.00  0.00     0.056 C 
HETATM   25  H   UNK N   1      33.906  12.374  12.442  0.00  0.00     0.172 HD
BRANCH  23  26
HETATM   26  N   UNK N   1      36.816   8.935  14.599  0.00  0.00     0.096 N 
HETATM   27  C   UNK N   1      35.874   7.930  15.116  0.00  0.00     0.303 C 
HETATM   28  C   UNK N   1      36.014   6.595  14.392  0.00  0.00     0.302 C 
HETATM   29  N   UNK N   1      35.711   6.762  12.967  0.00  0.00     0.087 N 
HETATM   30  C   UNK N   1      36.225   5.595  12.276  0.00  0.00     0.310 C 
HETATM   31  C   UNK N   1      36.343   7.945  12.362  0.00  0.00     0.302 C 
HETATM   32  C   UNK N   1      37.378   8.622  13.272  0.00  0.00     0.303 C 
ENDBRANCH  23  26
ENDBRANCH  11  16
ENDBRANCH   8   9
ENDBRANCH   1   8
BRANCH   4  33
HETATM   33  N   UNK N   1      30.160  17.246   6.391  0.00  0.00    -0.323 N 
HETATM   34  C   UNK N   1      29.620  16.113   5.873  0.00  0.00     0.240 C 
HETATM   35  O   UNK N   1      30.217  15.047   5.970  0.00  0.00    -0.272 OA
HETATM   36  H   UNK N   1      29.713  18.113   6.256  0.00  0.00     0.169 HD
BRANCH  34  37
HETATM   37  C   UNK N   1      28.333  16.135   5.122  0.00  0.00     0.122 A 
HETATM   38  C   UNK N   1      27.741  14.731   5.112  0.00  0.00     0.031 A 
HETATM   39  C   UNK N   1      27.018  15.834   5.834  0.00  0.00     0.031 A 
BRANCH  37  40
HETATM   40  C   UNK N   1      28.448  16.627   3.693  0.00  0.00     0.240 C 
HETATM   41  O   UNK N   1      28.945  15.880   2.862  0.00  0.00    -0.272 OA
HETATM   42  N   UNK N   1      28.193  17.913   3.340  0.00  0.00    -0.326 N 
HETATM   43  H   UNK N   1      28.454  18.194   2.432  0.00  0.00     0.169 HD
BRANCH  42  44
HETATM   44  C   UNK N   1      27.584  18.881   4.172  0.00  0.00     0.034 A 
HETATM   45  C   UNK N   1      28.383  19.782   4.885  0.00  0.00     0.032 A 
HETATM   46  C   UNK N   1      27.789  20.767   5.679  0.00  0.00     0.044 A 
HETATM   47  C   UNK N   1      26.395  20.870   5.740  0.00  0.00     0.116 A 
HETATM   48  C   UNK N   1      25.597  19.991   5.005  0.00  0.00     0.044 A 
HETATM   49  F   UNK N   1      25.816  21.825   6.504  0.00  0.00    -0.206 F 
HETATM   50  C   UNK N   1      26.192  19.003   4.221  0.00  0.00     0.032 A 
ENDBRANCH  42  44
ENDBRANCH  37  40
ENDBRANCH  34  37
ENDBRANCH   4  33
TORSDOF 8
ENDMDL
MODEL 9
REMARK VINA RESULT:      -7.9     14.059     18.414
REMARK  8 active torsions:
REMARK  status: ('A' for Active; 'I' for Inactive)
REMARK    1  A    between atoms: N_5  and  C_8 
REMARK       I    between atoms: N_11  and  C_14 
REMARK       I    between atoms: C_14  and  N_16 
REMARK    2  A    between atoms: N_16  and  C_17 
REMARK    3  A    between atoms: C_19  and  O_24 
REMARK    4  A    between atoms: O_24  and  C_25 
REMARK    5  A    between atoms: C_28  and  N_32 
REMARK       I    between atoms: N_32  and  C_33 
REMARK    6  A    between atoms: C_33  and  C_35 
REMARK    7  A    between atoms: C_35  and  C_38 
REMARK       I    between atoms: C_38  and  N_40 
REMARK    8  A    between atoms: N_40  and  C_41 
ROOT
HETATM    1  C   UNK N   1      32.523  16.920   8.453  0.00  0.00     0.079 A 
HETATM    2  C   UNK N   1      32.290  15.897   9.361  0.00  0.00     0.040 A 
HETATM    3  C   UNK N   1      33.153  14.811   9.389  0.00  0.00     0.035 A 
HETATM    4  C   UNK N   1      34.257  14.741   8.513  0.00  0.00     0.073 A 
HETATM    5  C   UNK N   1      34.452  15.733   7.561  0.00  0.00     0.145 A 
HETATM    6  C   UNK N   1      33.595  16.815   7.537  0.00  0.00     0.081 A 
HETATM    7  F   UNK N   1      35.522  15.708   6.727  0.00  0.00    -0.204 F 
ENDROOT
BRANCH   1   8
HETATM    8  O   UNK N   1      31.742  18.022   8.459  0.00  0.00    -0.311 OA
BRANCH   8   9
HETATM    9  C   UNK N   1      30.421  17.840   8.345  0.00  0.00     0.081 A 
HETATM   10  C   UNK N   1      29.929  17.473   7.109  0.00  0.00     0.086 A 
HETATM   11  C   UNK N   1      28.576  17.489   6.878  0.00  0.00     0.111 A 
HETATM   12  N   UNK N   1      27.716  17.864   7.869  0.00  0.00    -0.352 N 
HETATM   13  C   UNK N   1      28.175  18.241   9.097  0.00  0.00     0.092 A 
ATOM     14  HN  UNK N   1      26.712  17.864   7.688  1.00  0.00     0.166 HD
HETATM   15  C   UNK N   1      29.549  18.237   9.360  0.00  0.00     0.054 A 
BRANCH  11  16
HETATM   16  N   UNK N   1      28.135  17.025   5.626  0.00  0.00    -0.294 N 
HETATM   17  C   UNK N   1      27.463  15.871   5.426  0.00  0.00     0.323 C 
HETATM   18  N   UNK N   1      27.351  15.400   4.158  0.00  0.00    -0.334 N 
HETATM   19  O   UNK N   1      27.101  15.190   6.374  0.00  0.00    -0.247 OA
HETATM   20  C   UNK N   1      27.929  16.135   3.049  0.00  0.00     0.129 C 
HETATM   21  C   UNK N   1      27.051  14.004   3.950  0.00  0.00     0.129 C 
HETATM   22  C   UNK N   1      29.163  15.392   2.511  0.00  0.00     0.056 C 
HETATM   23  C   UNK N   1      29.566  14.264   3.468  0.00  0.00     0.226 C 
HETATM   24  C   UNK N   1      28.387  13.273   3.696  0.00  0.00     0.056 C 
HETATM   25  H   UNK N   1      28.329  17.582   4.839  0.00  0.00     0.172 HD
BRANCH  23  26
HETATM   26  N   UNK N   1      30.829  13.636   3.075  0.00  0.00     0.096 N 
HETATM   27  C   UNK N   1      31.877  14.667   3.007  0.00  0.00     0.303 C 
HETATM   28  C   UNK N   1      33.230  14.132   3.462  0.00  0.00     0.302 C 
HETATM   29  N   UNK N   1      33.155  13.698   4.861  0.00  0.00     0.087 N 
HETATM   30  C   UNK N   1      34.311  12.861   5.118  0.00  0.00     0.310 C 
HETATM   31  C   UNK N   1      31.958  12.900   5.171  0.00  0.00     0.302 C 
HETATM   32  C   UNK N   1      31.163  12.479   3.927  0.00  0.00     0.303 C 
ENDBRANCH  23  26
ENDBRANCH  11  16
ENDBRANCH   8   9
ENDBRANCH   1   8
BRANCH   4  33
HETATM   33  N   UNK N   1      35.243  13.743   8.689  0.00  0.00    -0.323 N 
HETATM   34  C   UNK N   1      36.236  13.926   9.596  0.00  0.00     0.240 C 
HETATM   35  O   UNK N   1      36.327  14.987  10.203  0.00  0.00    -0.272 OA
HETATM   36  H   UNK N   1      35.209  12.916   8.154  0.00  0.00     0.169 HD
BRANCH  34  37
HETATM   37  C   UNK N   1      37.275  12.885   9.837  0.00  0.00     0.122 A 
HETATM   38  C   UNK N   1      38.305  12.942   8.715  0.00  0.00     0.031 A 
HETATM   39  C   UNK N   1      38.719  13.284  10.120  0.00  0.00     0.031 A 
BRANCH  37  40
HETATM   40  C   UNK N   1      36.736  11.471   9.932  0.00  0.00     0.240 C 
HETATM   41  O   UNK N   1      36.632  10.820   8.902  0.00  0.00    -0.272 OA
HETATM   42  N   UNK N   1      36.198  10.969  11.074  0.00  0.00    -0.326 N 
HETATM   43  H   UNK N   1      35.718  10.111  11.010  0.00  0.00     0.169 HD
BRANCH  42  44
HETATM   44  C   UNK N   1      36.272  11.580  12.347  0.00  0.00     0.034 A 
HETATM   45  C   UNK N   1      37.366  11.317  13.179  0.00  0.00     0.032 A 
HETATM   46  C   UNK N   1      37.468  11.947  14.423  0.00  0.00     0.044 A 
HETATM   47  C   UNK N   1      36.488  12.862  14.824  0.00  0.00     0.116 A 
HETATM   48  C   UNK N   1      35.412  13.148  13.983  0.00  0.00     0.044 A 
HETATM   49  F   UNK N   1      36.584  13.477  16.025  0.00  0.00    -0.206 F 
HETATM   50  C   UNK N   1      35.308  12.511  12.747  0.00  0.00     0.032 A 
ENDBRANCH  42  44
ENDBRANCH  37  40
ENDBRANCH  34  37
ENDBRANCH   4  33
TORSDOF 8
ENDMDL
