REMARK  15 active torsions:
REMARK  status: ('A' for Active; 'I' for Inactive)
REMARK    1  A    between atoms: C_3  and  C_4 
REMARK    2  A    between atoms: C_4  and  C_5 
REMARK    3  A    between atoms: C_5  and  C_7 
REMARK    4  A    between atoms: C_9  and  C_7 
REMARK    5  A    between atoms: C_13  and  C_84 
REMARK    6  A    between atoms: C_21  and  C_78 
REMARK    7  A    between atoms: C_25  and  C_75 
REMARK    8  A    between atoms: C_29  and  C_70 
REMARK    9  A    between atoms: C_41  and  C_63 
REMARK   10  A    between atoms: C_45  and  C_58 
REMARK   11  A    between atoms: C_49  and  C_54 
REMARK   12  A    between atoms: C_58  and  C_59 
REMARK   13  A    between atoms: C_63  and  C_64 
REMARK   14  A    between atoms: C_70  and  C_71 
REMARK   15  A    between atoms: C_78  and  C_79 
ROOT
HETATM    1  C   UNK N   1       2.990   0.680  -1.559  0.00  0.00     0.249 C 
HETATM    2  C   UNK N   1       2.158   1.491  -0.622  0.00  0.00     0.248 C 
HETATM    3  O   UNK N   1       2.534   1.676   0.521  0.00  0.00    -0.271 OA
HETATM    4  N   UNK N   1       0.989   2.027  -1.056  0.00  0.00    -0.345 N 
HETATM    5  C   UNK N   1       0.146   2.901  -0.248  0.00  0.00     0.180 C 
HETATM    6  C   UNK N   1       0.146   2.487   1.229  0.00  0.00     0.243 C 
HETATM    7  O   UNK N   1       0.484   3.293   2.085  0.00  0.00    -0.271 OA
HETATM    8  N   UNK N   1      -0.147   1.203   1.588  0.00  0.00    -0.346 N 
HETATM    9  C   UNK N   1      -0.542   0.240   0.597  0.00  0.00     0.228 C 
HETATM   10  C   UNK N   1      -2.001   0.410   0.302  0.00  0.00     0.238 C 
HETATM   11  O   UNK N   1      -2.408   1.498  -0.078  0.00  0.00    -0.272 OA
HETATM   12  N   UNK N   1      -2.853  -0.637   0.466  0.00  0.00    -0.342 N 
HETATM   13  C   UNK N   1      -4.308  -0.492   0.257  0.00  0.00     0.179 C 
HETATM   14  C   UNK N   1      -5.013  -1.830   0.239  0.00  0.00     0.241 C 
HETATM   15  O   UNK N   1      -5.645  -2.184  -0.747  0.00  0.00    -0.271 OA
HETATM   16  N   UNK N   1      -4.820  -2.684   1.271  0.00  0.00    -0.346 N 
HETATM   17  C   UNK N   1      -5.064  -4.101   1.179  0.00  0.00     0.180 C 
HETATM   18  C   UNK N   1      -4.593  -4.759  -0.096  0.00  0.00     0.243 C 
HETATM   19  O   UNK N   1      -5.408  -4.941  -0.987  0.00  0.00    -0.271 OA
HETATM   20  N   UNK N   1      -3.304  -5.219  -0.202  0.00  0.00    -0.341 N 
HETATM   21  C   UNK N   1      -2.858  -6.243  -1.164  0.00  0.00     0.179 C 
HETATM   22  C   UNK N   1      -2.498  -7.466  -0.357  0.00  0.00     0.241 C 
HETATM   23  O   UNK N   1      -2.851  -7.501   0.814  0.00  0.00    -0.271 OA
HETATM   24  N   UNK N   1      -1.894  -8.548  -0.919  0.00  0.00    -0.346 N 
HETATM   25  C   UNK N   1      -1.823  -9.828  -0.226  0.00  0.00     0.172 C 
HETATM   26  C   UNK N   1      -1.579  -9.700   1.267  0.00  0.00     0.240 C 
HETATM   27  O   UNK N   1      -2.523  -9.878   2.020  0.00  0.00    -0.271 OA
HETATM   28  N   UNK N   1      -0.405  -9.266   1.782  0.00  0.00    -0.346 N 
HETATM   29  C   UNK N   1       0.827  -9.343   1.054  0.00  0.00     0.172 C 
HETATM   30  C   UNK N   1       1.441  -8.246   0.238  0.00  0.00     0.242 C 
HETATM   31  O   UNK N   1       1.515  -8.411  -0.969  0.00  0.00    -0.271 OA
HETATM   32  N   UNK N   1       2.142  -7.248   0.849  0.00  0.00    -0.341 N 
HETATM   33  C   UNK N   1       3.400  -6.772   0.291  0.00  0.00     0.179 C 
HETATM   34  C   UNK N   1       3.506  -6.131  -1.087  0.00  0.00     0.243 C 
HETATM   35  O   UNK N   1       2.620  -6.296  -1.906  0.00  0.00    -0.271 OA
HETATM   36  N   UNK N   1       4.587  -5.341  -1.400  0.00  0.00    -0.341 N 
HETATM   37  C   UNK N   1       5.664  -5.060  -0.461  0.00  0.00     0.179 C 
HETATM   38  C   UNK N   1       5.183  -4.527   0.896  0.00  0.00     0.243 C 
HETATM   39  O   UNK N   1       5.372  -5.175   1.908  0.00  0.00    -0.271 OA
HETATM   40  N   UNK N   1       4.546  -3.319   0.950  0.00  0.00    -0.341 N 
HETATM   41  C   UNK N   1       4.533  -2.496  -0.245  0.00  0.00     0.182 C 
HETATM   42  C   UNK N   1       3.843  -1.165  -0.181  0.00  0.00     0.243 C 
HETATM   43  O   UNK N   1       4.109  -0.402   0.736  0.00  0.00    -0.271 OA
HETATM   44  N   UNK N   1       3.134  -0.731  -1.264  0.00  0.00    -0.335 N 
HETATM   45  C   UNK N   1       2.791  -1.655  -2.323  0.00  0.00     0.154 C 
HETATM   46  C   UNK N   1       4.002  -2.846   2.211  0.00  0.00     0.153 C 
HETATM   47  C   UNK N   1       4.661  -4.724  -2.707  0.00  0.00     0.153 C 
HETATM   48  C   UNK N   1       1.940  -6.992   2.256  0.00  0.00     0.153 C 
HETATM   49  C   UNK N   1       1.431 -10.729   0.945  0.00  0.00     0.042 C 
HETATM   50  C   UNK N   1      -0.950 -10.822  -0.966  0.00  0.00     0.042 C 
HETATM   51  C   UNK N   1      -2.336  -4.816   0.799  0.00  0.00     0.153 C 
HETATM   52  C   UNK N   1      -2.281  -1.887   0.920  0.00  0.00     0.153 C 
HETATM   53  C   UNK N   1      -0.019   0.767   2.957  0.00  0.00     0.153 C 
HETATM   54  H   UNK N   1       0.693   1.812  -1.970  0.00  0.00     0.163 HD
HETATM   55  H   UNK N   1      -4.497  -2.319   2.126  0.00  0.00     0.163 HD
HETATM   56  H   UNK N   1      -1.495  -8.464  -1.815  0.00  0.00     0.163 HD
HETATM   57  H   UNK N   1      -0.397  -8.883   2.690  0.00  0.00     0.163 HD
ENDROOT
BRANCH   1  58
HETATM   58  C   UNK N   1       4.310   1.271  -2.036  0.00  0.00     0.163 C 
HETATM   59  O   UNK N   1       4.540   1.197  -3.232  0.00  0.00    -0.295 OA
BRANCH  58  60
HETATM   60  C   UNK N   1       5.397   1.886  -1.157  0.00  0.00     0.057 C 
HETATM   61  C   UNK N   1       6.697   1.117  -1.261  0.00  0.00     0.018 C 
BRANCH  60  62
HETATM   62  C   UNK N   1       5.113   2.151   0.310  0.00  0.00     0.038 C 
BRANCH  62  63
HETATM   63  C   UNK N   1       5.072   3.617   0.589  0.00  0.00    -0.030 C 
HETATM   64  C   UNK N   1       4.131   4.389   0.050  0.00  0.00    -0.035 C 
HETATM   65  C   UNK N   1       4.118   5.850   0.332  0.00  0.00     0.036 C 
ENDBRANCH  62  63
ENDBRANCH  60  62
ENDBRANCH  58  60
ENDBRANCH   1  58
BRANCH   5  66
HETATM   66  C   UNK N   1       0.552   4.362  -0.490  0.00  0.00     0.009 C 
HETATM   67  C   UNK N   1      -0.430   5.316   0.163  0.00  0.00     0.012 C 
HETATM   68  C   UNK N   1       0.602   4.676  -1.976  0.00  0.00     0.012 C 
ENDBRANCH   5  66
BRANCH  41  69
HETATM   69  C   UNK N   1       5.996  -2.281  -0.695  0.00  0.00     0.009 C 
HETATM   70  C   UNK N   1       6.184  -1.800  -2.119  0.00  0.00     0.012 C 
HETATM   71  C   UNK N   1       6.907  -1.613   0.325  0.00  0.00     0.012 C 
ENDBRANCH  41  69
BRANCH  37  72
HETATM   72  C   UNK N   1       6.808  -6.071  -0.513  0.00  0.00     0.039 C 
BRANCH  72  73
HETATM   73  C   UNK N   1       8.202  -5.457  -0.371  0.00  0.00    -0.020 C 
HETATM   74  C   UNK N   1       8.489  -4.425  -1.449  0.00  0.00     0.009 C 
HETATM   75  C   UNK N   1       8.440  -4.876   1.008  0.00  0.00     0.009 C 
ENDBRANCH  72  73
ENDBRANCH  37  72
BRANCH  13  76
HETATM   76  C   UNK N   1      -4.609   0.289  -1.037  0.00  0.00     0.039 C 
BRANCH  76  77
HETATM   77  C   UNK N   1      -5.807   1.230  -0.915  0.00  0.00    -0.020 C 
HETATM   78  C   UNK N   1      -7.122   0.490  -1.033  0.00  0.00     0.009 C 
HETATM   79  C   UNK N   1      -5.769   2.054   0.364  0.00  0.00     0.009 C 
ENDBRANCH  76  77
ENDBRANCH  13  76
BRANCH  33  80
HETATM   80  C   UNK N   1       4.591  -7.625   0.786  0.00  0.00     0.039 C 
BRANCH  80  81
HETATM   81  C   UNK N   1       4.919  -9.011   0.214  0.00  0.00    -0.020 C 
HETATM   82  C   UNK N   1       6.314  -9.028  -0.365  0.00  0.00     0.009 C 
HETATM   83  C   UNK N   1       3.964  -9.579  -0.803  0.00  0.00     0.009 C 
ENDBRANCH  80  81
ENDBRANCH  33  80
BRANCH  17  84
HETATM   84  C   UNK N   1      -6.340  -4.650   1.808  0.00  0.00     0.009 C 
HETATM   85  C   UNK N   1      -7.573  -4.271   1.013  0.00  0.00     0.012 C 
HETATM   86  C   UNK N   1      -6.479  -4.210   3.251  0.00  0.00     0.012 C 
ENDBRANCH  17  84
BRANCH  21  87
HETATM   87  C   UNK N   1      -3.893  -6.652  -2.252  0.00  0.00     0.039 C 
BRANCH  87  88
HETATM   88  C   UNK N   1      -4.986  -7.701  -1.895  0.00  0.00    -0.020 C 
HETATM   89  C   UNK N   1      -4.546  -9.114  -2.214  0.00  0.00     0.009 C 
HETATM   90  C   UNK N   1      -5.543  -7.651  -0.477  0.00  0.00     0.009 C 
ENDBRANCH  87  88
ENDBRANCH  21  87
TORSDOF 15
