MODEL 1
REMARK VINA RESULT:      -6.6      0.000      0.000
REMARK  3 active torsions:
REMARK  status: ('A' for Active; 'I' for Inactive)
REMARK    1  A    between atoms: C_8  and  C_6 
REMARK    2  A    between atoms: O_21  and  C_6 
REMARK    3  A    between atoms: O_21  and  C_11 
REMARK       I    between atoms: N_13  and  C_12 
ROOT
HETATM    1  C   UNK N   1      20.492  16.850   3.977  0.00  0.00     0.182 A 
HETATM    2  C   UNK N   1      21.427  18.628   3.273  0.00  0.00     0.130 A 
HETATM    3  C   UNK N   1      20.293  18.441   2.580  0.00  0.00     0.153 A 
HETATM    4  C   UNK N   1      22.219  19.734   3.027  0.00  0.00     0.188 A 
HETATM    5  C   UNK N   1      20.654  20.397   1.354  0.00  0.00     0.679 A 
HETATM    6  N   UNK N   1      20.300  21.222   0.447  0.00  0.00    -0.234 N 
ATOM      7  HN  UNK N   1      20.890  22.035   0.269  1.00  0.00     0.174 HD
HETATM    8  N   UNK N   1      21.584  17.642   4.165  0.00  0.00    -0.346 N 
ATOM      9  HN  UNK N   1      22.347  17.514   4.831  1.00  0.00     0.167 HD
HETATM   10  N   UNK N   1      19.677  17.328   2.997  0.00  0.00    -0.336 N 
HETATM   11  N   UNK N   1      19.879  19.297   1.617  0.00  0.00    -0.174 N 
HETATM   12  N   UNK N   1      21.811  20.614   2.064  0.00  0.00    -0.168 N 
ATOM     13  HN  UNK N   1      22.373  21.443   1.869  1.00  0.00     0.186 HD
HETATM   14  H   UNK N   1      19.482  21.108  -0.087  0.00  0.00     0.174 HD
HETATM   15  H   UNK N   1      18.831  16.944   2.672  0.00  0.00     0.168 HD
HETATM   16  H   UNK N   1      19.045  19.133   1.118  0.00  0.00     0.186 HD
ENDROOT
BRANCH   4  17
HETATM   17  O   UNK N   1      23.350  19.925   3.729  0.00  0.00    -0.329 OA
BRANCH  17  18
HETATM   18  C   UNK N   1      24.466  20.515   3.190  0.00  0.00     0.216 C 
BRANCH  18  19
HETATM   19  C   UNK N   1      25.662  19.761   3.668  0.00  0.00    -0.034 A 
HETATM   20  C   UNK N   1      25.735  18.369   3.499  0.00  0.00     0.009 A 
HETATM   21  C   UNK N   1      26.886  17.675   3.872  0.00  0.00     0.001 A 
HETATM   22  C   UNK N   1      27.968  18.368   4.420  0.00  0.00     0.000 A 
HETATM   23  C   UNK N   1      27.895  19.753   4.599  0.00  0.00     0.001 A 
HETATM   24  C   UNK N   1      26.746  20.451   4.217  0.00  0.00     0.009 A 
ENDBRANCH  18  19
ENDBRANCH  17  18
ENDBRANCH   4  17
TORSDOF 3
ENDMDL
MODEL 2
REMARK VINA RESULT:      -6.4     15.123     17.990
REMARK  3 active torsions:
REMARK  status: ('A' for Active; 'I' for Inactive)
REMARK    1  A    between atoms: C_8  and  C_6 
REMARK    2  A    between atoms: O_21  and  C_6 
REMARK    3  A    between atoms: O_21  and  C_11 
REMARK       I    between atoms: N_13  and  C_12 
ROOT
HETATM    1  C   UNK N   1      38.685  13.271  10.002  0.00  0.00     0.182 A 
HETATM    2  C   UNK N   1      37.083  13.560  11.373  0.00  0.00     0.130 A 
HETATM    3  C   UNK N   1      36.690  13.989  10.164  0.00  0.00     0.153 A 
HETATM    4  C   UNK N   1      36.215  13.614  12.447  0.00  0.00     0.188 A 
HETATM    5  C   UNK N   1      34.582  14.563  10.992  0.00  0.00     0.679 A 
HETATM    6  N   UNK N   1      33.412  15.044  10.818  0.00  0.00    -0.234 N 
ATOM      7  HN  UNK N   1      32.777  15.083  11.615  1.00  0.00     0.174 HD
HETATM    8  N   UNK N   1      38.339  13.100  11.308  0.00  0.00    -0.346 N 
ATOM      9  HN  UNK N   1      38.905  12.710  12.062  1.00  0.00     0.167 HD
HETATM   10  N   UNK N   1      37.676  13.822   9.274  0.00  0.00    -0.336 N 
HETATM   11  N   UNK N   1      35.457  14.497   9.937  0.00  0.00    -0.174 N 
HETATM   12  N   UNK N   1      34.961  14.115  12.235  0.00  0.00    -0.168 N 
ATOM     13  HN  UNK N   1      34.298  14.157  13.009  1.00  0.00     0.186 HD
HETATM   14  H   UNK N   1      33.097  15.378   9.948  0.00  0.00     0.174 HD
HETATM   15  H   UNK N   1      37.673  14.046   8.315  0.00  0.00     0.168 HD
HETATM   16  H   UNK N   1      35.195  14.811   9.042  0.00  0.00     0.186 HD
ENDROOT
BRANCH   4  17
HETATM   17  O   UNK N   1      36.607  13.174  13.656  0.00  0.00    -0.329 OA
BRANCH  17  18
HETATM   18  C   UNK N   1      36.467  13.923  14.798  0.00  0.00     0.216 C 
BRANCH  18  19
HETATM   19  C   UNK N   1      36.057  13.006  15.902  0.00  0.00    -0.034 A 
HETATM   20  C   UNK N   1      36.351  11.635  15.830  0.00  0.00     0.009 A 
HETATM   21  C   UNK N   1      36.039  10.792  16.898  0.00  0.00     0.001 A 
HETATM   22  C   UNK N   1      35.427  11.314  18.039  0.00  0.00     0.000 A 
HETATM   23  C   UNK N   1      35.124  12.678  18.111  0.00  0.00     0.001 A 
HETATM   24  C   UNK N   1      35.444  13.525  17.046  0.00  0.00     0.009 A 
ENDBRANCH  18  19
ENDBRANCH  17  18
ENDBRANCH   4  17
TORSDOF 3
ENDMDL
MODEL 3
REMARK VINA RESULT:      -6.2      6.235      8.515
REMARK  3 active torsions:
REMARK  status: ('A' for Active; 'I' for Inactive)
REMARK    1  A    between atoms: C_8  and  C_6 
REMARK    2  A    between atoms: O_21  and  C_6 
REMARK    3  A    between atoms: O_21  and  C_11 
REMARK       I    between atoms: N_13  and  C_12 
ROOT
HETATM    1  C   UNK N   1      28.346  18.122   9.110  0.00  0.00     0.182 A 
HETATM    2  C   UNK N   1      28.972  17.884   7.090  0.00  0.00     0.130 A 
HETATM    3  C   UNK N   1      28.040  18.848   7.135  0.00  0.00     0.153 A 
HETATM    4  C   UNK N   1      29.566  17.545   5.889  0.00  0.00     0.188 A 
HETATM    5  C   UNK N   1      28.205  19.193   4.830  0.00  0.00     0.679 A 
HETATM    6  N   UNK N   1      27.838  19.796   3.767  0.00  0.00    -0.234 N 
ATOM      7  HN  UNK N   1      28.279  19.541   2.883  1.00  0.00     0.174 HD
HETATM    8  N   UNK N   1      29.191  17.403   8.320  0.00  0.00    -0.346 N 
ATOM      9  HN  UNK N   1      29.841  16.668   8.600  1.00  0.00     0.167 HD
HETATM   10  N   UNK N   1      27.622  19.025   8.394  0.00  0.00    -0.336 N 
HETATM   11  N   UNK N   1      27.630  19.517   6.032  0.00  0.00    -0.174 N 
HETATM   12  N   UNK N   1      29.172  18.218   4.765  0.00  0.00    -0.168 N 
ATOM     13  HN  UNK N   1      29.602  17.994   3.868  1.00  0.00     0.186 HD
HETATM   14  H   UNK N   1      27.149  20.499   3.764  0.00  0.00     0.174 HD
HETATM   15  H   UNK N   1      26.947  19.660   8.727  0.00  0.00     0.168 HD
HETATM   16  H   UNK N   1      26.940  20.216   6.092  0.00  0.00     0.186 HD
ENDROOT
BRANCH   4  17
HETATM   17  O   UNK N   1      30.508  16.587   5.847  0.00  0.00    -0.329 OA
BRANCH  17  18
HETATM   18  C   UNK N   1      31.801  16.834   5.456  0.00  0.00     0.216 C 
BRANCH  18  19
HETATM   19  C   UNK N   1      32.650  16.884   6.681  0.00  0.00    -0.034 A 
HETATM   20  C   UNK N   1      33.623  17.886   6.828  0.00  0.00     0.009 A 
HETATM   21  C   UNK N   1      34.362  17.981   8.008  0.00  0.00     0.001 A 
HETATM   22  C   UNK N   1      34.137  17.072   9.044  0.00  0.00     0.000 A 
HETATM   23  C   UNK N   1      33.176  16.066   8.898  0.00  0.00     0.001 A 
HETATM   24  C   UNK N   1      32.428  15.976   7.720  0.00  0.00     0.009 A 
ENDBRANCH  18  19
ENDBRANCH  17  18
ENDBRANCH   4  17
TORSDOF 3
ENDMDL
MODEL 4
REMARK VINA RESULT:      -6.0     16.607     18.447
REMARK  3 active torsions:
REMARK  status: ('A' for Active; 'I' for Inactive)
REMARK    1  A    between atoms: C_8  and  C_6 
REMARK    2  A    between atoms: O_21  and  C_6 
REMARK    3  A    between atoms: O_21  and  C_11 
REMARK       I    between atoms: N_13  and  C_12 
ROOT
HETATM    1  C   UNK N   1      33.750  10.094  11.325  0.00  0.00     0.182 A 
HETATM    2  C   UNK N   1      34.971  11.524  12.322  0.00  0.00     0.130 A 
HETATM    3  C   UNK N   1      35.474  11.317  11.095  0.00  0.00     0.153 A 
HETATM    4  C   UNK N   1      35.568  12.432  13.175  0.00  0.00     0.188 A 
HETATM    5  C   UNK N   1      37.183  12.865  11.474  0.00  0.00     0.679 A 
HETATM    6  N   UNK N   1      38.227  13.487  11.084  0.00  0.00    -0.234 N 
ATOM      7  HN  UNK N   1      38.663  14.155  11.719  1.00  0.00     0.174 HD
HETATM    8  N   UNK N   1      33.881  10.767  12.501  0.00  0.00    -0.346 N 
ATOM      9  HN  UNK N   1      33.287  10.708  13.328  1.00  0.00     0.167 HD
HETATM   10  N   UNK N   1      34.729  10.421  10.437  0.00  0.00    -0.336 N 
HETATM   11  N   UNK N   1      36.573  11.963  10.641  0.00  0.00    -0.174 N 
HETATM   12  N   UNK N   1      36.674  13.101  12.730  0.00  0.00    -0.168 N 
ATOM     13  HN  UNK N   1      37.128  13.784  13.337  1.00  0.00     0.186 HD
HETATM   14  H   UNK N   1      38.628  13.350  10.196  0.00  0.00     0.174 HD
HETATM   15  H   UNK N   1      34.858  10.077   9.524  0.00  0.00     0.168 HD
HETATM   16  H   UNK N   1      36.926  11.789   9.738  0.00  0.00     0.186 HD
ENDROOT
BRANCH   4  17
HETATM   17  O   UNK N   1      35.057  12.645  14.401  0.00  0.00    -0.329 OA
BRANCH  17  18
HETATM   18  C   UNK N   1      35.658  13.467  15.322  0.00  0.00     0.216 C 
BRANCH  18  19
HETATM   19  C   UNK N   1      35.503  12.841  16.667  0.00  0.00    -0.034 A 
HETATM   20  C   UNK N   1      35.729  11.466  16.839  0.00  0.00     0.009 A 
HETATM   21  C   UNK N   1      35.663  10.896  18.111  0.00  0.00     0.001 A 
HETATM   22  C   UNK N   1      35.365  11.697  19.217  0.00  0.00     0.000 A 
HETATM   23  C   UNK N   1      35.129  13.065  19.048  0.00  0.00     0.001 A 
HETATM   24  C   UNK N   1      35.205  13.639  17.775  0.00  0.00     0.009 A 
ENDBRANCH  18  19
ENDBRANCH  17  18
ENDBRANCH   4  17
TORSDOF 3
ENDMDL
MODEL 5
REMARK VINA RESULT:      -6.0     15.363     17.609
REMARK  3 active torsions:
REMARK  status: ('A' for Active; 'I' for Inactive)
REMARK    1  A    between atoms: C_8  and  C_6 
REMARK    2  A    between atoms: O_21  and  C_6 
REMARK    3  A    between atoms: O_21  and  C_11 
REMARK       I    between atoms: N_13  and  C_12 
ROOT
HETATM    1  C   UNK N   1      35.577  11.431  10.286  0.00  0.00     0.182 A 
HETATM    2  C   UNK N   1      35.936  13.131  11.516  0.00  0.00     0.130 A 
HETATM    3  C   UNK N   1      35.391  13.548  10.363  0.00  0.00     0.153 A 
HETATM    4  C   UNK N   1      36.247  14.041  12.508  0.00  0.00     0.188 A 
HETATM    5  C   UNK N   1      35.440  15.771  11.080  0.00  0.00     0.679 A 
HETATM    6  N   UNK N   1      35.220  17.011  10.873  0.00  0.00    -0.234 N 
ATOM      7  HN  UNK N   1      35.453  17.678  11.609  1.00  0.00     0.174 HD
HETATM    8  N   UNK N   1      36.068  11.798  11.502  0.00  0.00    -0.346 N 
ATOM      9  HN  UNK N   1      36.448  11.197  12.234  1.00  0.00     0.167 HD
HETATM   10  N   UNK N   1      35.151  12.502   9.562  0.00  0.00    -0.336 N 
HETATM   11  N   UNK N   1      35.134  14.852  10.109  0.00  0.00    -0.174 N 
HETATM   12  N   UNK N   1      35.985  15.362  12.274  0.00  0.00    -0.168 N 
ATOM     13  HN  UNK N   1      36.197  16.053  12.994  1.00  0.00     0.186 HD
HETATM   14  H   UNK N   1      34.833  17.351  10.035  0.00  0.00     0.174 HD
HETATM   15  H   UNK N   1      34.759  12.506   8.659  0.00  0.00     0.168 HD
HETATM   16  H   UNK N   1      34.739  15.133   9.252  0.00  0.00     0.186 HD
ENDROOT
BRANCH   4  17
HETATM   17  O   UNK N   1      36.784  13.620  13.667  0.00  0.00    -0.329 OA
BRANCH  17  18
HETATM   18  C   UNK N   1      36.607  14.290  14.852  0.00  0.00     0.216 C 
BRANCH  18  19
HETATM   19  C   UNK N   1      36.206  13.294  15.889  0.00  0.00    -0.034 A 
HETATM   20  C   UNK N   1      35.520  13.709  17.041  0.00  0.00     0.009 A 
HETATM   21  C   UNK N   1      35.074  12.769  17.972  0.00  0.00     0.001 A 
HETATM   22  C   UNK N   1      35.318  11.411  17.758  0.00  0.00     0.000 A 
HETATM   23  C   UNK N   1      36.011  10.994  16.616  0.00  0.00     0.001 A 
HETATM   24  C   UNK N   1      36.449  11.934  15.678  0.00  0.00     0.009 A 
ENDBRANCH  18  19
ENDBRANCH  17  18
ENDBRANCH   4  17
TORSDOF 3
ENDMDL
MODEL 6
REMARK VINA RESULT:      -5.9     15.880     18.561
REMARK  3 active torsions:
REMARK  status: ('A' for Active; 'I' for Inactive)
REMARK    1  A    between atoms: C_8  and  C_6 
REMARK    2  A    between atoms: O_21  and  C_6 
REMARK    3  A    between atoms: O_21  and  C_11 
REMARK       I    between atoms: N_13  and  C_12 
ROOT
HETATM    1  C   UNK N   1      36.916  14.428  15.760  0.00  0.00     0.182 A 
HETATM    2  C   UNK N   1      35.686  13.613  14.225  0.00  0.00     0.130 A 
HETATM    3  C   UNK N   1      36.414  14.611  13.702  0.00  0.00     0.153 A 
HETATM    4  C   UNK N   1      34.814  12.895  13.429  0.00  0.00     0.188 A 
HETATM    5  C   UNK N   1      35.466  14.271  11.593  0.00  0.00     0.679 A 
HETATM    6  N   UNK N   1      35.352  14.585  10.361  0.00  0.00    -0.234 N 
ATOM      7  HN  UNK N   1      34.706  14.052   9.779  1.00  0.00     0.174 HD
HETATM    8  N   UNK N   1      35.978  13.469  15.524  0.00  0.00    -0.346 N 
ATOM      9  HN  UNK N   1      35.587  12.797  16.185  1.00  0.00     0.167 HD
HETATM   10  N   UNK N   1      37.202  15.149  14.641  0.00  0.00    -0.336 N 
HETATM   11  N   UNK N   1      36.329  14.969  12.399  0.00  0.00    -0.174 N 
HETATM   12  N   UNK N   1      34.722  13.235  12.108  0.00  0.00    -0.168 N 
ATOM     13  HN  UNK N   1      34.093  12.715  11.497  1.00  0.00     0.186 HD
HETATM   14  H   UNK N   1      35.862  15.318   9.949  0.00  0.00     0.174 HD
HETATM   15  H   UNK N   1      37.840  15.892  14.546  0.00  0.00     0.168 HD
HETATM   16  H   UNK N   1      36.870  15.709  12.041  0.00  0.00     0.186 HD
ENDROOT
BRANCH   4  17
HETATM   17  O   UNK N   1      34.093  11.889  13.953  0.00  0.00    -0.329 OA
BRANCH  17  18
HETATM   18  C   UNK N   1      34.253  10.581  13.565  0.00  0.00     0.216 C 
BRANCH  18  19
HETATM   19  C   UNK N   1      34.818   9.824  14.720  0.00  0.00    -0.034 A 
HETATM   20  C   UNK N   1      34.537  10.226  16.036  0.00  0.00     0.009 A 
HETATM   21  C   UNK N   1      34.997   9.471  17.116  0.00  0.00     0.001 A 
HETATM   22  C   UNK N   1      35.746   8.315  16.885  0.00  0.00     0.000 A 
HETATM   23  C   UNK N   1      36.037   7.916  15.576  0.00  0.00     0.001 A 
HETATM   24  C   UNK N   1      35.567   8.666  14.494  0.00  0.00     0.009 A 
ENDBRANCH  18  19
ENDBRANCH  17  18
ENDBRANCH   4  17
TORSDOF 3
ENDMDL
MODEL 7
REMARK VINA RESULT:      -5.9     13.874     15.905
REMARK  3 active torsions:
REMARK  status: ('A' for Active; 'I' for Inactive)
REMARK    1  A    between atoms: C_8  and  C_6 
REMARK    2  A    between atoms: O_21  and  C_6 
REMARK    3  A    between atoms: O_21  and  C_11 
REMARK       I    between atoms: N_13  and  C_12 
ROOT
HETATM    1  C   UNK N   1      33.973  12.127   8.882  0.00  0.00     0.182 A 
HETATM    2  C   UNK N   1      34.332  13.745  10.217  0.00  0.00     0.130 A 
HETATM    3  C   UNK N   1      34.331  14.221   8.963  0.00  0.00     0.153 A 
HETATM    4  C   UNK N   1      34.521  14.600  11.287  0.00  0.00     0.188 A 
HETATM    5  C   UNK N   1      34.716  16.395   9.728  0.00  0.00     0.679 A 
HETATM    6  N   UNK N   1      34.908  17.636   9.502  0.00  0.00    -0.234 N 
ATOM      7  HN  UNK N   1      35.048  18.262  10.295  1.00  0.00     0.174 HD
HETATM    8  N   UNK N   1      34.109  12.425  10.204  0.00  0.00    -0.346 N 
ATOM      9  HN  UNK N   1      34.053  11.790  11.001  1.00  0.00     0.167 HD
HETATM   10  N   UNK N   1      34.108  13.228   8.094  0.00  0.00    -0.336 N 
HETATM   11  N   UNK N   1      34.523  15.531   8.681  0.00  0.00    -0.174 N 
HETATM   12  N   UNK N   1      34.706  15.929  11.022  0.00  0.00    -0.168 N 
ATOM     13  HN  UNK N   1      34.838  16.582  11.794  1.00  0.00     0.186 HD
HETATM   14  H   UNK N   1      34.926  18.016   8.594  0.00  0.00     0.174 HD
HETATM   15  H   UNK N   1      34.054  13.281   7.112  0.00  0.00     0.168 HD
HETATM   16  H   UNK N   1      34.523  15.854   7.751  0.00  0.00     0.186 HD
ENDROOT
BRANCH   4  17
HETATM   17  O   UNK N   1      34.511  14.123  12.544  0.00  0.00    -0.329 OA
BRANCH  17  18
HETATM   18  C   UNK N   1      35.646  13.680  13.177  0.00  0.00     0.216 C 
BRANCH  18  19
HETATM   19  C   UNK N   1      35.243  12.644  14.172  0.00  0.00    -0.034 A 
HETATM   20  C   UNK N   1      34.384  11.598  13.797  0.00  0.00     0.009 A 
HETATM   21  C   UNK N   1      34.072  10.585  14.705  0.00  0.00     0.001 A 
HETATM   22  C   UNK N   1      34.612  10.615  15.993  0.00  0.00     0.000 A 
HETATM   23  C   UNK N   1      35.459  11.661  16.373  0.00  0.00     0.001 A 
HETATM   24  C   UNK N   1      35.781  12.672  15.462  0.00  0.00     0.009 A 
ENDBRANCH  18  19
ENDBRANCH  17  18
ENDBRANCH   4  17
TORSDOF 3
ENDMDL
MODEL 8
REMARK VINA RESULT:      -5.9      6.980      9.825
REMARK  3 active torsions:
REMARK  status: ('A' for Active; 'I' for Inactive)
REMARK    1  A    between atoms: C_8  and  C_6 
REMARK    2  A    between atoms: O_21  and  C_6 
REMARK    3  A    between atoms: O_21  and  C_11 
REMARK       I    between atoms: N_13  and  C_12 
ROOT
HETATM    1  C   UNK N   1      32.091  17.252   3.639  0.00  0.00     0.182 A 
HETATM    2  C   UNK N   1      31.405  17.251   5.653  0.00  0.00     0.130 A 
HETATM    3  C   UNK N   1      32.740  17.381   5.660  0.00  0.00     0.153 A 
HETATM    4  C   UNK N   1      30.699  17.246   6.842  0.00  0.00     0.188 A 
HETATM    5  C   UNK N   1      32.774  17.491   7.994  0.00  0.00     0.679 A 
HETATM    6  N   UNK N   1      33.414  17.590   9.093  0.00  0.00    -0.234 N 
ATOM      7  HN  UNK N   1      32.888  17.584   9.967  1.00  0.00     0.174 HD
HETATM    8  N   UNK N   1      30.961  17.167   4.393  0.00  0.00    -0.346 N 
ATOM      9  HN  UNK N   1      29.998  17.064   4.072  1.00  0.00     0.167 HD
HETATM   10  N   UNK N   1      33.208  17.385   4.406  0.00  0.00    -0.336 N 
HETATM   11  N   UNK N   1      33.455  17.498   6.803  0.00  0.00    -0.174 N 
HETATM   12  N   UNK N   1      31.404  17.374   8.007  0.00  0.00    -0.168 N 
ATOM     13  HN  UNK N   1      30.906  17.382   8.898  1.00  0.00     0.186 HD
HETATM   14  H   UNK N   1      34.394  17.674   9.133  0.00  0.00     0.174 HD
HETATM   15  H   UNK N   1      34.143  17.464   4.107  0.00  0.00     0.168 HD
HETATM   16  H   UNK N   1      34.435  17.586   6.781  0.00  0.00     0.186 HD
ENDROOT
BRANCH   4  17
HETATM   17  O   UNK N   1      29.360  17.127   6.833  0.00  0.00    -0.329 OA
BRANCH  17  18
HETATM   18  C   UNK N   1      28.532  18.030   7.453  0.00  0.00     0.216 C 
BRANCH  18  19
HETATM   19  C   UNK N   1      27.913  18.886   6.400  0.00  0.00    -0.034 A 
HETATM   20  C   UNK N   1      27.627  20.236   6.663  0.00  0.00     0.009 A 
HETATM   21  C   UNK N   1      27.123  21.057   5.653  0.00  0.00     0.001 A 
HETATM   22  C   UNK N   1      26.898  20.533   4.378  0.00  0.00     0.000 A 
HETATM   23  C   UNK N   1      27.173  19.187   4.115  0.00  0.00     0.001 A 
HETATM   24  C   UNK N   1      27.686  18.365   5.123  0.00  0.00     0.009 A 
ENDBRANCH  18  19
ENDBRANCH  17  18
ENDBRANCH   4  17
TORSDOF 3
ENDMDL
MODEL 9
REMARK VINA RESULT:      -5.8     12.787     15.587
REMARK  3 active torsions:
REMARK  status: ('A' for Active; 'I' for Inactive)
REMARK    1  A    between atoms: C_8  and  C_6 
REMARK    2  A    between atoms: O_21  and  C_6 
REMARK    3  A    between atoms: O_21  and  C_11 
REMARK       I    between atoms: N_13  and  C_12 
ROOT
HETATM    1  C   UNK N   1      34.190  11.583  11.083  0.00  0.00     0.182 A 
HETATM    2  C   UNK N   1      35.192  13.399  11.562  0.00  0.00     0.130 A 
HETATM    3  C   UNK N   1      35.207  12.607  12.645  0.00  0.00     0.153 A 
HETATM    4  C   UNK N   1      35.802  14.638  11.596  0.00  0.00     0.188 A 
HETATM    5  C   UNK N   1      36.403  14.203  13.863  0.00  0.00     0.679 A 
HETATM    6  N   UNK N   1      36.960  14.587  14.945  0.00  0.00    -0.234 N 
ATOM      7  HN  UNK N   1      37.407  15.504  14.965  1.00  0.00     0.174 HD
HETATM    8  N   UNK N   1      34.557  12.783  10.556  0.00  0.00    -0.346 N 
ATOM      9  HN  UNK N   1      34.388  13.134   9.612  1.00  0.00     0.167 HD
HETATM   10  N   UNK N   1      34.583  11.452  12.380  0.00  0.00    -0.336 N 
HETATM   11  N   UNK N   1      35.795  12.974  13.807  0.00  0.00    -0.174 N 
HETATM   12  N   UNK N   1      36.411  15.022  12.759  0.00  0.00    -0.168 N 
ATOM     13  HN  UNK N   1      36.876  15.928  12.808  1.00  0.00     0.186 HD
HETATM   14  H   UNK N   1      36.979  14.036  15.760  0.00  0.00     0.174 HD
HETATM   15  H   UNK N   1      34.441  10.687  12.982  0.00  0.00     0.168 HD
HETATM   16  H   UNK N   1      35.787  12.377  14.590  0.00  0.00     0.186 HD
ENDROOT
BRANCH   4  17
HETATM   17  O   UNK N   1      35.795  15.426  10.507  0.00  0.00    -0.329 OA
BRANCH  17  18
HETATM   18  C   UNK N   1      35.249  16.686  10.507  0.00  0.00     0.216 C 
BRANCH  18  19
HETATM   19  C   UNK N   1      34.362  16.803   9.313  0.00  0.00    -0.034 A 
HETATM   20  C   UNK N   1      33.319  15.885   9.113  0.00  0.00     0.009 A 
HETATM   21  C   UNK N   1      32.440  16.041   8.041  0.00  0.00     0.001 A 
HETATM   22  C   UNK N   1      32.602  17.113   7.160  0.00  0.00     0.000 A 
HETATM   23  C   UNK N   1      33.646  18.025   7.350  0.00  0.00     0.001 A 
HETATM   24  C   UNK N   1      34.522  17.874   8.430  0.00  0.00     0.009 A 
ENDBRANCH  18  19
ENDBRANCH  17  18
ENDBRANCH   4  17
TORSDOF 3
ENDMDL
