REMARK  10 active torsions:
REMARK  status: ('A' for Active; 'I' for Inactive)
REMARK    1  A    between atoms: C_3  and  C_2 
REMARK    2  A    between atoms: C_5  and  C_2 
REMARK    3  A    between atoms: C_6  and  C_3 
REMARK    4  A    between atoms: C_7  and  C_4 
REMARK    5  A    between atoms: C_4  and  N_9 
REMARK    6  A    between atoms: C_8  and  C_5 
REMARK    7  A    between atoms: C_5  and  N_12 
REMARK    8  A    between atoms: O_14  and  C_6 
REMARK    9  A    between atoms: C_7  and  O_15 
REMARK   10  A    between atoms: O_17  and  C_8 
ROOT
HETATM    1  C   UNK N   1       3.413   2.480   0.613  0.00  0.00     0.181 C 
ENDROOT
BRANCH   1   2
HETATM    2  C   UNK N   1       1.941   2.803   0.897  0.00  0.00     0.044 C 
BRANCH   2   3
HETATM    3  C   UNK N   1       1.142   3.234  -0.328  0.00  0.00     0.086 C 
BRANCH   3   4
HETATM    4  C   UNK N   1      -0.271   2.760  -0.191  0.00  0.00     0.108 C 
HETATM    5  N   UNK N   1      -0.527   1.505  -0.119  0.00  0.00    -0.384 N 
HETATM    6  H   UNK N   1      -1.459   1.193  -0.064  0.00  0.00     0.157 HD
ATOM      7  HN  UNK N   1       0.237   0.829  -0.119  1.00  0.00     0.157 HD
BRANCH   4   8
HETATM    8  O   UNK N   1      -1.279   3.650  -0.149  0.00  0.00    -0.350 OA
HETATM    9  H   UNK N   1      -1.093   4.568  -0.121  0.00  0.00     0.219 HD
ENDBRANCH   4   8
ENDBRANCH   3   4
ENDBRANCH   2   3
ENDBRANCH   1   2
BRANCH   1  10
HETATM   10  C   UNK N   1       3.571   1.346  -0.389  0.00  0.00     0.163 C 
HETATM   11  O   UNK N   1       4.680   0.923  -0.667  0.00  0.00    -0.648 OA
BRANCH  10  12
HETATM   12  O   UNK N   1       2.490   0.762  -0.946  0.00  0.00    -0.775 OA
HETATM   13  H   UNK N   1       1.764   1.210  -1.334  0.00  0.00     0.167 HD
ENDBRANCH  10  12
ENDBRANCH   1  10
BRANCH   1  14
HETATM   14  N   UNK N   1       4.114   3.692   0.210  0.00  0.00    -0.358 N 
HETATM   15  C   UNK N   1       5.404   3.804   0.200  0.00  0.00     0.134 C 
ATOM     16  HN  UNK N   1       3.558   4.496  -0.081  1.00  0.00     0.162 HD
BRANCH  15  17
HETATM   17  C   UNK N   1       6.065   5.110  -0.163  0.00  0.00     0.145 C 
HETATM   18  C   UNK N   1       6.994   4.922  -1.347  0.00  0.00     0.040 C 
BRANCH  17  19
HETATM   19  N   UNK N   1       5.084   6.135  -0.484  0.00  0.00    -0.420 N 
HETATM   20  H   UNK N   1       5.362   7.090  -0.708  0.00  0.00     0.150 HD
HETATM   21  H   UNK N   1       4.093   5.892  -0.484  0.00  0.00     0.150 HD
ENDBRANCH  17  19
ENDBRANCH  15  17
BRANCH  15  22
HETATM   22  O   UNK N   1       6.188   2.767   0.569  0.00  0.00    -0.348 OA
HETATM   23  H   UNK N   1       5.837   1.937   0.824  0.00  0.00     0.219 HD
ENDBRANCH  15  22
ENDBRANCH   1  14
TORSDOF 10
