MODEL 1
REMARK VINA RESULT:      -8.2      0.000      0.000
REMARK  2 active torsions:
REMARK  status: ('A' for Active; 'I' for Inactive)
REMARK    1  A    between atoms: C_6  and  C_7 
REMARK    2  A    between atoms: C_15  and  C_20 
ROOT
HETATM    1  C   UNK N   1      34.034  16.425   5.611  0.00  0.00     0.014 A 
HETATM    2  C   UNK N   1      33.308  16.131   4.456  0.00  0.00     0.031 A 
HETATM    3  C   UNK N   1      31.938  16.402   4.395  0.00  0.00     0.043 A 
HETATM    4  C   UNK N   1      31.274  16.978   5.506  0.00  0.00     0.003 A 
HETATM    5  C   UNK N   1      32.027  17.265   6.658  0.00  0.00     0.026 A 
HETATM    6  C   UNK N   1      33.403  16.994   6.722  0.00  0.00    -0.034 A 
HETATM    7  C   UNK N   1      29.873  17.244   5.414  0.00  0.00    -0.012 A 
HETATM    8  C   UNK N   1      29.222  16.917   4.215  0.00  0.00     0.030 A 
HETATM    9  C   UNK N   1      29.922  16.352   3.152  0.00  0.00     0.089 A 
HETATM   10  N   UNK N   1      31.251  16.108   3.261  0.00  0.00    -0.365 N 
ATOM     11  HN  UNK N   1      31.747  15.694   2.471  1.00  0.00     0.165 HD
ENDROOT
BRANCH   6  12
HETATM   12  C   UNK N   1      34.224  17.286   7.925  0.00  0.00     0.036 C 
HETATM   13  C   UNK N   1      34.325  16.547   9.050  0.00  0.00     0.079 A 
HETATM   14  C   UNK N   1      35.164  16.925  10.180  0.00  0.00     0.266 A 
HETATM   15  S   UNK N   1      33.474  14.997   9.378  0.00  0.00    -0.024 SA
HETATM   16  O   UNK N   1      35.849  17.937  10.214  0.00  0.00    -0.267 OA
HETATM   17  N   UNK N   1      35.128  16.060  11.202  0.00  0.00    -0.283 N 
HETATM   18  C   UNK N   1      34.315  15.013  10.966  0.00  0.00     0.291 A 
HETATM   19  H   UNK N   1      35.641  16.178  12.035  0.00  0.00     0.172 HD
HETATM   20  O   UNK N   1      34.161  14.127  11.789  0.00  0.00    -0.260 OA
ENDBRANCH   6  12
BRANCH   7  21
HETATM   21  C   UNK N   1      29.047  17.850   6.514  0.00  0.00    -0.022 A 
HETATM   22  C   UNK N   1      28.937  17.255   7.773  0.00  0.00     0.029 A 
HETATM   23  C   UNK N   1      28.162  17.843   8.774  0.00  0.00     0.088 A 
HETATM   24  N   UNK N   1      27.504  19.004   8.530  0.00  0.00    -0.375 N 
HETATM   25  C   UNK N   1      27.584  19.616   7.319  0.00  0.00     0.088 A 
ATOM     26  HN  UNK N   1      26.940  19.426   9.267  1.00  0.00     0.164 HD
HETATM   27  C   UNK N   1      28.353  19.052   6.295  0.00  0.00     0.029 A 
ENDBRANCH   7  21
TORSDOF 2
ENDMDL
MODEL 2
REMARK VINA RESULT:      -7.8      1.409      1.996
REMARK  2 active torsions:
REMARK  status: ('A' for Active; 'I' for Inactive)
REMARK    1  A    between atoms: C_6  and  C_7 
REMARK    2  A    between atoms: C_15  and  C_20 
ROOT
HETATM    1  C   UNK N   1      32.997  15.959   4.898  0.00  0.00     0.014 A 
HETATM    2  C   UNK N   1      32.161  15.318   3.981  0.00  0.00     0.031 A 
HETATM    3  C   UNK N   1      30.852  15.767   3.786  0.00  0.00     0.043 A 
HETATM    4  C   UNK N   1      30.361  16.877   4.517  0.00  0.00     0.003 A 
HETATM    5  C   UNK N   1      31.222  17.505   5.433  0.00  0.00     0.026 A 
HETATM    6  C   UNK N   1      32.537  17.056   5.632  0.00  0.00    -0.034 A 
HETATM    7  C   UNK N   1      29.019  17.313   4.295  0.00  0.00    -0.012 A 
HETATM    8  C   UNK N   1      28.249  16.612   3.356  0.00  0.00     0.030 A 
HETATM    9  C   UNK N   1      28.780  15.526   2.664  0.00  0.00     0.089 A 
HETATM   10  N   UNK N   1      30.056  15.129   2.889  0.00  0.00    -0.365 N 
ATOM     11  HN  UNK N   1      30.427  14.332   2.372  1.00  0.00     0.165 HD
ENDROOT
BRANCH   6  12
HETATM   12  C   UNK N   1      33.469  17.699   6.594  0.00  0.00     0.036 C 
HETATM   13  C   UNK N   1      33.858  17.232   7.798  0.00  0.00     0.079 A 
HETATM   14  C   UNK N   1      34.782  17.946   8.670  0.00  0.00     0.266 A 
HETATM   15  S   UNK N   1      33.335  15.686   8.553  0.00  0.00    -0.024 SA
HETATM   16  O   UNK N   1      35.288  19.024   8.395  0.00  0.00    -0.267 OA
HETATM   17  N   UNK N   1      35.044  17.316   9.824  0.00  0.00    -0.283 N 
HETATM   18  C   UNK N   1      34.388  16.145   9.934  0.00  0.00     0.291 A 
HETATM   19  H   UNK N   1      35.648  17.672  10.515  0.00  0.00     0.172 HD
HETATM   20  O   UNK N   1      34.508  15.438  10.920  0.00  0.00    -0.260 OA
ENDBRANCH   6  12
BRANCH   7  21
HETATM   21  C   UNK N   1      28.373  18.474   5.000  0.00  0.00    -0.022 A 
HETATM   22  C   UNK N   1      27.853  19.568   4.304  0.00  0.00     0.029 A 
HETATM   23  C   UNK N   1      27.259  20.629   4.988  0.00  0.00     0.088 A 
HETATM   24  N   UNK N   1      27.181  20.608   6.342  0.00  0.00    -0.375 N 
HETATM   25  C   UNK N   1      27.674  19.563   7.057  0.00  0.00     0.088 A 
ATOM     26  HN  UNK N   1      26.745  21.388   6.832  1.00  0.00     0.164 HD
HETATM   27  C   UNK N   1      28.276  18.483   6.402  0.00  0.00     0.029 A 
ENDBRANCH   7  21
TORSDOF 2
ENDMDL
MODEL 3
REMARK VINA RESULT:      -7.6      4.261      7.740
REMARK  2 active torsions:
REMARK  status: ('A' for Active; 'I' for Inactive)
REMARK    1  A    between atoms: C_6  and  C_7 
REMARK    2  A    between atoms: C_15  and  C_20 
ROOT
HETATM    1  C   UNK N   1      29.314  17.986   8.374  0.00  0.00     0.014 A 
HETATM    2  C   UNK N   1      30.527  18.189   9.036  0.00  0.00     0.031 A 
HETATM    3  C   UNK N   1      31.736  17.893   8.401  0.00  0.00     0.043 A 
HETATM    4  C   UNK N   1      31.742  17.383   7.079  0.00  0.00     0.003 A 
HETATM    5  C   UNK N   1      30.509  17.187   6.434  0.00  0.00     0.026 A 
HETATM    6  C   UNK N   1      29.293  17.484   7.069  0.00  0.00    -0.034 A 
HETATM    7  C   UNK N   1      32.994  17.090   6.456  0.00  0.00    -0.012 A 
HETATM    8  C   UNK N   1      34.164  17.325   7.194  0.00  0.00     0.030 A 
HETATM    9  C   UNK N   1      34.102  17.828   8.491  0.00  0.00     0.089 A 
HETATM   10  N   UNK N   1      32.904  18.099   9.064  0.00  0.00    -0.365 N 
ATOM     11  HN  UNK N   1      32.879  18.467  10.014  1.00  0.00     0.165 HD
ENDROOT
BRANCH   6  12
HETATM   12  C   UNK N   1      27.975  17.287   6.413  0.00  0.00     0.036 C 
HETATM   13  C   UNK N   1      27.391  18.078   5.489  0.00  0.00     0.079 A 
HETATM   14  C   UNK N   1      26.086  17.793   4.904  0.00  0.00     0.266 A 
HETATM   15  S   UNK N   1      28.076  19.596   4.810  0.00  0.00    -0.024 SA
HETATM   16  O   UNK N   1      25.405  16.820   5.193  0.00  0.00    -0.267 OA
HETATM   17  N   UNK N   1      25.679  18.699   4.005  0.00  0.00    -0.283 N 
HETATM   18  C   UNK N   1      26.573  19.692   3.831  0.00  0.00     0.291 A 
HETATM   19  H   UNK N   1      24.821  18.644   3.525  0.00  0.00     0.172 HD
HETATM   20  O   UNK N   1      26.367  20.605   3.048  0.00  0.00    -0.260 OA
ENDBRANCH   6  12
BRANCH   7  21
HETATM   21  C   UNK N   1      33.146  16.546   5.062  0.00  0.00    -0.022 A 
HETATM   22  C   UNK N   1      32.760  17.277   3.936  0.00  0.00     0.029 A 
HETATM   23  C   UNK N   1      32.914  16.744   2.655  0.00  0.00     0.088 A 
HETATM   24  N   UNK N   1      33.442  15.505   2.493  0.00  0.00    -0.375 N 
HETATM   25  C   UNK N   1      33.830  14.761   3.563  0.00  0.00     0.088 A 
ATOM     26  HN  UNK N   1      33.551  15.125   1.553  1.00  0.00     0.164 HD
HETATM   27  C   UNK N   1      33.689  15.266   4.859  0.00  0.00     0.029 A 
ENDBRANCH   7  21
TORSDOF 2
ENDMDL
MODEL 4
REMARK VINA RESULT:      -7.3      5.130      6.970
REMARK  2 active torsions:
REMARK  status: ('A' for Active; 'I' for Inactive)
REMARK    1  A    between atoms: C_6  and  C_7 
REMARK    2  A    between atoms: C_15  and  C_20 
ROOT
HETATM    1  C   UNK N   1      27.459  19.755   4.131  0.00  0.00     0.014 A 
HETATM    2  C   UNK N   1      26.443  20.494   3.522  0.00  0.00     0.031 A 
HETATM    3  C   UNK N   1      25.127  20.021   3.525  0.00  0.00     0.043 A 
HETATM    4  C   UNK N   1      24.814  18.787   4.147  0.00  0.00     0.003 A 
HETATM    5  C   UNK N   1      25.855  18.062   4.753  0.00  0.00     0.026 A 
HETATM    6  C   UNK N   1      27.177  18.535   4.752  0.00  0.00    -0.034 A 
HETATM    7  C   UNK N   1      23.461  18.329   4.135  0.00  0.00    -0.012 A 
HETATM    8  C   UNK N   1      22.503  19.134   3.500  0.00  0.00     0.030 A 
HETATM    9  C   UNK N   1      22.864  20.339   2.904  0.00  0.00     0.089 A 
HETATM   10  N   UNK N   1      24.154  20.755   2.927  0.00  0.00    -0.365 N 
ATOM     11  HN  UNK N   1      24.399  21.641   2.485  1.00  0.00     0.165 HD
ENDROOT
BRANCH   6  12
HETATM   12  C   UNK N   1      28.297  17.791   5.384  0.00  0.00     0.036 C 
HETATM   13  C   UNK N   1      28.772  17.934   6.638  0.00  0.00     0.079 A 
HETATM   14  C   UNK N   1      29.883  17.150   7.164  0.00  0.00     0.266 A 
HETATM   15  S   UNK N   1      28.158  19.080   7.880  0.00  0.00    -0.024 SA
HETATM   16  O   UNK N   1      30.482  16.297   6.525  0.00  0.00    -0.267 OA
HETATM   17  N   UNK N   1      30.206  17.439   8.432  0.00  0.00    -0.283 N 
HETATM   18  C   UNK N   1      29.427  18.405   8.956  0.00  0.00     0.291 A 
HETATM   19  H   UNK N   1      30.934  16.995   8.925  0.00  0.00     0.172 HD
HETATM   20  O   UNK N   1      29.581  18.795  10.102  0.00  0.00    -0.260 OA
ENDBRANCH   6  12
BRANCH   7  21
HETATM   21  C   UNK N   1      22.991  17.042   4.755  0.00  0.00    -0.022 A 
HETATM   22  C   UNK N   1      22.453  16.993   6.043  0.00  0.00     0.029 A 
HETATM   23  C   UNK N   1      22.026  15.784   6.591  0.00  0.00     0.088 A 
HETATM   24  N   UNK N   1      22.129  14.638   5.872  0.00  0.00    -0.375 N 
HETATM   25  C   UNK N   1      22.645  14.641   4.615  0.00  0.00     0.088 A 
ATOM     26  HN  UNK N   1      21.813  13.758   6.281  1.00  0.00     0.164 HD
HETATM   27  C   UNK N   1      23.083  15.838   4.037  0.00  0.00     0.029 A 
ENDBRANCH   7  21
TORSDOF 2
ENDMDL
MODEL 5
REMARK VINA RESULT:      -7.1     13.405     15.528
REMARK  2 active torsions:
REMARK  status: ('A' for Active; 'I' for Inactive)
REMARK    1  A    between atoms: C_6  and  C_7 
REMARK    2  A    between atoms: C_15  and  C_20 
ROOT
HETATM    1  C   UNK N   1      28.505  22.449  -6.310  0.00  0.00     0.014 A 
HETATM    2  C   UNK N   1      27.764  22.647  -7.476  0.00  0.00     0.031 A 
HETATM    3  C   UNK N   1      27.129  23.870  -7.711  0.00  0.00     0.043 A 
HETATM    4  C   UNK N   1      27.232  24.921  -6.766  0.00  0.00     0.003 A 
HETATM    5  C   UNK N   1      27.984  24.697  -5.600  0.00  0.00     0.026 A 
HETATM    6  C   UNK N   1      28.623  23.470  -5.361  0.00  0.00    -0.034 A 
HETATM    7  C   UNK N   1      26.573  26.159  -7.033  0.00  0.00    -0.012 A 
HETATM    8  C   UNK N   1      25.849  26.271  -8.230  0.00  0.00     0.030 A 
HETATM    9  C   UNK N   1      25.780  25.207  -9.125  0.00  0.00     0.089 A 
HETATM   10  N   UNK N   1      26.413  24.040  -8.852  0.00  0.00    -0.365 N 
ATOM     11  HN  UNK N   1      26.350  23.272  -9.520  1.00  0.00     0.165 HD
ENDROOT
BRANCH   6  12
HETATM   12  C   UNK N   1      29.424  23.205  -4.139  0.00  0.00     0.036 C 
HETATM   13  C   UNK N   1      30.476  22.369  -4.011  0.00  0.00     0.079 A 
HETATM   14  C   UNK N   1      31.197  22.180  -2.759  0.00  0.00     0.266 A 
HETATM   15  S   UNK N   1      31.183  21.351  -5.313  0.00  0.00    -0.024 SA
HETATM   16  O   UNK N   1      30.919  22.755  -1.716  0.00  0.00    -0.267 OA
HETATM   17  N   UNK N   1      32.212  21.309  -2.836  0.00  0.00    -0.283 N 
HETATM   18  C   UNK N   1      32.351  20.787  -4.070  0.00  0.00     0.291 A 
HETATM   19  H   UNK N   1      32.791  21.076  -2.075  0.00  0.00     0.172 HD
HETATM   20  O   UNK N   1      33.225  19.975  -4.324  0.00  0.00    -0.260 OA
ENDBRANCH   6  12
BRANCH   7  21
HETATM   21  C   UNK N   1      26.599  27.353  -6.119  0.00  0.00    -0.022 A 
HETATM   22  C   UNK N   1      27.493  28.411  -6.307  0.00  0.00     0.029 A 
HETATM   23  C   UNK N   1      27.493  29.505  -5.442  0.00  0.00     0.088 A 
HETATM   24  N   UNK N   1      26.620  29.552  -4.405  0.00  0.00    -0.375 N 
HETATM   25  C   UNK N   1      25.734  28.544  -4.186  0.00  0.00     0.088 A 
ATOM     26  HN  UNK N   1      26.627  30.356  -3.778  1.00  0.00     0.164 HD
HETATM   27  C   UNK N   1      25.708  27.433  -5.036  0.00  0.00     0.029 A 
ENDBRANCH   7  21
TORSDOF 2
ENDMDL
MODEL 6
REMARK VINA RESULT:      -7.1     13.425     15.887
REMARK  2 active torsions:
REMARK  status: ('A' for Active; 'I' for Inactive)
REMARK    1  A    between atoms: C_6  and  C_7 
REMARK    2  A    between atoms: C_15  and  C_20 
ROOT
HETATM    1  C   UNK N   1      25.565  28.069  -4.630  0.00  0.00     0.014 A 
HETATM    2  C   UNK N   1      25.125  27.097  -5.531  0.00  0.00     0.031 A 
HETATM    3  C   UNK N   1      25.780  25.865  -5.617  0.00  0.00     0.043 A 
HETATM    4  C   UNK N   1      26.897  25.591  -4.788  0.00  0.00     0.003 A 
HETATM    5  C   UNK N   1      27.320  26.585  -3.889  0.00  0.00     0.026 A 
HETATM    6  C   UNK N   1      26.664  27.824  -3.802  0.00  0.00    -0.034 A 
HETATM    7  C   UNK N   1      27.546  24.324  -4.898  0.00  0.00    -0.012 A 
HETATM    8  C   UNK N   1      27.038  23.406  -5.830  0.00  0.00     0.030 A 
HETATM    9  C   UNK N   1      25.937  23.725  -6.620  0.00  0.00     0.089 A 
HETATM   10  N   UNK N   1      25.336  24.934  -6.500  0.00  0.00    -0.365 N 
ATOM     11  HN  UNK N   1      24.531  25.150  -7.088  1.00  0.00     0.165 HD
ENDROOT
BRANCH   6  12
HETATM   12  C   UNK N   1      27.089  28.893  -2.862  0.00  0.00     0.036 C 
HETATM   13  C   UNK N   1      28.349  29.258  -2.549  0.00  0.00     0.079 A 
HETATM   14  C   UNK N   1      28.659  30.327  -1.608  0.00  0.00     0.266 A 
HETATM   15  S   UNK N   1      29.857  28.528  -3.203  0.00  0.00    -0.024 SA
HETATM   16  O   UNK N   1      27.815  30.988  -1.020  0.00  0.00    -0.267 OA
HETATM   17  N   UNK N   1      29.971  30.539  -1.431  0.00  0.00    -0.283 N 
HETATM   18  C   UNK N   1      30.732  29.708  -2.169  0.00  0.00     0.291 A 
HETATM   19  H   UNK N   1      30.336  31.226  -0.828  0.00  0.00     0.172 HD
HETATM   20  O   UNK N   1      31.950  29.759  -2.133  0.00  0.00    -0.260 OA
ENDBRANCH   6  12
BRANCH   7  21
HETATM   21  C   UNK N   1      28.737  23.903  -4.083  0.00  0.00    -0.022 A 
HETATM   22  C   UNK N   1      30.046  24.063  -4.545  0.00  0.00     0.029 A 
HETATM   23  C   UNK N   1      31.130  23.662  -3.764  0.00  0.00     0.088 A 
HETATM   24  N   UNK N   1      30.922  23.110  -2.542  0.00  0.00    -0.375 N 
HETATM   25  C   UNK N   1      29.665  22.936  -2.055  0.00  0.00     0.088 A 
ATOM     26  HN  UNK N   1      31.721  22.820  -1.979  1.00  0.00     0.164 HD
HETATM   27  C   UNK N   1      28.556  23.328  -2.813  0.00  0.00     0.029 A 
ENDBRANCH   7  21
TORSDOF 2
ENDMDL
MODEL 7
REMARK VINA RESULT:      -7.1     13.632     16.618
REMARK  2 active torsions:
REMARK  status: ('A' for Active; 'I' for Inactive)
REMARK    1  A    between atoms: C_6  and  C_7 
REMARK    2  A    between atoms: C_15  and  C_20 
ROOT
HETATM    1  C   UNK N   1      26.035  25.866  -5.283  0.00  0.00     0.014 A 
HETATM    2  C   UNK N   1      26.766  26.970  -4.841  0.00  0.00     0.031 A 
HETATM    3  C   UNK N   1      28.080  26.814  -4.392  0.00  0.00     0.043 A 
HETATM    4  C   UNK N   1      28.683  25.531  -4.383  0.00  0.00     0.003 A 
HETATM    5  C   UNK N   1      27.927  24.436  -4.833  0.00  0.00     0.026 A 
HETATM    6  C   UNK N   1      26.607  24.590  -5.284  0.00  0.00    -0.034 A 
HETATM    7  C   UNK N   1      30.028  25.402  -3.919  0.00  0.00    -0.012 A 
HETATM    8  C   UNK N   1      30.688  26.565  -3.492  0.00  0.00     0.030 A 
HETATM    9  C   UNK N   1      30.049  27.802  -3.522  0.00  0.00     0.089 A 
HETATM   10  N   UNK N   1      28.772  27.902  -3.966  0.00  0.00    -0.365 N 
ATOM     11  HN  UNK N   1      28.321  28.816  -3.981  1.00  0.00     0.165 HD
ENDROOT
BRANCH   6  12
HETATM   12  C   UNK N   1      25.784  23.451  -5.765  0.00  0.00     0.036 C 
HETATM   13  C   UNK N   1      25.807  22.879  -6.988  0.00  0.00     0.079 A 
HETATM   14  C   UNK N   1      24.953  21.759  -7.361  0.00  0.00     0.266 A 
HETATM   15  S   UNK N   1      26.860  23.364  -8.363  0.00  0.00    -0.024 SA
HETATM   16  O   UNK N   1      24.143  21.236  -6.609  0.00  0.00    -0.267 OA
HETATM   17  N   UNK N   1      25.126  21.333  -8.620  0.00  0.00    -0.283 N 
HETATM   18  C   UNK N   1      26.063  22.040  -9.280  0.00  0.00     0.291 A 
HETATM   19  H   UNK N   1      24.622  20.586  -9.017  0.00  0.00     0.172 HD
HETATM   20  O   UNK N   1      26.351  21.791 -10.438  0.00  0.00    -0.260 OA
ENDBRANCH   6  12
BRANCH   7  21
HETATM   21  C   UNK N   1      30.787  24.106  -3.855  0.00  0.00    -0.022 A 
HETATM   22  C   UNK N   1      30.668  23.229  -2.774  0.00  0.00     0.029 A 
HETATM   23  C   UNK N   1      31.386  22.034  -2.744  0.00  0.00     0.088 A 
HETATM   24  N   UNK N   1      32.210  21.710  -3.772  0.00  0.00    -0.375 N 
HETATM   25  C   UNK N   1      32.355  22.534  -4.843  0.00  0.00     0.088 A 
ATOM     26  HN  UNK N   1      32.731  20.834  -3.741  1.00  0.00     0.164 HD
HETATM   27  C   UNK N   1      31.649  23.741  -4.903  0.00  0.00     0.029 A 
ENDBRANCH   7  21
TORSDOF 2
ENDMDL
MODEL 8
REMARK VINA RESULT:      -7.0     13.259     16.195
REMARK  2 active torsions:
REMARK  status: ('A' for Active; 'I' for Inactive)
REMARK    1  A    between atoms: C_6  and  C_7 
REMARK    2  A    between atoms: C_15  and  C_20 
ROOT
HETATM    1  C   UNK N   1      25.756  24.062  -6.343  0.00  0.00     0.014 A 
HETATM    2  C   UNK N   1      25.975  23.113  -7.342  0.00  0.00     0.031 A 
HETATM    3  C   UNK N   1      27.153  22.360  -7.355  0.00  0.00     0.043 A 
HETATM    4  C   UNK N   1      28.135  22.554  -6.353  0.00  0.00     0.003 A 
HETATM    5  C   UNK N   1      27.891  23.515  -5.357  0.00  0.00     0.026 A 
HETATM    6  C   UNK N   1      26.709  24.273  -5.342  0.00  0.00    -0.034 A 
HETATM    7  C   UNK N   1      29.329  21.770  -6.392  0.00  0.00    -0.012 A 
HETATM    8  C   UNK N   1      29.467  20.839  -7.432  0.00  0.00     0.030 A 
HETATM    9  C   UNK N   1      28.471  20.688  -8.393  0.00  0.00     0.089 A 
HETATM   10  N   UNK N   1      27.346  21.442  -8.337  0.00  0.00    -0.365 N 
ATOM     11  HN  UNK N   1      26.627  21.317  -9.050  1.00  0.00     0.165 HD
ENDROOT
BRANCH   6  12
HETATM   12  C   UNK N   1      26.424  25.295  -4.303  0.00  0.00     0.036 C 
HETATM   13  C   UNK N   1      26.613  26.629  -4.388  0.00  0.00     0.079 A 
HETATM   14  C   UNK N   1      26.298  27.551  -3.304  0.00  0.00     0.266 A 
HETATM   15  S   UNK N   1      27.270  27.516  -5.808  0.00  0.00    -0.024 SA
HETATM   16  O   UNK N   1      25.837  27.206  -2.226  0.00  0.00    -0.267 OA
HETATM   17  N   UNK N   1      26.558  28.835  -3.584  0.00  0.00    -0.283 N 
HETATM   18  C   UNK N   1      27.060  29.003  -4.823  0.00  0.00     0.291 A 
HETATM   19  H   UNK N   1      26.398  29.574  -2.954  0.00  0.00     0.172 HD
HETATM   20  O   UNK N   1      27.355  30.108  -5.247  0.00  0.00    -0.260 OA
ENDBRANCH   6  12
BRANCH   7  21
HETATM   21  C   UNK N   1      30.449  21.873  -5.394  0.00  0.00    -0.022 A 
HETATM   22  C   UNK N   1      30.439  21.162  -4.192  0.00  0.00     0.029 A 
HETATM   23  C   UNK N   1      31.494  21.279  -3.286  0.00  0.00     0.088 A 
HETATM   24  N   UNK N   1      32.545  22.089  -3.569  0.00  0.00    -0.375 N 
HETATM   25  C   UNK N   1      32.595  22.798  -4.727  0.00  0.00     0.088 A 
ATOM     26  HN  UNK N   1      33.312  22.167  -2.900  1.00  0.00     0.164 HD
HETATM   27  C   UNK N   1      31.553  22.703  -5.656  0.00  0.00     0.029 A 
ENDBRANCH   7  21
TORSDOF 2
ENDMDL
MODEL 9
REMARK VINA RESULT:      -7.0      3.775      7.589
REMARK  2 active torsions:
REMARK  status: ('A' for Active; 'I' for Inactive)
REMARK    1  A    between atoms: C_6  and  C_7 
REMARK    2  A    between atoms: C_15  and  C_20 
ROOT
HETATM    1  C   UNK N   1      34.028  18.052   7.155  0.00  0.00     0.014 A 
HETATM    2  C   UNK N   1      34.424  18.159   8.490  0.00  0.00     0.031 A 
HETATM    3  C   UNK N   1      34.692  17.011   9.241  0.00  0.00     0.043 A 
HETATM    4  C   UNK N   1      34.564  15.728   8.654  0.00  0.00     0.003 A 
HETATM    5  C   UNK N   1      34.164  15.646   7.309  0.00  0.00     0.026 A 
HETATM    6  C   UNK N   1      33.894  16.797   6.552  0.00  0.00    -0.034 A 
HETATM    7  C   UNK N   1      34.845  14.573   9.446  0.00  0.00    -0.012 A 
HETATM    8  C   UNK N   1      35.237  14.772  10.779  0.00  0.00     0.030 A 
HETATM    9  C   UNK N   1      35.347  16.056  11.307  0.00  0.00     0.089 A 
HETATM   10  N   UNK N   1      35.076  17.138  10.537  0.00  0.00    -0.365 N 
ATOM     11  HN  UNK N   1      35.162  18.071  10.942  1.00  0.00     0.165 HD
ENDROOT
BRANCH   6  12
HETATM   12  C   UNK N   1      33.470  16.743   5.129  0.00  0.00     0.036 C 
HETATM   13  C   UNK N   1      32.213  16.814   4.644  0.00  0.00     0.079 A 
HETATM   14  C   UNK N   1      31.902  16.750   3.221  0.00  0.00     0.266 A 
HETATM   15  S   UNK N   1      30.711  16.996   5.616  0.00  0.00    -0.024 SA
HETATM   16  O   UNK N   1      32.743  16.627   2.342  0.00  0.00    -0.267 OA
HETATM   17  N   UNK N   1      30.595  16.838   2.941  0.00  0.00    -0.283 N 
HETATM   18  C   UNK N   1      29.837  16.968   4.047  0.00  0.00     0.291 A 
HETATM   19  H   UNK N   1      30.230  16.810   2.027  0.00  0.00     0.172 HD
HETATM   20  O   UNK N   1      28.623  17.062   3.980  0.00  0.00    -0.260 OA
ENDBRANCH   6  12
BRANCH   7  21
HETATM   21  C   UNK N   1      34.750  13.156   8.952  0.00  0.00    -0.022 A 
HETATM   22  C   UNK N   1      33.566  12.419   9.035  0.00  0.00     0.029 A 
HETATM   23  C   UNK N   1      33.509  11.106   8.567  0.00  0.00     0.088 A 
HETATM   24  N   UNK N   1      34.611  10.531   8.024  0.00  0.00    -0.375 N 
HETATM   25  C   UNK N   1      35.783  11.212   7.923  0.00  0.00     0.088 A 
ATOM     26  HN  UNK N   1      34.560   9.570   7.684  1.00  0.00     0.164 HD
HETATM   27  C   UNK N   1      35.872  12.530   8.383  0.00  0.00     0.029 A 
ENDBRANCH   7  21
TORSDOF 2
ENDMDL
