REMARK WARNING: 32 MAX_TORS EXCEEDED!!!
REMARK  41 active torsions:
REMARK  status: ('A' for Active; 'I' for Inactive)
REMARK    1  A    between atoms: C_2  and  C_3 
REMARK    2  A    between atoms: C_2  and  N_6 
REMARK       I    between atoms: C_3  and  N_5 
REMARK       I    between atoms: N_6  and  C_7 
REMARK    3  A    between atoms: C_9  and  C_7 
REMARK       I    between atoms: N_13  and  C_14 
REMARK    4  A    between atoms: C_14  and  C_16 
REMARK    5  A    between atoms: C_16  and  C_17 
REMARK    6  A    between atoms: C_16  and  N_25 
REMARK    7  A    between atoms: C_17  and  C_18 
REMARK    8  A    between atoms: C_18  and  C_19 
REMARK    9  A    between atoms: C_19  and  C_20 
REMARK   10  A    between atoms: C_20  and  N_21 
REMARK   11  A    between atoms: N_21  and  C_22 
REMARK       I    between atoms: N_25  and  C_26 
REMARK   12  A    between atoms: C_26  and  C_28 
REMARK   13  A    between atoms: C_28  and  C_29 
REMARK   14  A    between atoms: C_28  and  N_33 
REMARK   15  A    between atoms: C_29  and  C_30 
REMARK       I    between atoms: N_33  and  C_34 
REMARK   16  A    between atoms: C_34  and  C_36 
REMARK   17  A    between atoms: C_36  and  C_37 
REMARK   18  A    between atoms: C_36  and  N_48 
REMARK   19  A    between atoms: C_37  and  C_38 
REMARK   20  A    between atoms: C_41  and  N_44 
REMARK       I    between atoms: N_44  and  C_45 
REMARK       I    between atoms: N_48  and  C_49 
REMARK   21  A    between atoms: C_49  and  C_51 
REMARK   22  A    between atoms: C_51  and  C_52 
REMARK   23  A    between atoms: C_51  and  N_63 
REMARK   24  A    between atoms: C_52  and  C_53 
REMARK   25  A    between atoms: C_56  and  N_59 
REMARK       I    between atoms: N_59  and  C_60 
REMARK       I    between atoms: N_63  and  C_64 
REMARK   26  A    between atoms: C_64  and  C_66 
REMARK   27  A    between atoms: C_66  and  C_67 
REMARK   28  A    between atoms: C_66  and  N_69 
REMARK   29  A    between atoms: C_67  and  O_68 
REMARK       I    between atoms: N_69  and  C_70 
REMARK   30  A    between atoms: C_70  and  C_72 
REMARK   31  A    between atoms: C_72  and  C_73 
REMARK   32  A    between atoms: C_72  and  N_81 
REMARK   33  A    between atoms: C_73  and  C_74 
REMARK       I    between atoms: N_81  and  C_82 
REMARK   34  A    between atoms: C_82  and  C_84 
REMARK   35  A    between atoms: C_84  and  C_85 
REMARK   36  A    between atoms: C_84  and  N_93 
REMARK   37  A    between atoms: C_85  and  C_86 
REMARK       I    between atoms: N_93  and  C_94 
REMARK   38  A    between atoms: C_94  and  C_96 
REMARK   39  A    between atoms: C_96  and  C_97 
REMARK   40  A    between atoms: C_96  and  N_108 
REMARK   41  A    between atoms: C_97  and  C_98 
REMARK       I    between atoms: N_108  and  C_109 
ROOT
HETATM    1  C   UNK N   1      27.931  -9.094   0.729  0.00  0.00     0.180 C 
ENDROOT
BRANCH   1   2
HETATM    2  C   UNK N   1      26.899  -8.250   0.045  0.00  0.00     0.241 C 
HETATM    3  N   UNK N   1      25.918  -8.820  -0.679  0.00  0.00    -0.346 N 
HETATM    4  H   UNK N   1      26.053  -9.707  -1.084  0.00  0.00     0.163 HD
HETATM    5  O   UNK N   1      26.880  -7.044   0.263  0.00  0.00    -0.271 OA
BRANCH   3   6
HETATM    6  C   UNK N   1      24.676  -8.129  -0.858  0.00  0.00     0.180 C 
BRANCH   6   7
HETATM    7  C   UNK N   1      23.938  -8.351   0.466  0.00  0.00     0.241 C 
HETATM    8  N   UNK N   1      23.144  -9.427   0.615  0.00  0.00    -0.346 N 
HETATM    9  H   UNK N   1      22.656  -9.549   1.462  0.00  0.00     0.163 HD
HETATM   10  O   UNK N   1      24.282  -7.763   1.477  0.00  0.00    -0.271 OA
BRANCH   8  11
HETATM   11  C   UNK N   1      22.987 -10.400  -0.426  0.00  0.00     0.177 C 
BRANCH  11  12
HETATM   12  C   UNK N   1      22.305  -9.837  -1.645  0.00  0.00     0.241 C 
HETATM   13  N   UNK N   1      21.112  -9.186  -1.607  0.00  0.00    -0.346 N 
HETATM   14  H   UNK N   1      20.739  -8.920  -2.479  0.00  0.00     0.163 HD
HETATM   15  O   UNK N   1      22.873  -9.948  -2.717  0.00  0.00    -0.271 OA
BRANCH  13  16
HETATM   16  C   UNK N   1      20.321  -8.834  -0.447  0.00  0.00     0.176 C 
BRANCH  16  17
HETATM   17  C   UNK N   1      19.940  -9.998   0.439  0.00  0.00     0.243 C 
HETATM   18  N   UNK N   1      19.573 -11.207  -0.085  0.00  0.00    -0.337 N 
HETATM   19  C   UNK N   1      19.653 -11.559  -1.471  0.00  0.00     0.127 C 
HETATM   20  C   UNK N   1      19.048 -12.247   0.757  0.00  0.00     0.179 C 
HETATM   21  C   UNK N   1      19.332 -13.046  -1.511  0.00  0.00     0.022 C 
HETATM   22  C   UNK N   1      19.333 -13.502  -0.050  0.00  0.00     0.037 C 
HETATM   23  O   UNK N   1      19.928  -9.821   1.641  0.00  0.00    -0.271 OA
BRANCH  20  24
HETATM   24  C   UNK N   1      17.553 -12.084   0.787  0.00  0.00     0.241 C 
HETATM   25  N   UNK N   1      16.813 -12.786   1.683  0.00  0.00    -0.346 N 
HETATM   26  H   UNK N   1      17.274 -13.287   2.394  0.00  0.00     0.163 HD
HETATM   27  O   UNK N   1      16.999 -11.379  -0.047  0.00  0.00    -0.271 OA
BRANCH  25  28
HETATM   28  C   UNK N   1      15.366 -12.821   1.622  0.00  0.00     0.172 C 
HETATM   29  C   UNK N   1      14.771 -11.416   1.738  0.00  0.00     0.042 C 
BRANCH  28  30
HETATM   30  C   UNK N   1      14.948 -13.542   0.365  0.00  0.00     0.237 C 
HETATM   31  O   UNK N   1      14.287 -12.980  -0.494  0.00  0.00    -0.271 OA
HETATM   32  N   UNK N   1      15.349 -14.814   0.169  0.00  0.00    -0.368 N 
HETATM   33  H   UNK N   1      14.691 -15.532   0.026  0.00  0.00     0.159 HD
HETATM   34  H   UNK N   1      16.310 -15.027   0.169  0.00  0.00     0.159 HD
ENDBRANCH  28  30
ENDBRANCH  25  28
ENDBRANCH  20  24
ENDBRANCH  16  17
BRANCH  16  35
HETATM   35  C   UNK N   1      19.029  -8.206  -0.953  0.00  0.00     0.035 C 
BRANCH  35  36
HETATM   36  C   UNK N   1      18.599  -6.992  -0.143  0.00  0.00     0.004 C 
BRANCH  36  37
HETATM   37  C   UNK N   1      18.135  -7.341   1.263  0.00  0.00     0.019 C 
BRANCH  37  38
HETATM   38  C   UNK N   1      16.884  -6.554   1.637  0.00  0.00     0.114 C 
BRANCH  38  39
HETATM   39  N   UNK N   1      17.131  -5.112   1.667  0.00  0.00    -0.418 N 
HETATM   40  H   UNK N   1      17.458  -4.585   2.477  0.00  0.00     0.153 HD
BRANCH  39  41
HETATM   41  C   UNK N   1      16.834  -4.547   0.351  0.00  0.00     0.068 C 
HETATM   42  C   UNK N   1      17.267  -3.098   0.297  0.00  0.00     0.031 C 
HETATM   43  C   UNK N   1      15.348  -4.606   0.052  0.00  0.00     0.031 C 
ENDBRANCH  39  41
ENDBRANCH  38  39
ENDBRANCH  37  38
ENDBRANCH  36  37
ENDBRANCH  35  36
ENDBRANCH  16  35
ENDBRANCH  13  16
ENDBRANCH  11  12
BRANCH  11  44
HETATM   44  C   UNK N   1      22.411 -11.686   0.135  0.00  0.00     0.038 C 
BRANCH  44  45
HETATM   45  C   UNK N   1      22.985 -12.914  -0.549  0.00  0.00    -0.020 C 
HETATM   46  C   UNK N   1      22.592 -12.986  -2.012  0.00  0.00     0.009 C 
HETATM   47  C   UNK N   1      22.478 -14.148   0.164  0.00  0.00     0.009 C 
ENDBRANCH  44  45
ENDBRANCH  11  44
ENDBRANCH   8  11
ENDBRANCH   6   7
BRANCH   6  48
HETATM   48  C   UNK N   1      24.871  -6.719  -1.539  0.00  0.00     0.073 C 
BRANCH  48  49
HETATM   49  C   UNK N   1      24.263  -5.508  -0.883  0.00  0.00    -0.056 C 
HETATM   50  C   UNK N   1      24.242  -5.419   0.499  0.00  0.00     0.009 C 
HETATM   51  C   UNK N   1      23.504  -4.457   1.143  0.00  0.00     0.030 C 
HETATM   52  C   UNK N   1      22.822  -3.500   0.410  0.00  0.00     0.034 C 
HETATM   53  C   UNK N   1      22.921  -3.487  -0.990  0.00  0.00     0.030 C 
HETATM   54  C   UNK N   1      23.655  -4.494  -1.640  0.00  0.00     0.009 C 
BRANCH  52  55
HETATM   55  N   UNK N   1      21.755  -2.859   1.063  0.00  0.00    -0.328 N 
HETATM   56  C   UNK N   1      20.583  -3.537   1.188  0.00  0.00     0.218 C 
HETATM   57  O   UNK N   1      20.390  -4.572   0.560  0.00  0.00    -0.274 OA
HETATM   58  C   UNK N   1      19.572  -3.084   2.173  0.00  0.00     0.117 C 
HETATM   59  H   UNK N   1      21.854  -1.946   1.419  0.00  0.00     0.169 HD
ENDBRANCH  52  55
ENDBRANCH  48  49
ENDBRANCH   6  48
ENDBRANCH   3   6
ENDBRANCH   1   2
BRANCH   1  60
HETATM   60  C   UNK N   1      28.407 -10.266  -0.099  0.00  0.00     0.073 C 
BRANCH  60  61
HETATM   61  C   UNK N   1      27.791 -11.556   0.275  0.00  0.00    -0.056 A 
HETATM   62  C   UNK N   1      28.410 -12.716  -0.178  0.00  0.00     0.009 A 
HETATM   63  C   UNK N   1      27.774 -13.938  -0.035  0.00  0.00     0.030 A 
HETATM   64  C   UNK N   1      26.519 -14.006   0.578  0.00  0.00     0.034 A 
HETATM   65  C   UNK N   1      25.924 -12.852   1.094  0.00  0.00     0.030 A 
HETATM   66  C   UNK N   1      26.564 -11.624   0.951  0.00  0.00     0.009 A 
BRANCH  64  67
HETATM   67  N   UNK N   1      25.707 -15.128   0.328  0.00  0.00    -0.328 N 
HETATM   68  C   UNK N   1      25.262 -15.354  -0.940  0.00  0.00     0.218 C 
HETATM   69  O   UNK N   1      24.555 -16.318  -1.170  0.00  0.00    -0.274 OA
HETATM   70  C   UNK N   1      25.577 -14.401  -2.064  0.00  0.00     0.117 C 
HETATM   71  H   UNK N   1      25.464 -15.741   1.059  0.00  0.00     0.169 HD
ENDBRANCH  64  67
ENDBRANCH  60  61
ENDBRANCH   1  60
BRANCH   1  72
HETATM   72  N   UNK N   1      29.045  -8.248   1.028  0.00  0.00    -0.346 N 
HETATM   73  C   UNK N   1      29.711  -7.641   0.024  0.00  0.00     0.243 C 
HETATM   74  O   UNK N   1      29.434  -7.882  -1.148  0.00  0.00    -0.271 OA
HETATM   75  H   UNK N   1      29.324  -8.110   1.962  0.00  0.00     0.163 HD
BRANCH  73  76
HETATM   76  C   UNK N   1      30.702  -6.602   0.343  0.00  0.00     0.200 C 
BRANCH  76  77
HETATM   77  C   UNK N   1      29.944  -5.430   0.952  0.00  0.00     0.199 C 
BRANCH  77  78
HETATM   78  O   UNK N   1      28.993  -4.917   0.064  0.00  0.00    -0.398 OA
HETATM   79  H   UNK N   1      28.971  -4.168  -0.552  0.00  0.00     0.209 HD
ENDBRANCH  77  78
ENDBRANCH  76  77
BRANCH  76  80
HETATM   80  N   UNK N   1      31.382  -6.228  -0.871  0.00  0.00    -0.344 N 
HETATM   81  C   UNK N   1      32.195  -7.091  -1.540  0.00  0.00     0.241 C 
HETATM   82  O   UNK N   1      32.678  -6.737  -2.602  0.00  0.00    -0.271 OA
HETATM   83  H   UNK N   1      31.254  -5.320  -1.229  0.00  0.00     0.163 HD
BRANCH  81  84
HETATM   84  C   UNK N   1      32.580  -8.463  -0.982  0.00  0.00     0.180 C 
BRANCH  84  85
HETATM   85  C   UNK N   1      31.701  -9.634  -1.463  0.00  0.00     0.074 C 
BRANCH  85  86
HETATM   86  C   UNK N   1      31.743 -10.825  -0.537  0.00  0.00    -0.040 A 
HETATM   87  C   UNK N   1      32.379 -12.008  -0.915  0.00  0.00     0.010 A 
HETATM   88  C   UNK N   1      32.418 -13.087  -0.027  0.00  0.00     0.018 A 
HETATM   89  C   UNK N   1      31.812 -12.970   1.227  0.00  0.00     0.087 A 
HETATM   90  N   UNK N   1      31.193 -11.813   1.579  0.00  0.00    -0.375 N 
HETATM   91  C   UNK N   1      31.154 -10.751   0.733  0.00  0.00     0.094 A 
ATOM     92  HN  UNK N   1      30.750 -11.740   2.495  1.00  0.00     0.164 HD
ENDBRANCH  85  86
ENDBRANCH  84  85
BRANCH  84  93
HETATM   93  N   UNK N   1      32.815  -8.508   0.452  0.00  0.00    -0.346 N 
HETATM   94  C   UNK N   1      33.693  -7.747   1.143  0.00  0.00     0.241 C 
HETATM   95  O   UNK N   1      33.902  -8.006   2.316  0.00  0.00    -0.271 OA
HETATM   96  H   UNK N   1      32.283  -9.154   0.970  0.00  0.00     0.163 HD
BRANCH  94  97
HETATM   97  C   UNK N   1      34.443  -6.626   0.506  0.00  0.00     0.180 C 
BRANCH  97  98
HETATM   98  C   UNK N   1      34.559  -5.261   1.181  0.00  0.00     0.073 C 
BRANCH  98  99
HETATM   99  C   UNK N   1      33.347  -4.402   1.122  0.00  0.00    -0.056 A 
HETATM  100  C   UNK N   1      32.664  -4.103   2.306  0.00  0.00     0.009 A 
HETATM  101  C   UNK N   1      31.568  -3.235   2.284  0.00  0.00     0.024 A 
HETATM  102  C   UNK N   1      31.159  -2.657   1.078  0.00  0.00     0.034 A 
HETATM  103  C   UNK N   1      31.847  -2.948  -0.106  0.00  0.00     0.024 A 
HETATM  104 Cl   UNK N   1      29.759  -1.609   1.042  0.00  0.00    -0.084 Cl
HETATM  105  C   UNK N   1      32.948  -3.811  -0.082  0.00  0.00     0.009 A 
ENDBRANCH  98  99
ENDBRANCH  97  98
BRANCH  97 106
HETATM  106  N   UNK N   1      34.952  -6.844  -0.831  0.00  0.00    -0.346 N 
HETATM  107  C   UNK N   1      36.259  -6.808  -1.174  0.00  0.00     0.241 C 
HETATM  108  O   UNK N   1      36.581  -7.092  -2.316  0.00  0.00    -0.271 OA
HETATM  109  H   UNK N   1      34.298  -7.032  -1.543  0.00  0.00     0.163 HD
BRANCH 107 110
HETATM  110  C   UNK N   1      37.323  -6.421  -0.197  0.00  0.00     0.180 C 
BRANCH 110 111
HETATM  111  C   UNK N   1      37.326  -7.320   1.032  0.00  0.00     0.073 C 
BRANCH 111 112
HETATM  112  C   UNK N   1      38.290  -8.415   0.793  0.00  0.00    -0.055 A 
HETATM  113  C   UNK N   1      39.610  -8.244   1.213  0.00  0.00     0.008 A 
HETATM  114  C   UNK N   1      40.573  -9.204   0.909  0.00  0.00     0.013 A 
HETATM  115  C   UNK N   1      40.219 -10.335   0.174  0.00  0.00    -0.026 A 
HETATM  116  C   UNK N   1      41.188 -11.282  -0.156  0.00  0.00     0.012 A 
HETATM  117  C   UNK N   1      38.880 -10.517  -0.245  0.00  0.00    -0.025 A 
HETATM  118  C   UNK N   1      40.834 -12.411  -0.900  0.00  0.00     0.001 A 
HETATM  119  C   UNK N   1      39.509 -12.597  -1.310  0.00  0.00     0.001 A 
HETATM  120  C   UNK N   1      38.531 -11.651  -0.984  0.00  0.00     0.012 A 
HETATM  121  C   UNK N   1      37.918  -9.552   0.063  0.00  0.00     0.019 A 
ENDBRANCH 111 112
ENDBRANCH 110 111
BRANCH 110 122
HETATM  122  N   UNK N   1      37.164  -5.043   0.182  0.00  0.00    -0.348 N 
HETATM  123  C   UNK N   1      38.065  -4.097  -0.161  0.00  0.00     0.214 C 
HETATM  124  O   UNK N   1      37.874  -2.940   0.171  0.00  0.00    -0.274 OA
HETATM  125  C   UNK N   1      39.287  -4.441  -0.953  0.00  0.00     0.117 C 
HETATM  126  H   UNK N   1      36.373  -4.780   0.706  0.00  0.00     0.163 HD
ENDBRANCH 110 122
ENDBRANCH 107 110
ENDBRANCH  97 106
ENDBRANCH  94  97
ENDBRANCH  84  93
ENDBRANCH  81  84
ENDBRANCH  76  80
ENDBRANCH  73  76
ENDBRANCH   1  72
TORSDOF 41
