MODEL 1
REMARK VINA RESULT:      -7.4      0.000      0.000
REMARK  6 active torsions:
REMARK  status: ('A' for Active; 'I' for Inactive)
REMARK    1  A    between atoms: C_2  and  O_4 
REMARK    2  A    between atoms: O_4  and  C_5 
REMARK    3  A    between atoms: C_14  and  C_25 
REMARK    4  A    between atoms: C_16  and  O_17 
REMARK    5  A    between atoms: O_17  and  C_18 
REMARK    6  A    between atoms: C_25  and  O_27 
ROOT
HETATM    1  C   UNK N   1      23.065  18.284   4.579  0.00  0.00     0.094 A 
HETATM    2  C   UNK N   1      24.209  18.306   3.766  0.00  0.00     0.038 A 
HETATM    3  C   UNK N   1      25.159  17.289   3.851  0.00  0.00     0.004 A 
HETATM    4  C   UNK N   1      24.980  16.237   4.748  0.00  0.00     0.017 A 
HETATM    5  C   UNK N   1      23.848  16.189   5.572  0.00  0.00     0.032 A 
HETATM    6  C   UNK N   1      23.671  15.068   6.528  0.00  0.00     0.194 A 
HETATM    7  O   UNK N   1      24.513  14.181   6.591  0.00  0.00    -0.287 OA
HETATM    8  C   UNK N   1      22.485  15.027   7.417  0.00  0.00     0.033 A 
HETATM    9  C   UNK N   1      22.332  13.981   8.337  0.00  0.00     0.035 A 
HETATM   10  C   UNK N   1      21.226  13.938   9.195  0.00  0.00     0.041 A 
HETATM   11  C   UNK N   1      20.269  14.953   9.132  0.00  0.00     0.056 A 
HETATM   12  C   UNK N   1      20.398  16.012   8.222  0.00  0.00     0.095 A 
HETATM   13  C   UNK N   1      21.511  16.048   7.350  0.00  0.00     0.063 A 
HETATM   14  C   UNK N   1      21.684  17.160   6.375  0.00  0.00     0.199 A 
HETATM   15  O   UNK N   1      20.837  18.039   6.303  0.00  0.00    -0.286 OA
HETATM   16  C   UNK N   1      22.881  17.215   5.492  0.00  0.00     0.063 A 
ENDROOT
BRANCH   1  17
HETATM   17  O   UNK N   1      22.124  19.269   4.517  0.00  0.00    -0.278 OA
BRANCH  17  18
HETATM   18  C   UNK N   1      21.443  19.734   3.437  0.00  0.00     0.260 C 
HETATM   19  C   UNK N   1      20.554  18.799   2.693  0.00  0.00     0.126 C 
HETATM   20  O   UNK N   1      21.546  20.891   3.064  0.00  0.00    -0.265 OA
ENDBRANCH  17  18
ENDBRANCH   1  17
BRANCH  12  21
HETATM   21  O   UNK N   1      19.476  17.014   8.163  0.00  0.00    -0.278 OA
BRANCH  21  22
HETATM   22  C   UNK N   1      19.083  17.858   9.151  0.00  0.00     0.260 C 
HETATM   23  O   UNK N   1      19.786  18.786   9.517  0.00  0.00    -0.265 OA
HETATM   24  C   UNK N   1      17.734  17.678   9.757  0.00  0.00     0.126 C 
ENDBRANCH  21  22
ENDBRANCH  12  21
BRANCH  10  25
HETATM   25  C   UNK N   1      21.068  12.840  10.168  0.00  0.00     0.176 C 
HETATM   26  O   UNK N   1      20.033  12.723  10.805  0.00  0.00    -0.646 OA
BRANCH  25  27
HETATM   27  O   UNK N   1      22.066  11.954  10.357  0.00  0.00    -0.773 OA
HETATM   28  H   UNK N   1      21.934  11.210  10.912  0.00  0.00     0.167 HD
ENDBRANCH  25  27
ENDBRANCH  10  25
TORSDOF 6
ENDMDL
MODEL 2
REMARK VINA RESULT:      -7.1     14.733     16.372
REMARK  6 active torsions:
REMARK  status: ('A' for Active; 'I' for Inactive)
REMARK    1  A    between atoms: C_2  and  O_4 
REMARK    2  A    between atoms: O_4  and  C_5 
REMARK    3  A    between atoms: C_14  and  C_25 
REMARK    4  A    between atoms: C_16  and  O_17 
REMARK    5  A    between atoms: O_17  and  C_18 
REMARK    6  A    between atoms: C_25  and  O_27 
ROOT
HETATM    1  C   UNK N   1      26.536  24.092  -6.297  0.00  0.00     0.094 A 
HETATM    2  C   UNK N   1      25.653  24.975  -5.658  0.00  0.00     0.038 A 
HETATM    3  C   UNK N   1      25.885  25.385  -4.346  0.00  0.00     0.004 A 
HETATM    4  C   UNK N   1      27.001  24.918  -3.654  0.00  0.00     0.017 A 
HETATM    5  C   UNK N   1      27.900  24.035  -4.266  0.00  0.00     0.032 A 
HETATM    6  C   UNK N   1      29.081  23.539  -3.518  0.00  0.00     0.194 A 
HETATM    7  O   UNK N   1      29.273  23.908  -2.366  0.00  0.00    -0.287 OA
HETATM    8  C   UNK N   1      30.022  22.587  -4.157  0.00  0.00     0.033 A 
HETATM    9  C   UNK N   1      31.123  22.099  -3.440  0.00  0.00     0.035 A 
HETATM   10  C   UNK N   1      32.010  21.187  -4.024  0.00  0.00     0.041 A 
HETATM   11  C   UNK N   1      31.788  20.756  -5.333  0.00  0.00     0.056 A 
HETATM   12  C   UNK N   1      30.694  21.227  -6.073  0.00  0.00     0.095 A 
HETATM   13  C   UNK N   1      29.805  22.156  -5.484  0.00  0.00     0.063 A 
HETATM   14  C   UNK N   1      28.629  22.672  -6.237  0.00  0.00     0.199 A 
HETATM   15  O   UNK N   1      28.444  22.314  -7.392  0.00  0.00    -0.286 OA
HETATM   16  C   UNK N   1      27.672  23.615  -5.595  0.00  0.00     0.063 A 
ENDROOT
BRANCH   1  17
HETATM   17  O   UNK N   1      26.328  23.674  -7.579  0.00  0.00    -0.278 OA
BRANCH  17  18
HETATM   18  C   UNK N   1      25.265  23.004  -8.097  0.00  0.00     0.260 C 
HETATM   19  C   UNK N   1      25.005  21.609  -7.645  0.00  0.00     0.126 C 
HETATM   20  O   UNK N   1      24.526  23.516  -8.923  0.00  0.00    -0.265 OA
ENDBRANCH  17  18
ENDBRANCH   1  17
BRANCH  12  21
HETATM   21  O   UNK N   1      30.462  20.802  -7.347  0.00  0.00    -0.278 OA
BRANCH  21  22
HETATM   22  C   UNK N   1      30.472  19.532  -7.829  0.00  0.00     0.260 C 
HETATM   23  O   UNK N   1      31.482  19.036  -8.300  0.00  0.00    -0.265 OA
HETATM   24  C   UNK N   1      29.233  18.712  -7.721  0.00  0.00     0.126 C 
ENDBRANCH  21  22
ENDBRANCH  12  21
BRANCH  10  25
HETATM   25  C   UNK N   1      33.166  20.668  -3.267  0.00  0.00     0.176 C 
HETATM   26  O   UNK N   1      33.992  19.953  -3.813  0.00  0.00    -0.646 OA
BRANCH  25  27
HETATM   27  O   UNK N   1      33.321  20.985  -1.966  0.00  0.00    -0.773 OA
HETATM   28  H   UNK N   1      33.857  20.451  -1.414  0.00  0.00     0.167 HD
ENDBRANCH  25  27
ENDBRANCH  10  25
TORSDOF 6
ENDMDL
MODEL 3
REMARK VINA RESULT:      -7.0     14.932     16.439
REMARK  6 active torsions:
REMARK  status: ('A' for Active; 'I' for Inactive)
REMARK    1  A    between atoms: C_2  and  O_4 
REMARK    2  A    between atoms: O_4  and  C_5 
REMARK    3  A    between atoms: C_14  and  C_25 
REMARK    4  A    between atoms: C_16  and  O_17 
REMARK    5  A    between atoms: O_17  and  C_18 
REMARK    6  A    between atoms: C_25  and  O_27 
ROOT
HETATM    1  C   UNK N   1      30.515  20.659  -6.236  0.00  0.00     0.094 A 
HETATM    2  C   UNK N   1      31.590  20.066  -5.555  0.00  0.00     0.038 A 
HETATM    3  C   UNK N   1      31.962  20.515  -4.288  0.00  0.00     0.004 A 
HETATM    4  C   UNK N   1      31.266  21.563  -3.685  0.00  0.00     0.017 A 
HETATM    5  C   UNK N   1      30.189  22.173  -4.341  0.00  0.00     0.032 A 
HETATM    6  C   UNK N   1      29.461  23.290  -3.693  0.00  0.00     0.194 A 
HETATM    7  O   UNK N   1      29.797  23.674  -2.580  0.00  0.00    -0.287 OA
HETATM    8  C   UNK N   1      28.335  23.953  -4.395  0.00  0.00     0.033 A 
HETATM    9  C   UNK N   1      27.664  25.026  -3.791  0.00  0.00     0.035 A 
HETATM   10  C   UNK N   1      26.610  25.672  -4.449  0.00  0.00     0.041 A 
HETATM   11  C   UNK N   1      26.231  25.244  -5.723  0.00  0.00     0.056 A 
HETATM   12  C   UNK N   1      26.885  24.174  -6.351  0.00  0.00     0.095 A 
HETATM   13  C   UNK N   1      27.943  23.517  -5.680  0.00  0.00     0.063 A 
HETATM   14  C   UNK N   1      28.665  22.382  -6.317  0.00  0.00     0.199 A 
HETATM   15  O   UNK N   1      28.321  21.990  -7.424  0.00  0.00    -0.286 OA
HETATM   16  C   UNK N   1      29.807  21.724  -5.625  0.00  0.00     0.063 A 
ENDROOT
BRANCH   1  17
HETATM   17  O   UNK N   1      30.136  20.240  -7.477  0.00  0.00    -0.278 OA
BRANCH  17  18
HETATM   18  C   UNK N   1      29.933  18.973  -7.927  0.00  0.00     0.260 C 
HETATM   19  C   UNK N   1      30.833  18.434  -8.985  0.00  0.00     0.126 C 
HETATM   20  O   UNK N   1      29.034  18.275  -7.489  0.00  0.00    -0.265 OA
ENDBRANCH  17  18
ENDBRANCH   1  17
BRANCH  12  21
HETATM   21  O   UNK N   1      26.531  23.758  -7.599  0.00  0.00    -0.278 OA
BRANCH  21  22
HETATM   22  C   UNK N   1      25.360  23.201  -8.002  0.00  0.00     0.260 C 
HETATM   23  O   UNK N   1      24.636  23.753  -8.815  0.00  0.00    -0.265 OA
HETATM   24  C   UNK N   1      24.985  21.857  -7.481  0.00  0.00     0.126 C 
ENDBRANCH  21  22
ENDBRANCH  12  21
BRANCH  10  25
HETATM   25  C   UNK N   1      25.908  26.806  -3.817  0.00  0.00     0.176 C 
HETATM   26  O   UNK N   1      25.221  27.559  -4.489  0.00  0.00    -0.646 OA
BRANCH  25  27
HETATM   27  O   UNK N   1      26.016  27.014  -2.489  0.00  0.00    -0.773 OA
HETATM   28  H   UNK N   1      26.594  26.483  -1.977  0.00  0.00     0.167 HD
ENDBRANCH  25  27
ENDBRANCH  10  25
TORSDOF 6
ENDMDL
MODEL 4
REMARK VINA RESULT:      -7.0     14.968     16.541
REMARK  6 active torsions:
REMARK  status: ('A' for Active; 'I' for Inactive)
REMARK    1  A    between atoms: C_2  and  O_4 
REMARK    2  A    between atoms: O_4  and  C_5 
REMARK    3  A    between atoms: C_14  and  C_25 
REMARK    4  A    between atoms: C_16  and  O_17 
REMARK    5  A    between atoms: O_17  and  C_18 
REMARK    6  A    between atoms: C_25  and  O_27 
ROOT
HETATM    1  C   UNK N   1      26.949  26.973  -4.337  0.00  0.00     0.094 A 
HETATM    2  C   UNK N   1      25.831  27.708  -4.759  0.00  0.00     0.038 A 
HETATM    3  C   UNK N   1      25.019  27.235  -5.790  0.00  0.00     0.004 A 
HETATM    4  C   UNK N   1      25.315  26.024  -6.413  0.00  0.00     0.017 A 
HETATM    5  C   UNK N   1      26.425  25.269  -6.013  0.00  0.00     0.032 A 
HETATM    6  C   UNK N   1      26.733  23.985  -6.688  0.00  0.00     0.194 A 
HETATM    7  O   UNK N   1      26.012  23.582  -7.591  0.00  0.00    -0.287 OA
HETATM    8  C   UNK N   1      27.921  23.195  -6.281  0.00  0.00     0.033 A 
HETATM    9  C   UNK N   1      28.225  21.995  -6.937  0.00  0.00     0.035 A 
HETATM   10  C   UNK N   1      29.353  21.247  -6.575  0.00  0.00     0.041 A 
HETATM   11  C   UNK N   1      30.183  21.710  -5.552  0.00  0.00     0.056 A 
HETATM   12  C   UNK N   1      29.903  22.908  -4.880  0.00  0.00     0.095 A 
HETATM   13  C   UNK N   1      28.758  23.656  -5.241  0.00  0.00     0.063 A 
HETATM   14  C   UNK N   1      28.432  24.936  -4.554  0.00  0.00     0.199 A 
HETATM   15  O   UNK N   1      29.146  25.332  -3.643  0.00  0.00    -0.286 OA
HETATM   16  C   UNK N   1      27.252  25.741  -4.969  0.00  0.00     0.063 A 
ENDROOT
BRANCH   1  17
HETATM   17  O   UNK N   1      27.760  27.417  -3.333  0.00  0.00    -0.278 OA
BRANCH  17  18
HETATM   18  C   UNK N   1      28.034  28.694  -2.958  0.00  0.00     0.260 C 
HETATM   19  C   UNK N   1      29.073  29.454  -3.707  0.00  0.00     0.126 C 
HETATM   20  O   UNK N   1      27.456  29.225  -2.024  0.00  0.00    -0.265 OA
ENDBRANCH  17  18
ENDBRANCH   1  17
BRANCH  12  21
HETATM   21  O   UNK N   1      30.715  23.373  -3.889  0.00  0.00    -0.278 OA
BRANCH  21  22
HETATM   22  C   UNK N   1      31.109  22.742  -2.753  0.00  0.00     0.260 C 
HETATM   23  O   UNK N   1      30.574  22.966  -1.679  0.00  0.00    -0.265 OA
HETATM   24  C   UNK N   1      32.179  21.708  -2.839  0.00  0.00     0.126 C 
ENDBRANCH  21  22
ENDBRANCH  12  21
BRANCH  10  25
HETATM   25  C   UNK N   1      29.677  19.986  -7.270  0.00  0.00     0.176 C 
HETATM   26  O   UNK N   1      28.786  19.276  -7.709  0.00  0.00    -0.646 OA
BRANCH  25  27
HETATM   27  O   UNK N   1      30.962  19.612  -7.429  0.00  0.00    -0.773 OA
HETATM   28  H   UNK N   1      31.166  18.810  -7.869  0.00  0.00     0.167 HD
ENDBRANCH  25  27
ENDBRANCH  10  25
TORSDOF 6
ENDMDL
MODEL 5
REMARK VINA RESULT:      -6.9     14.317     16.720
REMARK  6 active torsions:
REMARK  status: ('A' for Active; 'I' for Inactive)
REMARK    1  A    between atoms: C_2  and  O_4 
REMARK    2  A    between atoms: O_4  and  C_5 
REMARK    3  A    between atoms: C_14  and  C_25 
REMARK    4  A    between atoms: C_16  and  O_17 
REMARK    5  A    between atoms: O_17  and  C_18 
REMARK    6  A    between atoms: C_25  and  O_27 
ROOT
HETATM    1  C   UNK N   1      29.029  23.566  -4.033  0.00  0.00     0.094 A 
HETATM    2  C   UNK N   1      29.712  23.688  -2.814  0.00  0.00     0.038 A 
HETATM    3  C   UNK N   1      30.751  22.816  -2.492  0.00  0.00     0.004 A 
HETATM    4  C   UNK N   1      31.122  21.810  -3.384  0.00  0.00     0.017 A 
HETATM    5  C   UNK N   1      30.458  21.665  -4.609  0.00  0.00     0.032 A 
HETATM    6  C   UNK N   1      30.857  20.588  -5.547  0.00  0.00     0.194 A 
HETATM    7  O   UNK N   1      31.772  19.829  -5.252  0.00  0.00    -0.287 OA
HETATM    8  C   UNK N   1      30.140  20.418  -6.835  0.00  0.00     0.033 A 
HETATM    9  C   UNK N   1      30.502  19.383  -7.709  0.00  0.00     0.035 A 
HETATM   10  C   UNK N   1      29.823  19.200  -8.920  0.00  0.00     0.041 A 
HETATM   11  C   UNK N   1      28.773  20.057  -9.254  0.00  0.00     0.056 A 
HETATM   12  C   UNK N   1      28.390  21.099  -8.398  0.00  0.00     0.095 A 
HETATM   13  C   UNK N   1      29.083  21.288  -7.180  0.00  0.00     0.063 A 
HETATM   14  C   UNK N   1      28.700  22.380  -6.243  0.00  0.00     0.199 A 
HETATM   15  O   UNK N   1      27.794  23.145  -6.543  0.00  0.00    -0.286 OA
HETATM   16  C   UNK N   1      29.404  22.545  -4.942  0.00  0.00     0.063 A 
ENDROOT
BRANCH   1  17
HETATM   17  O   UNK N   1      28.006  24.405  -4.368  0.00  0.00    -0.278 OA
BRANCH  17  18
HETATM   18  C   UNK N   1      26.910  24.747  -3.642  0.00  0.00     0.260 C 
HETATM   19  C   UNK N   1      26.413  26.150  -3.711  0.00  0.00     0.126 C 
HETATM   20  O   UNK N   1      26.329  23.938  -2.938  0.00  0.00    -0.265 OA
ENDBRANCH  17  18
ENDBRANCH   1  17
BRANCH  12  21
HETATM   21  O   UNK N   1      27.357  21.932  -8.710  0.00  0.00    -0.278 OA
BRANCH  21  22
HETATM   22  C   UNK N   1      26.058  21.614  -8.946  0.00  0.00     0.260 C 
HETATM   23  O   UNK N   1      25.563  21.732 -10.056  0.00  0.00    -0.265 OA
HETATM   24  C   UNK N   1      25.241  21.051  -7.835  0.00  0.00     0.126 C 
ENDBRANCH  21  22
ENDBRANCH  12  21
BRANCH  10  25
HETATM   25  C   UNK N   1      30.199  18.107  -9.838  0.00  0.00     0.176 C 
HETATM   26  O   UNK N   1      29.962  18.195 -11.033  0.00  0.00    -0.646 OA
BRANCH  25  27
HETATM   27  O   UNK N   1      30.812  17.005  -9.363  0.00  0.00    -0.773 OA
HETATM   28  H   UNK N   1      31.565  17.088  -8.811  0.00  0.00     0.167 HD
ENDBRANCH  25  27
ENDBRANCH  10  25
TORSDOF 6
ENDMDL
MODEL 6
REMARK VINA RESULT:      -6.8      1.502      6.168
REMARK  6 active torsions:
REMARK  status: ('A' for Active; 'I' for Inactive)
REMARK    1  A    between atoms: C_2  and  O_4 
REMARK    2  A    between atoms: O_4  and  C_5 
REMARK    3  A    between atoms: C_14  and  C_25 
REMARK    4  A    between atoms: C_16  and  O_17 
REMARK    5  A    between atoms: O_17  and  C_18 
REMARK    6  A    between atoms: C_25  and  O_27 
ROOT
HETATM    1  C   UNK N   1      20.275  15.993   8.403  0.00  0.00     0.094 A 
HETATM    2  C   UNK N   1      20.007  14.965   9.319  0.00  0.00     0.038 A 
HETATM    3  C   UNK N   1      20.843  13.851   9.402  0.00  0.00     0.004 A 
HETATM    4  C   UNK N   1      21.958  13.751   8.571  0.00  0.00     0.017 A 
HETATM    5  C   UNK N   1      22.251  14.761   7.646  0.00  0.00     0.032 A 
HETATM    6  C   UNK N   1      23.435  14.640   6.763  0.00  0.00     0.194 A 
HETATM    7  O   UNK N   1      24.161  13.658   6.847  0.00  0.00    -0.287 OA
HETATM    8  C   UNK N   1      23.735  15.698   5.767  0.00  0.00     0.033 A 
HETATM    9  C   UNK N   1      24.840  15.570   4.916  0.00  0.00     0.035 A 
HETATM   10  C   UNK N   1      25.125  16.552   3.960  0.00  0.00     0.041 A 
HETATM   11  C   UNK N   1      24.293  17.669   3.854  0.00  0.00     0.056 A 
HETATM   12  C   UNK N   1      23.180  17.822   4.693  0.00  0.00     0.095 A 
HETATM   13  C   UNK N   1      22.900  16.832   5.664  0.00  0.00     0.063 A 
HETATM   14  C   UNK N   1      21.723  16.959   6.567  0.00  0.00     0.199 A 
HETATM   15  O   UNK N   1      21.005  17.946   6.492  0.00  0.00    -0.286 OA
HETATM   16  C   UNK N   1      21.408  15.892   7.556  0.00  0.00     0.063 A 
ENDROOT
BRANCH   1  17
HETATM   17  O   UNK N   1      19.470  17.088   8.301  0.00  0.00    -0.278 OA
BRANCH  17  18
HETATM   18  C   UNK N   1      19.126  17.989   9.258  0.00  0.00     0.260 C 
HETATM   19  C   UNK N   1      17.779  17.889   9.887  0.00  0.00     0.126 C 
HETATM   20  O   UNK N   1      19.890  18.874   9.609  0.00  0.00    -0.265 OA
ENDBRANCH  17  18
ENDBRANCH   1  17
BRANCH  12  21
HETATM   21  O   UNK N   1      22.355  18.902   4.588  0.00  0.00    -0.278 OA
BRANCH  21  22
HETATM   22  C   UNK N   1      21.796  19.432   3.470  0.00  0.00     0.260 C 
HETATM   23  O   UNK N   1      22.104  20.541   3.065  0.00  0.00    -0.265 OA
HETATM   24  C   UNK N   1      20.828  18.610   2.690  0.00  0.00     0.126 C 
ENDBRANCH  21  22
ENDBRANCH  12  21
BRANCH  10  25
HETATM   25  C   UNK N   1      26.286  16.414   3.058  0.00  0.00     0.176 C 
HETATM   26  O   UNK N   1      27.373  16.871   3.376  0.00  0.00    -0.646 OA
BRANCH  25  27
HETATM   27  O   UNK N   1      26.154  15.776   1.878  0.00  0.00    -0.773 OA
HETATM   28  H   UNK N   1      25.621  15.008   1.817  0.00  0.00     0.167 HD
ENDBRANCH  25  27
ENDBRANCH  10  25
TORSDOF 6
ENDMDL
MODEL 7
REMARK VINA RESULT:      -6.8      2.195      2.968
REMARK  6 active torsions:
REMARK  status: ('A' for Active; 'I' for Inactive)
REMARK    1  A    between atoms: C_2  and  O_4 
REMARK    2  A    between atoms: O_4  and  C_5 
REMARK    3  A    between atoms: C_14  and  C_25 
REMARK    4  A    between atoms: C_16  and  O_17 
REMARK    5  A    between atoms: O_17  and  C_18 
REMARK    6  A    between atoms: C_25  and  O_27 
ROOT
HETATM    1  C   UNK N   1      23.139  19.932   3.336  0.00  0.00     0.094 A 
HETATM    2  C   UNK N   1      24.221  20.622   2.769  0.00  0.00     0.038 A 
HETATM    3  C   UNK N   1      25.527  20.166   2.948  0.00  0.00     0.004 A 
HETATM    4  C   UNK N   1      25.768  19.014   3.696  0.00  0.00     0.017 A 
HETATM    5  C   UNK N   1      24.708  18.305   4.275  0.00  0.00     0.032 A 
HETATM    6  C   UNK N   1      24.978  17.086   5.074  0.00  0.00     0.194 A 
HETATM    7  O   UNK N   1      26.129  16.695   5.222  0.00  0.00    -0.287 OA
HETATM    8  C   UNK N   1      23.858  16.346   5.706  0.00  0.00     0.033 A 
HETATM    9  C   UNK N   1      24.117  15.208   6.482  0.00  0.00     0.035 A 
HETATM   10  C   UNK N   1      23.072  14.509   7.099  0.00  0.00     0.041 A 
HETATM   11  C   UNK N   1      21.759  14.958   6.940  0.00  0.00     0.056 A 
HETATM   12  C   UNK N   1      21.471  16.093   6.170  0.00  0.00     0.095 A 
HETATM   13  C   UNK N   1      22.529  16.792   5.540  0.00  0.00     0.063 A 
HETATM   14  C   UNK N   1      22.262  18.006   4.720  0.00  0.00     0.199 A 
HETATM   15  O   UNK N   1      21.111  18.388   4.561  0.00  0.00    -0.286 OA
HETATM   16  C   UNK N   1      23.383  18.762   4.097  0.00  0.00     0.063 A 
ENDROOT
BRANCH   1  17
HETATM   17  O   UNK N   1      21.854  20.362   3.178  0.00  0.00    -0.278 OA
BRANCH  17  18
HETATM   18  C   UNK N   1      21.124  20.472   2.038  0.00  0.00     0.260 C 
HETATM   19  C   UNK N   1      20.563  19.236   1.424  0.00  0.00     0.126 C 
HETATM   20  O   UNK N   1      20.922  21.552   1.507  0.00  0.00    -0.265 OA
ENDBRANCH  17  18
ENDBRANCH   1  17
BRANCH  12  21
HETATM   21  O   UNK N   1      20.195  16.546   6.020  0.00  0.00    -0.278 OA
BRANCH  21  22
HETATM   22  C   UNK N   1      19.132  15.908   5.465  0.00  0.00     0.260 C 
HETATM   23  O   UNK N   1      18.022  15.957   5.970  0.00  0.00    -0.265 OA
HETATM   24  C   UNK N   1      19.321  15.184   4.176  0.00  0.00     0.126 C 
ENDBRANCH  21  22
ENDBRANCH  12  21
BRANCH  10  25
HETATM   25  C   UNK N   1      23.345  13.315   7.922  0.00  0.00     0.176 C 
HETATM   26  O   UNK N   1      22.425  12.690   8.427  0.00  0.00    -0.646 OA
BRANCH  25  27
HETATM   27  O   UNK N   1      24.613  12.902   8.117  0.00  0.00    -0.773 OA
HETATM   28  H   UNK N   1      24.897  12.651   8.974  0.00  0.00     0.167 HD
ENDBRANCH  25  27
ENDBRANCH  10  25
TORSDOF 6
ENDMDL
MODEL 8
REMARK VINA RESULT:      -6.6      9.088     12.132
REMARK  6 active torsions:
REMARK  status: ('A' for Active; 'I' for Inactive)
REMARK    1  A    between atoms: C_2  and  O_4 
REMARK    2  A    between atoms: O_4  and  C_5 
REMARK    3  A    between atoms: C_14  and  C_25 
REMARK    4  A    between atoms: C_16  and  O_17 
REMARK    5  A    between atoms: O_17  and  C_18 
REMARK    6  A    between atoms: C_25  and  O_27 
ROOT
HETATM    1  C   UNK N   1      31.435  15.207   4.251  0.00  0.00     0.094 A 
HETATM    2  C   UNK N   1      31.357  16.172   3.234  0.00  0.00     0.038 A 
HETATM    3  C   UNK N   1      32.100  17.350   3.315  0.00  0.00     0.004 A 
HETATM    4  C   UNK N   1      32.931  17.579   4.411  0.00  0.00     0.017 A 
HETATM    5  C   UNK N   1      33.029  16.634   5.440  0.00  0.00     0.032 A 
HETATM    6  C   UNK N   1      33.911  16.891   6.604  0.00  0.00     0.194 A 
HETATM    7  O   UNK N   1      34.559  17.929   6.661  0.00  0.00    -0.287 OA
HETATM    8  C   UNK N   1      34.000  15.902   7.705  0.00  0.00     0.033 A 
HETATM    9  C   UNK N   1      34.815  16.159   8.817  0.00  0.00     0.035 A 
HETATM   10  C   UNK N   1      34.895  15.242   9.872  0.00  0.00     0.041 A 
HETATM   11  C   UNK N   1      34.150  14.063   9.815  0.00  0.00     0.056 A 
HETATM   12  C   UNK N   1      33.326  13.781   8.715  0.00  0.00     0.095 A 
HETATM   13  C   UNK N   1      33.254  14.705   7.647  0.00  0.00     0.063 A 
HETATM   14  C   UNK N   1      32.386  14.442   6.466  0.00  0.00     0.199 A 
HETATM   15  O   UNK N   1      31.749  13.400   6.403  0.00  0.00    -0.286 OA
HETATM   16  C   UNK N   1      32.279  15.439   5.366  0.00  0.00     0.063 A 
ENDROOT
BRANCH   1  17
HETATM   17  O   UNK N   1      30.715  14.051   4.196  0.00  0.00    -0.278 OA
BRANCH  17  18
HETATM   18  C   UNK N   1      29.404  13.874   3.885  0.00  0.00     0.260 C 
HETATM   19  C   UNK N   1      28.374  14.176   4.918  0.00  0.00     0.126 C 
HETATM   20  O   UNK N   1      29.055  13.472   2.787  0.00  0.00    -0.265 OA
ENDBRANCH  17  18
ENDBRANCH   1  17
BRANCH  12  21
HETATM   21  O   UNK N   1      32.585  12.639   8.657  0.00  0.00    -0.278 OA
BRANCH  21  22
HETATM   22  C   UNK N   1      32.965  11.369   8.956  0.00  0.00     0.260 C 
HETATM   23  O   UNK N   1      32.231  10.611   9.569  0.00  0.00    -0.265 OA
HETATM   24  C   UNK N   1      34.284  10.880   8.468  0.00  0.00     0.126 C 
ENDBRANCH  21  22
ENDBRANCH  12  21
BRANCH  10  25
HETATM   25  C   UNK N   1      35.748  15.515  11.046  0.00  0.00     0.176 C 
HETATM   26  O   UNK N   1      35.391  15.169  12.162  0.00  0.00    -0.646 OA
BRANCH  25  27
HETATM   27  O   UNK N   1      36.930  16.144  10.892  0.00  0.00    -0.773 OA
HETATM   28  H   UNK N   1      37.634  15.969  11.485  0.00  0.00     0.167 HD
ENDBRANCH  25  27
ENDBRANCH  10  25
TORSDOF 6
ENDMDL
MODEL 9
REMARK VINA RESULT:      -6.5      5.948      9.055
REMARK  6 active torsions:
REMARK  status: ('A' for Active; 'I' for Inactive)
REMARK    1  A    between atoms: C_2  and  O_4 
REMARK    2  A    between atoms: O_4  and  C_5 
REMARK    3  A    between atoms: C_14  and  C_25 
REMARK    4  A    between atoms: C_16  and  O_17 
REMARK    5  A    between atoms: O_17  and  C_18 
REMARK    6  A    between atoms: C_25  and  O_27 
ROOT
HETATM    1  C   UNK N   1      30.060  16.738   7.278  0.00  0.00     0.094 A 
HETATM    2  C   UNK N   1      30.669  17.171   8.467  0.00  0.00     0.038 A 
HETATM    3  C   UNK N   1      30.238  18.335   9.102  0.00  0.00     0.004 A 
HETATM    4  C   UNK N   1      29.193  19.083   8.558  0.00  0.00     0.017 A 
HETATM    5  C   UNK N   1      28.568  18.675   7.373  0.00  0.00     0.032 A 
HETATM    6  C   UNK N   1      27.463  19.482   6.801  0.00  0.00     0.194 A 
HETATM    7  O   UNK N   1      27.094  20.502   7.370  0.00  0.00    -0.287 OA
HETATM    8  C   UNK N   1      26.813  19.065   5.534  0.00  0.00     0.033 A 
HETATM    9  C   UNK N   1      25.786  19.842   4.982  0.00  0.00     0.035 A 
HETATM   10  C   UNK N   1      25.176  19.470   3.778  0.00  0.00     0.041 A 
HETATM   11  C   UNK N   1      25.602  18.313   3.122  0.00  0.00     0.056 A 
HETATM   12  C   UNK N   1      26.627  17.517   3.651  0.00  0.00     0.095 A 
HETATM   13  C   UNK N   1      27.236  17.891   4.873  0.00  0.00     0.063 A 
HETATM   14  C   UNK N   1      28.332  17.074   5.462  0.00  0.00     0.199 A 
HETATM   15  O   UNK N   1      28.692  16.049   4.901  0.00  0.00    -0.286 OA
HETATM   16  C   UNK N   1      28.999  17.497   6.724  0.00  0.00     0.063 A 
ENDROOT
BRANCH   1  17
HETATM   17  O   UNK N   1      30.468  15.605   6.637  0.00  0.00    -0.278 OA
BRANCH  17  18
HETATM   18  C   UNK N   1      31.705  15.044   6.596  0.00  0.00     0.260 C 
HETATM   19  C   UNK N   1      32.735  15.643   5.703  0.00  0.00     0.126 C 
HETATM   20  O   UNK N   1      31.986  14.065   7.267  0.00  0.00    -0.265 OA
ENDBRANCH  17  18
ENDBRANCH   1  17
BRANCH  12  21
HETATM   21  O   UNK N   1      27.058  16.394   3.011  0.00  0.00    -0.278 OA
BRANCH  21  22
HETATM   22  C   UNK N   1      26.316  15.400   2.459  0.00  0.00     0.260 C 
HETATM   23  O   UNK N   1      26.008  15.413   1.278  0.00  0.00    -0.265 OA
HETATM   24  C   UNK N   1      25.925  14.239   3.306  0.00  0.00     0.126 C 
ENDBRANCH  21  22
ENDBRANCH  12  21
BRANCH  10  25
HETATM   25  C   UNK N   1      24.099  20.292   3.192  0.00  0.00     0.176 C 
HETATM   26  O   UNK N   1      24.361  21.162   2.376  0.00  0.00    -0.646 OA
BRANCH  25  27
HETATM   27  O   UNK N   1      22.816  20.083   3.550  0.00  0.00    -0.773 OA
HETATM   28  H   UNK N   1      22.308  20.786   3.902  0.00  0.00     0.167 HD
ENDBRANCH  25  27
ENDBRANCH  10  25
TORSDOF 6
ENDMDL
