MODEL 1
REMARK VINA RESULT:      -9.1      0.000      0.000
REMARK  5 active torsions:
REMARK  status: ('A' for Active; 'I' for Inactive)
REMARK    1  A    between atoms: C_3  and  N_9 
REMARK       I    between atoms: N_9  and  C_10 
REMARK       I    between atoms: C_10  and  N_12 
REMARK    2  A    between atoms: N_12  and  C_13 
REMARK    3  A    between atoms: C_17  and  S_20 
REMARK    4  A    between atoms: C_18  and  O_19 
REMARK    5  A    between atoms: C_23  and  S_20 
ROOT
HETATM    1  C   UNK N   1      36.155  15.032  10.955  0.00  0.00     0.071 A 
HETATM    2  C   UNK N   1      36.527  13.852  10.302  0.00  0.00     0.034 A 
HETATM    3  C   UNK N   1      36.223  13.638   8.976  0.00  0.00     0.028 A 
HETATM    4  C   UNK N   1      35.550  14.601   8.244  0.00  0.00     0.058 A 
HETATM    5  C   UNK N   1      35.177  15.834   8.853  0.00  0.00     0.116 A 
HETATM    6  C   UNK N   1      35.485  16.039  10.228  0.00  0.00     0.115 A 
HETATM    7 Cl   UNK N   1      35.206  14.170   6.576  0.00  0.00    -0.083 Cl
ENDROOT
BRANCH   1   8
HETATM    8  N   UNK N   1      36.525  15.206  12.327  0.00  0.00    -0.306 N 
HETATM    9  C   UNK N   1      36.014  14.392  13.295  0.00  0.00     0.325 C 
HETATM   10  N   UNK N   1      36.642  14.271  14.494  0.00  0.00    -0.308 N 
HETATM   11  O   UNK N   1      34.999  13.745  13.075  0.00  0.00    -0.247 OA
HETATM   12  H   UNK N   1      37.339  14.924  14.734  0.00  0.00     0.170 HD
HETATM   13  H   UNK N   1      37.154  15.920  12.574  0.00  0.00     0.171 HD
BRANCH  10  14
HETATM   14  C   UNK N   1      36.326  13.226  15.420  0.00  0.00     0.045 A 
HETATM   15  C   UNK N   1      36.850  11.904  15.287  0.00  0.00     0.003 A 
HETATM   16  C   UNK N   1      37.816  11.528  14.208  0.00  0.00     0.054 C 
HETATM   17  C   UNK N   1      36.486  10.916  16.213  0.00  0.00     0.124 A 
HETATM   18  C   UNK N   1      35.634  11.225  17.272  0.00  0.00     0.043 A 
HETATM   19  F   UNK N   1      36.965   9.651  16.087  0.00  0.00    -0.205 F 
HETATM   20  C   UNK N   1      35.151  12.524  17.427  0.00  0.00     0.005 A 
HETATM   21  C   UNK N   1      35.496  13.520  16.508  0.00  0.00     0.030 A 
ENDBRANCH  10  14
ENDBRANCH   1   8
BRANCH   6  22
HETATM   22  O   UNK N   1      35.136  17.186  10.840  0.00  0.00    -0.357 OA
HETATM   23  H   UNK N   1      34.266  17.522  10.750  0.00  0.00     0.217 HD
ENDBRANCH   6  22
BRANCH   5  24
HETATM   24  S   UNK N   1      34.320  17.138   7.895  0.00  0.00     0.185 S 
HETATM   25  O   UNK N   1      33.216  16.891   8.935  0.00  0.00    -0.222 OA
HETATM   26  O   UNK N   1      34.645  18.460   8.605  0.00  0.00    -0.222 OA
BRANCH  24  27
HETATM   27  C   UNK N   1      32.870  17.571   6.873  0.00  0.00     0.131 C 
HETATM   28  C   UNK N   1      33.154  17.234   5.407  0.00  0.00     0.023 C 
HETATM   29  C   UNK N   1      31.959  17.593   4.538  0.00  0.00     0.021 C 
HETATM   30  C   UNK N   1      30.715  16.900   5.087  0.00  0.00     0.113 C 
HETATM   31  N   UNK N   1      30.484  17.296   6.479  0.00  0.00    -0.420 N 
HETATM   32  C   UNK N   1      31.607  16.840   7.302  0.00  0.00     0.134 C 
HETATM   33  H   UNK N   1      29.670  17.808   6.819  0.00  0.00     0.153 HD
ENDBRANCH  24  27
ENDBRANCH   5  24
TORSDOF 5
ENDMDL
MODEL 2
REMARK VINA RESULT:      -7.7      2.236      2.775
REMARK  5 active torsions:
REMARK  status: ('A' for Active; 'I' for Inactive)
REMARK    1  A    between atoms: C_3  and  N_9 
REMARK       I    between atoms: N_9  and  C_10 
REMARK       I    between atoms: C_10  and  N_12 
REMARK    2  A    between atoms: N_12  and  C_13 
REMARK    3  A    between atoms: C_17  and  S_20 
REMARK    4  A    between atoms: C_18  and  O_19 
REMARK    5  A    between atoms: C_23  and  S_20 
ROOT
HETATM    1  C   UNK N   1      36.199  12.830  11.019  0.00  0.00     0.071 A 
HETATM    2  C   UNK N   1      36.060  11.474  10.703  0.00  0.00     0.034 A 
HETATM    3  C   UNK N   1      35.307  11.061   9.627  0.00  0.00     0.028 A 
HETATM    4  C   UNK N   1      34.677  11.986   8.811  0.00  0.00     0.058 A 
HETATM    5  C   UNK N   1      34.814  13.381   9.070  0.00  0.00     0.116 A 
HETATM    6  C   UNK N   1      35.584  13.795  10.195  0.00  0.00     0.115 A 
HETATM    7 Cl   UNK N   1      33.729  11.306   7.498  0.00  0.00    -0.083 Cl
ENDROOT
BRANCH   1   8
HETATM    8  N   UNK N   1      37.017  13.196  12.135  0.00  0.00    -0.306 N 
HETATM    9  C   UNK N   1      36.455  13.642  13.295  0.00  0.00     0.325 C 
HETATM   10  N   UNK N   1      37.155  13.600  14.460  0.00  0.00    -0.308 N 
HETATM   11  O   UNK N   1      35.305  14.059  13.295  0.00  0.00    -0.247 OA
HETATM   12  H   UNK N   1      38.127  13.446  14.425  0.00  0.00     0.170 HD
HETATM   13  H   UNK N   1      37.995  13.125  12.065  0.00  0.00     0.171 HD
BRANCH  10  14
HETATM   14  C   UNK N   1      36.528  13.771  15.734  0.00  0.00     0.045 A 
HETATM   15  C   UNK N   1      36.694  14.957  16.514  0.00  0.00     0.003 A 
HETATM   16  C   UNK N   1      37.484  16.132  16.029  0.00  0.00     0.054 C 
HETATM   17  C   UNK N   1      36.073  15.059  17.766  0.00  0.00     0.124 A 
HETATM   18  C   UNK N   1      35.277  14.017  18.242  0.00  0.00     0.043 A 
HETATM   19  F   UNK N   1      36.236  16.175  18.523  0.00  0.00    -0.205 F 
HETATM   20  C   UNK N   1      35.082  12.873  17.468  0.00  0.00     0.005 A 
HETATM   21  C   UNK N   1      35.702  12.752  16.221  0.00  0.00     0.030 A 
ENDBRANCH  10  14
ENDBRANCH   1   8
BRANCH   6  22
HETATM   22  O   UNK N   1      35.724  15.104  10.478  0.00  0.00    -0.357 OA
HETATM   23  H   UNK N   1      35.827  15.386  11.365  0.00  0.00     0.217 HD
ENDBRANCH   6  22
BRANCH   5  24
HETATM   24  S   UNK N   1      34.023  14.624   7.985  0.00  0.00     0.185 S 
HETATM   25  O   UNK N   1      33.299  15.002   9.286  0.00  0.00    -0.222 OA
HETATM   26  O   UNK N   1      34.866  15.899   8.124  0.00  0.00    -0.222 OA
BRANCH  24  27
HETATM   27  C   UNK N   1      32.462  15.246   7.268  0.00  0.00     0.131 C 
HETATM   28  C   UNK N   1      32.157  16.638   7.828  0.00  0.00     0.023 C 
HETATM   29  C   UNK N   1      30.857  17.171   7.247  0.00  0.00     0.021 C 
HETATM   30  C   UNK N   1      30.940  17.139   5.724  0.00  0.00     0.113 C 
HETATM   31  N   UNK N   1      31.197  15.774   5.256  0.00  0.00    -0.420 N 
HETATM   32  C   UNK N   1      32.505  15.335   5.749  0.00  0.00     0.134 C 
HETATM   33  H   UNK N   1      30.565  15.219   4.680  0.00  0.00     0.153 HD
ENDBRANCH  24  27
ENDBRANCH   5  24
TORSDOF 5
ENDMDL
MODEL 3
REMARK VINA RESULT:      -7.5      3.608      4.812
REMARK  5 active torsions:
REMARK  status: ('A' for Active; 'I' for Inactive)
REMARK    1  A    between atoms: C_3  and  N_9 
REMARK       I    between atoms: N_9  and  C_10 
REMARK       I    between atoms: C_10  and  N_12 
REMARK    2  A    between atoms: N_12  and  C_13 
REMARK    3  A    between atoms: C_17  and  S_20 
REMARK    4  A    between atoms: C_18  and  O_19 
REMARK    5  A    between atoms: C_23  and  S_20 
ROOT
HETATM    1  C   UNK N   1      36.153  15.010  11.801  0.00  0.00     0.071 A 
HETATM    2  C   UNK N   1      35.088  15.786  11.332  0.00  0.00     0.034 A 
HETATM    3  C   UNK N   1      34.774  15.842   9.992  0.00  0.00     0.028 A 
HETATM    4  C   UNK N   1      35.501  15.110   9.068  0.00  0.00     0.058 A 
HETATM    5  C   UNK N   1      36.576  14.278   9.498  0.00  0.00     0.116 A 
HETATM    6  C   UNK N   1      36.899  14.240  10.884  0.00  0.00     0.115 A 
HETATM    7 Cl   UNK N   1      35.002  15.308   7.395  0.00  0.00    -0.083 Cl
ENDROOT
BRANCH   1   8
HETATM    8  N   UNK N   1      36.410  14.974  13.208  0.00  0.00    -0.306 N 
HETATM    9  C   UNK N   1      35.932  13.955  13.979  0.00  0.00     0.325 C 
HETATM   10  N   UNK N   1      36.490  13.687  15.189  0.00  0.00    -0.308 N 
HETATM   11  O   UNK N   1      35.013  13.259  13.568  0.00  0.00    -0.247 OA
HETATM   12  H   UNK N   1      37.091  14.354  15.594  0.00  0.00     0.170 HD
HETATM   13  H   UNK N   1      36.938  15.692  13.625  0.00  0.00     0.171 HD
BRANCH  10  14
HETATM   14  C   UNK N   1      36.233  12.469  15.895  0.00  0.00     0.045 A 
HETATM   15  C   UNK N   1      35.550  12.443  17.149  0.00  0.00     0.003 A 
HETATM   16  C   UNK N   1      34.995  13.679  17.787  0.00  0.00     0.054 C 
HETATM   17  C   UNK N   1      35.347  11.221  17.806  0.00  0.00     0.124 A 
HETATM   18  C   UNK N   1      35.791  10.032  17.229  0.00  0.00     0.043 A 
HETATM   19  F   UNK N   1      34.712  11.186  19.006  0.00  0.00    -0.205 F 
HETATM   20  C   UNK N   1      36.426  10.049  15.987  0.00  0.00     0.005 A 
HETATM   21  C   UNK N   1      36.644  11.260  15.323  0.00  0.00     0.030 A 
ENDBRANCH  10  14
ENDBRANCH   1   8
BRANCH   6  22
HETATM   22  O   UNK N   1      37.917  13.476  11.324  0.00  0.00    -0.357 OA
HETATM   23  H   UNK N   1      38.406  12.951  10.723  0.00  0.00     0.217 HD
ENDBRANCH   6  22
BRANCH   5  24
HETATM   24  S   UNK N   1      37.527  13.273   8.300  0.00  0.00     0.185 S 
HETATM   25  O   UNK N   1      38.706  14.075   8.873  0.00  0.00    -0.222 OA
HETATM   26  O   UNK N   1      38.024  12.049   9.082  0.00  0.00    -0.222 OA
BRANCH  24  27
HETATM   27  C   UNK N   1      38.606  13.278   6.826  0.00  0.00     0.131 C 
HETATM   28  C   UNK N   1      37.873  13.933   5.652  0.00  0.00     0.023 C 
HETATM   29  C   UNK N   1      38.754  13.942   4.414  0.00  0.00     0.021 C 
HETATM   30  C   UNK N   1      40.081  14.618   4.749  0.00  0.00     0.113 C 
HETATM   31  N   UNK N   1      40.744  13.919   5.853  0.00  0.00    -0.420 N 
HETATM   32  C   UNK N   1      39.913  14.023   7.056  0.00  0.00     0.134 C 
HETATM   33  H   UNK N   1      41.640  13.437   5.792  0.00  0.00     0.153 HD
ENDBRANCH  24  27
ENDBRANCH   5  24
TORSDOF 5
ENDMDL
MODEL 4
REMARK VINA RESULT:      -7.5      2.725      3.784
REMARK  5 active torsions:
REMARK  status: ('A' for Active; 'I' for Inactive)
REMARK    1  A    between atoms: C_3  and  N_9 
REMARK       I    between atoms: N_9  and  C_10 
REMARK       I    between atoms: C_10  and  N_12 
REMARK    2  A    between atoms: N_12  and  C_13 
REMARK    3  A    between atoms: C_17  and  S_20 
REMARK    4  A    between atoms: C_18  and  O_19 
REMARK    5  A    between atoms: C_23  and  S_20 
ROOT
HETATM    1  C   UNK N   1      36.280  11.365  12.424  0.00  0.00     0.071 A 
HETATM    2  C   UNK N   1      37.495  11.068  11.797  0.00  0.00     0.034 A 
HETATM    3  C   UNK N   1      37.977  11.838  10.763  0.00  0.00     0.028 A 
HETATM    4  C   UNK N   1      37.275  12.948  10.325  0.00  0.00     0.058 A 
HETATM    5  C   UNK N   1      36.049  13.314  10.952  0.00  0.00     0.116 A 
HETATM    6  C   UNK N   1      35.553  12.502  12.011  0.00  0.00     0.115 A 
HETATM    7 Cl   UNK N   1      38.002  13.812   8.978  0.00  0.00    -0.083 Cl
ENDROOT
BRANCH   1   8
HETATM    8  N   UNK N   1      35.847  10.541  13.511  0.00  0.00    -0.306 N 
HETATM    9  C   UNK N   1      36.171  10.857  14.798  0.00  0.00     0.325 C 
HETATM   10  N   UNK N   1      35.452  10.347  15.833  0.00  0.00    -0.308 N 
HETATM   11  O   UNK N   1      37.096  11.625  15.024  0.00  0.00    -0.247 OA
HETATM   12  H   UNK N   1      34.841   9.594  15.663  0.00  0.00     0.170 HD
HETATM   13  H   UNK N   1      35.310   9.738  13.328  0.00  0.00     0.171 HD
BRANCH  10  14
HETATM   14  C   UNK N   1      35.554  10.867  17.163  0.00  0.00     0.045 A 
HETATM   15  C   UNK N   1      35.109  12.180  17.505  0.00  0.00     0.003 A 
HETATM   16  C   UNK N   1      34.446  13.086  16.514  0.00  0.00     0.054 C 
HETATM   17  C   UNK N   1      35.255  12.644  18.819  0.00  0.00     0.124 A 
HETATM   18  C   UNK N   1      35.813  11.820  19.797  0.00  0.00     0.043 A 
HETATM   19  F   UNK N   1      34.850  13.896  19.153  0.00  0.00    -0.205 F 
HETATM   20  C   UNK N   1      36.215  10.524  19.475  0.00  0.00     0.005 A 
HETATM   21  C   UNK N   1      36.084  10.049  18.167  0.00  0.00     0.030 A 
ENDBRANCH  10  14
ENDBRANCH   1   8
BRANCH   6  22
HETATM   22  O   UNK N   1      34.391  12.809  12.617  0.00  0.00    -0.357 OA
HETATM   23  H   UNK N   1      34.301  12.706  13.544  0.00  0.00     0.217 HD
ENDBRANCH   6  22
BRANCH   5  24
HETATM   24  S   UNK N   1      35.122  14.799  10.416  0.00  0.00     0.185 S 
HETATM   25  O   UNK N   1      34.210  13.746   9.768  0.00  0.00    -0.222 OA
HETATM   26  O   UNK N   1      34.043  15.026  11.484  0.00  0.00    -0.222 OA
BRANCH  24  27
HETATM   27  C   UNK N   1      34.512  15.786   9.006  0.00  0.00     0.131 C 
HETATM   28  C   UNK N   1      33.009  15.553   8.825  0.00  0.00     0.023 C 
HETATM   29  C   UNK N   1      32.483  16.362   7.651  0.00  0.00     0.021 C 
HETATM   30  C   UNK N   1      32.846  17.831   7.854  0.00  0.00     0.113 C 
HETATM   31  N   UNK N   1      34.297  17.984   7.982  0.00  0.00    -0.420 N 
HETATM   32  C   UNK N   1      34.752  17.278   9.182  0.00  0.00     0.134 C 
HETATM   33  H   UNK N   1      34.895  18.500   7.336  0.00  0.00     0.153 HD
ENDBRANCH  24  27
ENDBRANCH   5  24
TORSDOF 5
ENDMDL
MODEL 5
REMARK VINA RESULT:      -7.5      2.951      4.628
REMARK  5 active torsions:
REMARK  status: ('A' for Active; 'I' for Inactive)
REMARK    1  A    between atoms: C_3  and  N_9 
REMARK       I    between atoms: N_9  and  C_10 
REMARK       I    between atoms: C_10  and  N_12 
REMARK    2  A    between atoms: N_12  and  C_13 
REMARK    3  A    between atoms: C_17  and  S_20 
REMARK    4  A    between atoms: C_18  and  O_19 
REMARK    5  A    between atoms: C_23  and  S_20 
ROOT
HETATM    1  C   UNK N   1      33.595  17.211   8.312  0.00  0.00     0.071 A 
HETATM    2  C   UNK N   1      34.351  17.203   7.134  0.00  0.00     0.034 A 
HETATM    3  C   UNK N   1      33.752  17.227   5.895  0.00  0.00     0.028 A 
HETATM    4  C   UNK N   1      32.373  17.279   5.780  0.00  0.00     0.058 A 
HETATM    5  C   UNK N   1      31.557  17.322   6.948  0.00  0.00     0.116 A 
HETATM    6  C   UNK N   1      32.188  17.283   8.225  0.00  0.00     0.115 A 
HETATM    7 Cl   UNK N   1      31.756  17.273   4.135  0.00  0.00    -0.083 Cl
ENDROOT
BRANCH   1   8
HETATM    8  N   UNK N   1      34.278  17.212   9.569  0.00  0.00    -0.306 N 
HETATM    9  C   UNK N   1      34.554  16.042  10.213  0.00  0.00     0.325 C 
HETATM   10  N   UNK N   1      35.527  15.991  11.161  0.00  0.00    -0.308 N 
HETATM   11  O   UNK N   1      33.940  15.025   9.920  0.00  0.00    -0.247 OA
HETATM   12  H   UNK N   1      35.882  16.835  11.524  0.00  0.00     0.170 HD
HETATM   13  H   UNK N   1      34.552  18.066   9.973  0.00  0.00     0.171 HD
BRANCH  10  14
HETATM   14  C   UNK N   1      36.054  14.753  11.648  0.00  0.00     0.045 A 
HETATM   15  C   UNK N   1      37.015  13.991  10.915  0.00  0.00     0.003 A 
HETATM   16  C   UNK N   1      37.589  14.461   9.614  0.00  0.00     0.054 C 
HETATM   17  C   UNK N   1      37.479  12.774  11.432  0.00  0.00     0.124 A 
HETATM   18  C   UNK N   1      37.022  12.316  12.668  0.00  0.00     0.043 A 
HETATM   19  F   UNK N   1      38.380  12.033  10.737  0.00  0.00    -0.205 F 
HETATM   20  C   UNK N   1      36.112  13.075  13.404  0.00  0.00     0.005 A 
HETATM   21  C   UNK N   1      35.633  14.287  12.898  0.00  0.00     0.030 A 
ENDBRANCH  10  14
ENDBRANCH   1   8
BRANCH   6  22
HETATM   22  O   UNK N   1      31.449  17.308   9.349  0.00  0.00    -0.357 OA
HETATM   23  H   UNK N   1      30.535  17.510   9.309  0.00  0.00     0.217 HD
ENDBRANCH   6  22
BRANCH   5  24
HETATM   24  S   UNK N   1      29.735  17.429   6.822  0.00  0.00     0.185 S 
HETATM   25  O   UNK N   1      29.866  15.916   6.587  0.00  0.00    -0.222 OA
HETATM   26  O   UNK N   1      29.200  17.129   8.230  0.00  0.00    -0.222 OA
BRANCH  24  27
HETATM   27  C   UNK N   1      28.265  17.181   5.768  0.00  0.00     0.131 C 
HETATM   28  C   UNK N   1      28.270  18.201   4.626  0.00  0.00     0.023 C 
HETATM   29  C   UNK N   1      27.050  18.013   3.739  0.00  0.00     0.021 C 
HETATM   30  C   UNK N   1      27.002  16.567   3.255  0.00  0.00     0.113 C 
HETATM   31  N   UNK N   1      26.961  15.649   4.396  0.00  0.00    -0.420 N 
HETATM   32  C   UNK N   1      28.199  15.784   5.167  0.00  0.00     0.134 C 
HETATM   33  H   UNK N   1      26.192  15.017   4.617  0.00  0.00     0.153 HD
ENDBRANCH  24  27
ENDBRANCH   5  24
TORSDOF 5
ENDMDL
MODEL 6
REMARK VINA RESULT:      -7.4     11.059     12.844
REMARK  5 active torsions:
REMARK  status: ('A' for Active; 'I' for Inactive)
REMARK    1  A    between atoms: C_3  and  N_9 
REMARK       I    between atoms: N_9  and  C_10 
REMARK       I    between atoms: C_10  and  N_12 
REMARK    2  A    between atoms: N_12  and  C_13 
REMARK    3  A    between atoms: C_17  and  S_20 
REMARK    4  A    between atoms: C_18  and  O_19 
REMARK    5  A    between atoms: C_23  and  S_20 
ROOT
HETATM    1  C   UNK N   1      25.257  14.846   5.544  0.00  0.00     0.071 A 
HETATM    2  C   UNK N   1      26.464  15.268   4.974  0.00  0.00     0.034 A 
HETATM    3  C   UNK N   1      26.577  16.493   4.355  0.00  0.00     0.028 A 
HETATM    4  C   UNK N   1      25.495  17.354   4.295  0.00  0.00     0.058 A 
HETATM    5  C   UNK N   1      24.252  16.986   4.888  0.00  0.00     0.116 A 
HETATM    6  C   UNK N   1      24.143  15.711   5.514  0.00  0.00     0.115 A 
HETATM    7 Cl   UNK N   1      25.784  18.865   3.446  0.00  0.00    -0.083 Cl
ENDROOT
BRANCH   1   8
HETATM    8  N   UNK N   1      25.213  13.574   6.197  0.00  0.00    -0.306 N 
HETATM    9  C   UNK N   1      24.906  13.481   7.523  0.00  0.00     0.325 C 
HETATM   10  N   UNK N   1      24.466  12.306   8.046  0.00  0.00    -0.308 N 
HETATM   11  O   UNK N   1      25.002  14.466   8.242  0.00  0.00    -0.247 OA
HETATM   12  H   UNK N   1      24.570  11.481   7.518  0.00  0.00     0.170 HD
HETATM   13  H   UNK N   1      25.405  12.757   5.684  0.00  0.00     0.171 HD
BRANCH  10  14
HETATM   14  C   UNK N   1      23.857  12.227   9.339  0.00  0.00     0.045 A 
HETATM   15  C   UNK N   1      22.446  12.338   9.526  0.00  0.00     0.003 A 
HETATM   16  C   UNK N   1      21.493  12.484   8.380  0.00  0.00     0.054 C 
HETATM   17  C   UNK N   1      21.908  12.276  10.819  0.00  0.00     0.124 A 
HETATM   18  C   UNK N   1      22.743  12.083  11.918  0.00  0.00     0.043 A 
HETATM   19  F   UNK N   1      20.569  12.397  11.010  0.00  0.00    -0.205 F 
HETATM   20  C   UNK N   1      24.119  11.937  11.736  0.00  0.00     0.005 A 
HETATM   21  C   UNK N   1      24.672  12.005  10.454  0.00  0.00     0.030 A 
ENDBRANCH  10  14
ENDBRANCH   1   8
BRANCH   6  22
HETATM   22  O   UNK N   1      22.981  15.325   6.072  0.00  0.00    -0.357 OA
HETATM   23  H   UNK N   1      22.500  14.607   5.712  0.00  0.00     0.217 HD
ENDBRANCH   6  22
BRANCH   5  24
HETATM   24  S   UNK N   1      22.818  18.123   4.855  0.00  0.00     0.185 S 
HETATM   25  O   UNK N   1      22.166  16.953   4.102  0.00  0.00    -0.222 OA
HETATM   26  O   UNK N   1      21.969  17.762   6.082  0.00  0.00    -0.222 OA
BRANCH  24  27
HETATM   27  C   UNK N   1      21.651  19.071   3.818  0.00  0.00     0.131 C 
HETATM   28  C   UNK N   1      22.413  20.137   3.026  0.00  0.00     0.023 C 
HETATM   29  C   UNK N   1      21.456  20.941   2.160  0.00  0.00     0.021 C 
HETATM   30  C   UNK N   1      20.660  19.986   1.275  0.00  0.00     0.113 C 
HETATM   31  N   UNK N   1      19.929  19.019   2.097  0.00  0.00    -0.420 N 
HETATM   32  C   UNK N   1      20.887  18.193   2.837  0.00  0.00     0.134 C 
HETATM   33  H   UNK N   1      18.914  18.936   2.147  0.00  0.00     0.153 HD
ENDBRANCH  24  27
ENDBRANCH   5  24
TORSDOF 5
ENDMDL
MODEL 7
REMARK VINA RESULT:      -7.4      3.453      9.069
REMARK  5 active torsions:
REMARK  status: ('A' for Active; 'I' for Inactive)
REMARK    1  A    between atoms: C_3  and  N_9 
REMARK       I    between atoms: N_9  and  C_10 
REMARK       I    between atoms: C_10  and  N_12 
REMARK    2  A    between atoms: N_12  and  C_13 
REMARK    3  A    between atoms: C_17  and  S_20 
REMARK    4  A    between atoms: C_18  and  O_19 
REMARK    5  A    between atoms: C_23  and  S_20 
ROOT
HETATM    1  C   UNK N   1      34.753  15.612   7.473  0.00  0.00     0.071 A 
HETATM    2  C   UNK N   1      35.598  14.884   6.628  0.00  0.00     0.034 A 
HETATM    3  C   UNK N   1      36.443  13.914   7.117  0.00  0.00     0.028 A 
HETATM    4  C   UNK N   1      36.467  13.618   8.470  0.00  0.00     0.058 A 
HETATM    5  C   UNK N   1      35.602  14.307   9.370  0.00  0.00     0.116 A 
HETATM    6  C   UNK N   1      34.742  15.318   8.853  0.00  0.00     0.115 A 
HETATM    7 Cl   UNK N   1      37.618  12.379   8.947  0.00  0.00    -0.083 Cl
ENDROOT
BRANCH   1   8
HETATM    8  N   UNK N   1      33.879  16.588   6.899  0.00  0.00    -0.306 N 
HETATM    9  C   UNK N   1      32.540  16.350   6.795  0.00  0.00     0.325 C 
HETATM   10  N   UNK N   1      31.667  17.381   6.644  0.00  0.00    -0.308 N 
HETATM   11  O   UNK N   1      32.116  15.204   6.865  0.00  0.00    -0.247 OA
HETATM   12  H   UNK N   1      32.018  18.269   6.401  0.00  0.00     0.170 HD
HETATM   13  H   UNK N   1      34.247  17.440   6.574  0.00  0.00     0.171 HD
BRANCH  10  14
HETATM   14  C   UNK N   1      30.257  17.221   6.826  0.00  0.00     0.045 A 
HETATM   15  C   UNK N   1      29.588  17.641   8.016  0.00  0.00     0.003 A 
HETATM   16  C   UNK N   1      30.301  18.335   9.134  0.00  0.00     0.054 C 
HETATM   17  C   UNK N   1      28.207  17.437   8.147  0.00  0.00     0.124 A 
HETATM   18  C   UNK N   1      27.483  16.847   7.112  0.00  0.00     0.043 A 
HETATM   19  F   UNK N   1      27.564  17.818   9.281  0.00  0.00    -0.205 F 
HETATM   20  C   UNK N   1      28.126  16.469   5.933  0.00  0.00     0.005 A 
HETATM   21  C   UNK N   1      29.504  16.657   5.789  0.00  0.00     0.030 A 
ENDBRANCH  10  14
ENDBRANCH   1   8
BRANCH   6  22
HETATM   22  O   UNK N   1      33.923  15.999   9.676  0.00  0.00    -0.357 OA
HETATM   23  H   UNK N   1      34.267  16.659  10.243  0.00  0.00     0.217 HD
ENDBRANCH   6  22
BRANCH   5  24
HETATM   24  S   UNK N   1      35.588  13.907  11.156  0.00  0.00     0.185 S 
HETATM   25  O   UNK N   1      36.313  15.257  11.256  0.00  0.00    -0.222 OA
HETATM   26  O   UNK N   1      34.330  14.579  11.725  0.00  0.00    -0.222 OA
BRANCH  24  27
HETATM   27  C   UNK N   1      36.585  13.579  12.650  0.00  0.00     0.131 C 
HETATM   28  C   UNK N   1      35.728  13.800  13.900  0.00  0.00     0.023 C 
HETATM   29  C   UNK N   1      36.543  13.537  15.156  0.00  0.00     0.021 C 
HETATM   30  C   UNK N   1      37.146  12.137  15.077  0.00  0.00     0.113 C 
HETATM   31  N   UNK N   1      37.980  12.009  13.881  0.00  0.00    -0.420 N 
HETATM   32  C   UNK N   1      37.141  12.163  12.689  0.00  0.00     0.134 C 
HETATM   33  H   UNK N   1      38.986  11.839  13.878  0.00  0.00     0.153 HD
ENDBRANCH  24  27
ENDBRANCH   5  24
TORSDOF 5
ENDMDL
MODEL 8
REMARK VINA RESULT:      -7.1      2.708      3.250
REMARK  5 active torsions:
REMARK  status: ('A' for Active; 'I' for Inactive)
REMARK    1  A    between atoms: C_3  and  N_9 
REMARK       I    between atoms: N_9  and  C_10 
REMARK       I    between atoms: C_10  and  N_12 
REMARK    2  A    between atoms: N_12  and  C_13 
REMARK    3  A    between atoms: C_17  and  S_20 
REMARK    4  A    between atoms: C_18  and  O_19 
REMARK    5  A    between atoms: C_23  and  S_20 
ROOT
HETATM    1  C   UNK N   1      35.764  15.120  10.367  0.00  0.00     0.071 A 
HETATM    2  C   UNK N   1      35.659  16.505  10.538  0.00  0.00     0.034 A 
HETATM    3  C   UNK N   1      34.902  17.279   9.687  0.00  0.00     0.028 A 
HETATM    4  C   UNK N   1      34.204  16.699   8.642  0.00  0.00     0.058 A 
HETATM    5  C   UNK N   1      34.250  15.288   8.443  0.00  0.00     0.116 A 
HETATM    6  C   UNK N   1      35.048  14.500   9.322  0.00  0.00     0.115 A 
HETATM    7 Cl   UNK N   1      33.308  17.818   7.625  0.00  0.00    -0.083 Cl
ENDROOT
BRANCH   1   8
HETATM    8  N   UNK N   1      36.545  14.369  11.302  0.00  0.00    -0.306 N 
HETATM    9  C   UNK N   1      35.968  13.812  12.405  0.00  0.00     0.325 C 
HETATM   10  N   UNK N   1      36.578  12.789  13.058  0.00  0.00    -0.308 N 
HETATM   11  O   UNK N   1      34.881  14.217  12.795  0.00  0.00    -0.247 OA
HETATM   12  H   UNK N   1      37.523  12.595  12.861  0.00  0.00     0.170 HD
HETATM   13  H   UNK N   1      37.510  14.253  11.147  0.00  0.00     0.171 HD
BRANCH  10  14
HETATM   14  C   UNK N   1      35.894  11.982  14.023  0.00  0.00     0.045 A 
HETATM   15  C   UNK N   1      35.813  12.346  15.401  0.00  0.00     0.003 A 
HETATM   16  C   UNK N   1      36.382  13.626  15.929  0.00  0.00     0.054 C 
HETATM   17  C   UNK N   1      35.148  11.504  16.305  0.00  0.00     0.124 A 
HETATM   18  C   UNK N   1      34.548  10.328  15.857  0.00  0.00     0.043 A 
HETATM   19  F   UNK N   1      35.078  11.832  17.621  0.00  0.00    -0.205 F 
HETATM   20  C   UNK N   1      34.594   9.988  14.505  0.00  0.00     0.005 A 
HETATM   21  C   UNK N   1      35.260  10.811  13.593  0.00  0.00     0.030 A 
ENDBRANCH  10  14
ENDBRANCH   1   8
BRANCH   6  22
HETATM   22  O   UNK N   1      35.127  13.167   9.156  0.00  0.00    -0.357 OA
HETATM   23  H   UNK N   1      34.806  12.769   8.371  0.00  0.00     0.217 HD
ENDBRANCH   6  22
BRANCH   5  24
HETATM   24  S   UNK N   1      33.306  14.494   7.092  0.00  0.00     0.185 S 
HETATM   25  O   UNK N   1      34.708  14.048   6.649  0.00  0.00    -0.222 OA
HETATM   26  O   UNK N   1      33.035  13.057   7.559  0.00  0.00    -0.222 OA
BRANCH  24  27
HETATM   27  C   UNK N   1      33.014  14.397   5.292  0.00  0.00     0.131 C 
HETATM   28  C   UNK N   1      33.542  15.665   4.615  0.00  0.00     0.023 C 
HETATM   29  C   UNK N   1      33.303  15.606   3.115  0.00  0.00     0.021 C 
HETATM   30  C   UNK N   1      33.919  14.324   2.560  0.00  0.00     0.113 C 
HETATM   31  N   UNK N   1      33.343  13.153   3.225  0.00  0.00    -0.420 N 
HETATM   32  C   UNK N   1      33.684  13.191   4.649  0.00  0.00     0.134 C 
HETATM   33  H   UNK N   1      32.791  12.427   2.768  0.00  0.00     0.153 HD
ENDBRANCH  24  27
ENDBRANCH   5  24
TORSDOF 5
ENDMDL
MODEL 9
REMARK VINA RESULT:      -7.1      9.085     12.243
REMARK  5 active torsions:
REMARK  status: ('A' for Active; 'I' for Inactive)
REMARK    1  A    between atoms: C_3  and  N_9 
REMARK       I    between atoms: N_9  and  C_10 
REMARK       I    between atoms: C_10  and  N_12 
REMARK    2  A    between atoms: N_12  and  C_13 
REMARK    3  A    between atoms: C_17  and  S_20 
REMARK    4  A    between atoms: C_18  and  O_19 
REMARK    5  A    between atoms: C_23  and  S_20 
ROOT
HETATM    1  C   UNK N   1      27.034  18.787   4.932  0.00  0.00     0.071 A 
HETATM    2  C   UNK N   1      27.156  19.967   4.189  0.00  0.00     0.034 A 
HETATM    3  C   UNK N   1      26.081  20.514   3.526  0.00  0.00     0.028 A 
HETATM    4  C   UNK N   1      24.834  19.916   3.593  0.00  0.00     0.058 A 
HETATM    5  C   UNK N   1      24.648  18.730   4.363  0.00  0.00     0.116 A 
HETATM    6  C   UNK N   1      25.771  18.167   5.033  0.00  0.00     0.115 A 
HETATM    7 Cl   UNK N   1      23.569  20.713   2.670  0.00  0.00    -0.083 Cl
ENDROOT
BRANCH   1   8
HETATM    8  N   UNK N   1      28.183  18.285   5.620  0.00  0.00    -0.306 N 
HETATM    9  C   UNK N   1      29.057  17.443   4.996  0.00  0.00     0.325 C 
HETATM   10  N   UNK N   1      30.322  17.291   5.468  0.00  0.00    -0.308 N 
HETATM   11  O   UNK N   1      28.710  16.841   3.989  0.00  0.00    -0.247 OA
HETATM   12  H   UNK N   1      30.536  17.623   6.370  0.00  0.00     0.170 HD
HETATM   13  H   UNK N   1      28.346  18.549   6.553  0.00  0.00     0.171 HD
BRANCH  10  14
HETATM   14  C   UNK N   1      31.354  16.666   4.699  0.00  0.00     0.045 A 
HETATM   15  C   UNK N   1      31.674  15.281   4.834  0.00  0.00     0.003 A 
HETATM   16  C   UNK N   1      30.913  14.366   5.743  0.00  0.00     0.054 C 
HETATM   17  C   UNK N   1      32.711  14.728   4.069  0.00  0.00     0.124 A 
HETATM   18  C   UNK N   1      33.415  15.521   3.163  0.00  0.00     0.043 A 
HETATM   19  F   UNK N   1      33.034  13.416   4.201  0.00  0.00    -0.205 F 
HETATM   20  C   UNK N   1      33.081  16.866   3.002  0.00  0.00     0.005 A 
HETATM   21  C   UNK N   1      32.056  17.434   3.763  0.00  0.00     0.030 A 
ENDBRANCH  10  14
ENDBRANCH   1   8
BRANCH   6  22
HETATM   22  O   UNK N   1      25.635  17.040   5.758  0.00  0.00    -0.357 OA
HETATM   23  H   UNK N   1      26.390  16.615   6.113  0.00  0.00     0.217 HD
ENDBRANCH   6  22
BRANCH   5  24
HETATM   24  S   UNK N   1      23.001  17.942   4.497  0.00  0.00     0.185 S 
HETATM   25  O   UNK N   1      23.741  16.759   3.853  0.00  0.00    -0.222 OA
HETATM   26  O   UNK N   1      23.011  17.178   5.828  0.00  0.00    -0.222 OA
BRANCH  24  27
HETATM   27  C   UNK N   1      21.598  17.186   3.605  0.00  0.00     0.131 C 
HETATM   28  C   UNK N   1      22.017  15.824   3.045  0.00  0.00     0.023 C 
HETATM   29  C   UNK N   1      20.863  15.181   2.294  0.00  0.00     0.021 C 
HETATM   30  C   UNK N   1      19.647  15.107   3.213  0.00  0.00     0.113 C 
HETATM   31  N   UNK N   1      19.280  16.446   3.680  0.00  0.00    -0.420 N 
HETATM   32  C   UNK N   1      20.374  16.991   4.488  0.00  0.00     0.134 C 
HETATM   33  H   UNK N   1      18.403  16.923   3.475  0.00  0.00     0.153 HD
ENDBRANCH  24  27
ENDBRANCH   5  24
TORSDOF 5
ENDMDL
