REMARK  5 active torsions:
REMARK  status: ('A' for Active; 'I' for Inactive)
REMARK    1  A    between atoms: C_3  and  C_16 
REMARK    2  A    between atoms: N_10  and  C_11 
REMARK    3  A    between atoms: C_11  and  C_12 
REMARK    4  A    between atoms: C_12  and  O_14 
REMARK    5  A    between atoms: C_16  and  C_17 
ROOT
HETATM    1  C   UNK N   1      -3.035  -2.831  -0.413  0.00  0.00     0.069 C 
HETATM    2  C   UNK N   1      -1.641  -3.339  -0.237  0.00  0.00     0.016 A 
HETATM    3  C   UNK N   1      -0.553  -2.587   0.209  0.00  0.00    -0.018 A 
HETATM    4  C   UNK N   1       0.524  -3.476   0.228  0.00  0.00     0.002 A 
HETATM    5  C   UNK N   1       1.863  -3.318   0.588  0.00  0.00     0.056 A 
HETATM    6  C   UNK N   1       2.736  -4.406   0.439  0.00  0.00     0.117 A 
HETATM    7  C   UNK N   1       2.257  -5.638  -0.047  0.00  0.00     0.044 A 
HETATM    8  C   UNK N   1       0.901  -5.788  -0.378  0.00  0.00     0.033 A 
HETATM    9  C   UNK N   1       0.061  -4.684  -0.225  0.00  0.00     0.046 A 
HETATM   10  N   UNK N   1      -1.260  -4.615  -0.493  0.00  0.00    -0.340 N 
HETATM   11  F   UNK N   1       4.048  -4.261   0.744  0.00  0.00    -0.206 F 
ENDROOT
BRANCH   3  12
HETATM   12  C   UNK N   1      -0.630  -1.114   0.581  0.00  0.00     0.098 C 
BRANCH  12  13
HETATM   13  C   UNK N   1       0.567  -0.233   0.309  0.00  0.00     0.014 A 
HETATM   14  C   UNK N   1       0.492   1.141   0.575  0.00  0.00     0.026 A 
HETATM   15  C   UNK N   1       1.635   1.938   0.426  0.00  0.00     0.015 A 
HETATM   16  C   UNK N   1       2.843   1.350   0.042  0.00  0.00    -0.009 A 
HETATM   17  C   UNK N   1       4.016   2.104  -0.060  0.00  0.00     0.013 A 
HETATM   18  C   UNK N   1       2.875  -0.030  -0.227  0.00  0.00     0.042 A 
HETATM   19  C   UNK N   1       5.218   1.478  -0.416  0.00  0.00     0.001 A 
HETATM   20  C   UNK N   1       5.247   0.103  -0.677  0.00  0.00     0.002 A 
HETATM   21  C   UNK N   1       4.074  -0.650  -0.586  0.00  0.00     0.030 A 
HETATM   22  N   UNK N   1       1.745  -0.765  -0.102  0.00  0.00    -0.359 N 
ATOM     23  HN  UNK N   1       1.782  -1.760  -0.325  1.00  0.00     0.166 HD
ENDBRANCH  12  13
ENDBRANCH   3  12
BRANCH  10  24
HETATM   24  C   UNK N   1      -2.109  -5.695  -0.992  0.00  0.00     0.238 C 
BRANCH  24  25
HETATM   25  C   UNK N   1      -2.298  -6.778   0.032  0.00  0.00     0.158 C 
HETATM   26  O   UNK N   1      -3.423  -7.075   0.395  0.00  0.00    -0.649 OA
BRANCH  25  27
HETATM   27  O   UNK N   1      -1.241  -7.449   0.526  0.00  0.00    -0.775 OA
HETATM   28  H   UNK N   1      -1.277  -8.320   0.871  0.00  0.00     0.167 HD
ENDBRANCH  25  27
ENDBRANCH  24  25
ENDBRANCH  10  24
TORSDOF 5
