MODEL 1
REMARK VINA RESULT:      -7.3      0.000      0.000
REMARK  6 active torsions:
REMARK  status: ('A' for Active; 'I' for Inactive)
REMARK    1  A    between atoms: C_3  and  N_2 
REMARK    2  A    between atoms: N_5  and  C_10 
REMARK    3  A    between atoms: C_7  and  O_8 
REMARK    4  A    between atoms: C_16  and  C_28 
REMARK    5  A    between atoms: N_18  and  C_22 
REMARK    6  A    between atoms: C_28  and  O_30 
ROOT
HETATM    1  C   UNK N   1      27.256  18.508   5.074  0.00  0.00     0.104 A 
HETATM    2  C   UNK N   1      27.466  19.776   4.521  0.00  0.00     0.049 A 
HETATM    3  C   UNK N   1      26.413  20.413   3.856  0.00  0.00     0.023 A 
HETATM    4  C   UNK N   1      25.151  19.801   3.790  0.00  0.00     0.060 A 
HETATM    5  C   UNK N   1      24.072  20.421   3.143  0.00  0.00     0.204 A 
HETATM    6  O   UNK N   1      24.225  21.505   2.603  0.00  0.00    -0.286 OA
HETATM    7  C   UNK N   1      22.817  19.781   3.127  0.00  0.00     0.104 A 
HETATM    8  C   UNK N   1      22.680  18.550   3.778  0.00  0.00     0.123 A 
HETATM    9  N   UNK N   1      23.727  17.943   4.409  0.00  0.00    -0.286 N 
HETATM   10  C   UNK N   1      24.966  18.543   4.402  0.00  0.00     0.129 A 
HETATM   11  N   UNK N   1      26.026  17.941   4.997  0.00  0.00    -0.327 N 
ATOM     12  HN  UNK N   1      25.892  17.016   5.406  1.00  0.00     0.169 HD
ENDROOT
BRANCH   1  13
HETATM   13  N   UNK N   1      28.292  17.808   5.742  0.00  0.00    -0.363 N 
HETATM   14  C   UNK N   1      29.584  17.581   5.169  0.00  0.00     0.151 C 
HETATM   15  C   UNK N   1      30.386  16.915   6.285  0.00  0.00     0.124 C 
HETATM   16  C   UNK N   1      29.567  17.114   7.568  0.00  0.00     0.162 C 
HETATM   17  C   UNK N   1      28.157  17.419   7.113  0.00  0.00     0.158 C 
BRANCH  15  18
HETATM   18  N   UNK N   1      30.512  15.495   6.001  0.00  0.00    -0.417 N 
HETATM   19  C   UNK N   1      31.651  15.005   6.760  0.00  0.00     0.140 C 
HETATM   20  H   UNK N   1      29.912  14.945   5.385  0.00  0.00     0.153 HD
ENDBRANCH  15  18
BRANCH  16  21
HETATM   21  O   UNK N   1      30.044  18.222   8.271  0.00  0.00    -0.387 OA
HETATM   22  C   UNK N   1      29.132  18.403   9.315  0.00  0.00     0.202 C 
ENDBRANCH  16  21
ENDBRANCH   1  13
BRANCH   9  23
HETATM   23  C   UNK N   1      23.452  16.697   5.102  0.00  0.00     0.156 A 
HETATM   24  N   UNK N   1      22.934  16.638   6.354  0.00  0.00    -0.346 N 
HETATM   25  C   UNK N   1      22.821  15.344   6.821  0.00  0.00     0.097 A 
ATOM     26  HN  UNK N   1      22.656  17.460   6.890  1.00  0.00     0.167 HD
HETATM   27  C   UNK N   1      23.265  14.341   5.939  0.00  0.00     0.070 A 
HETATM   28  S   UNK N   1      23.781  15.154   4.593  0.00  0.00    -0.064 SA
ENDBRANCH   9  23
BRANCH   7  29
HETATM   29  C   UNK N   1      21.625  20.366   2.461  0.00  0.00     0.181 C 
HETATM   30  O   UNK N   1      20.891  19.678   1.770  0.00  0.00    -0.646 OA
BRANCH  29  31
HETATM   31  O   UNK N   1      21.344  21.675   2.619  0.00  0.00    -0.772 OA
HETATM   32  H   UNK N   1      21.109  22.011   3.461  0.00  0.00     0.167 HD
ENDBRANCH  29  31
ENDBRANCH   7  29
TORSDOF 6
ENDMDL
MODEL 2
REMARK VINA RESULT:      -7.3      1.222      2.008
REMARK  6 active torsions:
REMARK  status: ('A' for Active; 'I' for Inactive)
REMARK    1  A    between atoms: C_3  and  N_2 
REMARK    2  A    between atoms: N_5  and  C_10 
REMARK    3  A    between atoms: C_7  and  O_8 
REMARK    4  A    between atoms: C_16  and  C_28 
REMARK    5  A    between atoms: N_18  and  C_22 
REMARK    6  A    between atoms: C_28  and  O_30 
ROOT
HETATM    1  C   UNK N   1      27.299  18.713   5.280  0.00  0.00     0.104 A 
HETATM    2  C   UNK N   1      27.516  19.886   4.548  0.00  0.00     0.049 A 
HETATM    3  C   UNK N   1      26.459  20.438   3.817  0.00  0.00     0.023 A 
HETATM    4  C   UNK N   1      25.188  19.844   3.861  0.00  0.00     0.060 A 
HETATM    5  C   UNK N   1      24.105  20.382   3.150  0.00  0.00     0.204 A 
HETATM    6  O   UNK N   1      24.262  21.375   2.458  0.00  0.00    -0.286 OA
HETATM    7  C   UNK N   1      22.841  19.767   3.248  0.00  0.00     0.104 A 
HETATM    8  C   UNK N   1      22.700  18.645   4.071  0.00  0.00     0.123 A 
HETATM    9  N   UNK N   1      23.750  18.116   4.764  0.00  0.00    -0.286 N 
HETATM   10  C   UNK N   1      24.997  18.689   4.650  0.00  0.00     0.129 A 
HETATM   11  N   UNK N   1      26.060  18.161   5.306  0.00  0.00    -0.327 N 
ATOM     12  HN  UNK N   1      25.922  17.307   5.846  1.00  0.00     0.169 HD
ENDROOT
BRANCH   1  13
HETATM   13  N   UNK N   1      28.338  18.099   6.024  0.00  0.00    -0.363 N 
HETATM   14  C   UNK N   1      28.231  17.793   7.418  0.00  0.00     0.151 C 
HETATM   15  C   UNK N   1      29.519  17.038   7.744  0.00  0.00     0.124 C 
HETATM   16  C   UNK N   1      30.141  16.665   6.391  0.00  0.00     0.162 C 
HETATM   17  C   UNK N   1      29.512  17.597   5.378  0.00  0.00     0.158 C 
BRANCH  15  18
HETATM   18  N   UNK N   1      30.419  17.918   8.470  0.00  0.00    -0.417 N 
HETATM   19  C   UNK N   1      29.647  18.534   9.537  0.00  0.00     0.140 C 
HETATM   20  H   UNK N   1      31.407  18.074   8.268  0.00  0.00     0.153 HD
ENDBRANCH  15  18
BRANCH  16  21
HETATM   21  O   UNK N   1      29.793  15.357   6.050  0.00  0.00    -0.387 OA
HETATM   22  C   UNK N   1      30.898  14.864   5.350  0.00  0.00     0.202 C 
ENDBRANCH  16  21
ENDBRANCH   1  13
BRANCH   9  23
HETATM   23  C   UNK N   1      23.472  16.987   5.633  0.00  0.00     0.156 A 
HETATM   24  N   UNK N   1      24.400  16.056   5.966  0.00  0.00    -0.346 N 
HETATM   25  C   UNK N   1      23.881  15.047   6.752  0.00  0.00     0.097 A 
ATOM     26  HN  UNK N   1      25.375  16.097   5.669  1.00  0.00     0.167 HD
HETATM   27  C   UNK N   1      22.509  15.157   7.052  0.00  0.00     0.070 A 
HETATM   28  S   UNK N   1      22.019  16.546   6.298  0.00  0.00    -0.064 SA
ENDBRANCH   9  23
BRANCH   7  29
HETATM   29  C   UNK N   1      21.645  20.271   2.526  0.00  0.00     0.181 C 
HETATM   30  O   UNK N   1      20.934  19.513   1.884  0.00  0.00    -0.646 OA
BRANCH  29  31
HETATM   31  O   UNK N   1      21.333  21.581   2.576  0.00  0.00    -0.772 OA
HETATM   32  H   UNK N   1      21.835  22.167   3.107  0.00  0.00     0.167 HD
ENDBRANCH  29  31
ENDBRANCH   7  29
TORSDOF 6
ENDMDL
MODEL 3
REMARK VINA RESULT:      -7.1      1.837      2.117
REMARK  6 active torsions:
REMARK  status: ('A' for Active; 'I' for Inactive)
REMARK    1  A    between atoms: C_3  and  N_2 
REMARK    2  A    between atoms: N_5  and  C_10 
REMARK    3  A    between atoms: C_7  and  O_8 
REMARK    4  A    between atoms: C_16  and  C_28 
REMARK    5  A    between atoms: N_18  and  C_22 
REMARK    6  A    between atoms: C_28  and  O_30 
ROOT
HETATM    1  C   UNK N   1      26.757  18.540   3.858  0.00  0.00     0.104 A 
HETATM    2  C   UNK N   1      26.674  19.846   3.362  0.00  0.00     0.049 A 
HETATM    3  C   UNK N   1      25.415  20.403   3.117  0.00  0.00     0.023 A 
HETATM    4  C   UNK N   1      24.253  19.671   3.411  0.00  0.00     0.060 A 
HETATM    5  C   UNK N   1      22.977  20.208   3.189  0.00  0.00     0.204 A 
HETATM    6  O   UNK N   1      22.859  21.325   2.711  0.00  0.00    -0.286 OA
HETATM    7  C   UNK N   1      21.840  19.447   3.528  0.00  0.00     0.104 A 
HETATM    8  C   UNK N   1      22.021  18.182   4.096  0.00  0.00     0.123 A 
HETATM    9  N   UNK N   1      23.261  17.655   4.313  0.00  0.00    -0.286 N 
HETATM   10  C   UNK N   1      24.378  18.375   3.956  0.00  0.00     0.129 A 
HETATM   11  N   UNK N   1      25.618  17.857   4.135  0.00  0.00    -0.327 N 
ATOM     12  HN  UNK N   1      25.700  16.906   4.496  1.00  0.00     0.169 HD
ENDROOT
BRANCH   1  13
HETATM   13  N   UNK N   1      28.006  17.918   4.107  0.00  0.00    -0.363 N 
HETATM   14  C   UNK N   1      29.006  18.479   4.964  0.00  0.00     0.151 C 
HETATM   15  C   UNK N   1      30.100  17.414   5.025  0.00  0.00     0.124 C 
HETATM   16  C   UNK N   1      29.477  16.138   4.442  0.00  0.00     0.162 C 
HETATM   17  C   UNK N   1      28.282  16.596   3.635  0.00  0.00     0.158 C 
BRANCH  15  18
HETATM   18  N   UNK N   1      31.221  17.832   4.199  0.00  0.00    -0.417 N 
HETATM   19  C   UNK N   1      32.024  16.649   3.937  0.00  0.00     0.140 C 
HETATM   20  H   UNK N   1      31.408  18.778   3.866  0.00  0.00     0.153 HD
ENDBRANCH  15  18
BRANCH  16  21
HETATM   21  O   UNK N   1      29.014  15.319   5.474  0.00  0.00    -0.387 OA
HETATM   22  C   UNK N   1      27.967  14.587   4.907  0.00  0.00     0.202 C 
ENDBRANCH  16  21
ENDBRANCH   1  13
BRANCH   9  23
HETATM   23  C   UNK N   1      23.327  16.359   4.963  0.00  0.00     0.156 A 
HETATM   24  N   UNK N   1      23.471  16.202   6.303  0.00  0.00    -0.346 N 
HETATM   25  C   UNK N   1      23.571  14.877   6.675  0.00  0.00     0.097 A 
ATOM     26  HN  UNK N   1      23.502  16.980   6.963  1.00  0.00     0.167 HD
HETATM   27  C   UNK N   1      23.516  13.946   5.621  0.00  0.00     0.070 A 
HETATM   28  S   UNK N   1      23.339  14.861   4.253  0.00  0.00    -0.064 SA
ENDBRANCH   9  23
BRANCH   7  29
HETATM   29  C   UNK N   1      20.453  19.939   3.322  0.00  0.00     0.181 C 
HETATM   30  O   UNK N   1      19.619  19.247   2.761  0.00  0.00    -0.646 OA
BRANCH  29  31
HETATM   31  O   UNK N   1      20.105  21.166   3.758  0.00  0.00    -0.772 OA
HETATM   32  H   UNK N   1      19.202  21.410   3.814  0.00  0.00     0.167 HD
ENDBRANCH  29  31
ENDBRANCH   7  29
TORSDOF 6
ENDMDL
MODEL 4
REMARK VINA RESULT:      -6.9     11.297     13.858
REMARK  6 active torsions:
REMARK  status: ('A' for Active; 'I' for Inactive)
REMARK    1  A    between atoms: C_3  and  N_2 
REMARK    2  A    between atoms: N_5  and  C_10 
REMARK    3  A    between atoms: C_7  and  O_8 
REMARK    4  A    between atoms: C_16  and  C_28 
REMARK    5  A    between atoms: N_18  and  C_22 
REMARK    6  A    between atoms: C_28  and  O_30 
ROOT
HETATM    1  C   UNK N   1      29.034  23.613  -4.166  0.00  0.00     0.104 A 
HETATM    2  C   UNK N   1      29.685  23.800  -2.941  0.00  0.00     0.049 A 
HETATM    3  C   UNK N   1      30.773  22.982  -2.617  0.00  0.00     0.023 A 
HETATM    4  C   UNK N   1      31.228  22.020  -3.532  0.00  0.00     0.060 A 
HETATM    5  C   UNK N   1      32.324  21.196  -3.240  0.00  0.00     0.204 A 
HETATM    6  O   UNK N   1      32.890  21.291  -2.163  0.00  0.00    -0.286 OA
HETATM    7  C   UNK N   1      32.763  20.265  -4.203  0.00  0.00     0.104 A 
HETATM    8  C   UNK N   1      32.100  20.206  -5.434  0.00  0.00     0.123 A 
HETATM    9  N   UNK N   1      31.033  21.006  -5.722  0.00  0.00    -0.286 N 
HETATM   10  C   UNK N   1      30.575  21.896  -4.778  0.00  0.00     0.129 A 
HETATM   11  N   UNK N   1      29.497  22.678  -5.033  0.00  0.00    -0.327 N 
ATOM     12  HN  UNK N   1      29.009  22.557  -5.921  1.00  0.00     0.169 HD
ENDROOT
BRANCH   1  13
HETATM   13  N   UNK N   1      27.916  24.399  -4.540  0.00  0.00    -0.363 N 
HETATM   14  C   UNK N   1      26.598  23.864  -4.703  0.00  0.00     0.151 C 
HETATM   15  C   UNK N   1      25.721  25.085  -4.977  0.00  0.00     0.124 C 
HETATM   16  C   UNK N   1      26.574  26.307  -4.611  0.00  0.00     0.162 C 
HETATM   17  C   UNK N   1      28.008  25.825  -4.623  0.00  0.00     0.158 C 
BRANCH  15  18
HETATM   18  N   UNK N   1      25.388  25.127  -6.391  0.00  0.00    -0.417 N 
HETATM   19  C   UNK N   1      25.549  26.504  -6.829  0.00  0.00     0.140 C 
HETATM   20  H   UNK N   1      25.096  24.338  -6.968  0.00  0.00     0.153 HD
ENDBRANCH  15  18
BRANCH  16  21
HETATM   21  O   UNK N   1      26.271  26.730  -3.316  0.00  0.00    -0.387 OA
HETATM   22  C   UNK N   1      25.899  28.070  -3.455  0.00  0.00     0.202 C 
ENDBRANCH  16  21
ENDBRANCH   1  13
BRANCH   9  23
HETATM   23  C   UNK N   1      30.463  20.898  -7.053  0.00  0.00     0.156 A 
HETATM   24  N   UNK N   1      29.498  20.004  -7.382  0.00  0.00    -0.346 N 
HETATM   25  C   UNK N   1      29.164  20.052  -8.721  0.00  0.00     0.097 A 
ATOM     26  HN  UNK N   1      29.067  19.366  -6.713  1.00  0.00     0.167 HD
HETATM   27  C   UNK N   1      29.876  20.992  -9.489  0.00  0.00     0.070 A 
HETATM   28  S   UNK N   1      30.903  21.726  -8.421  0.00  0.00    -0.064 SA
ENDBRANCH   9  23
BRANCH   7  29
HETATM   29  C   UNK N   1      33.912  19.352  -3.973  0.00  0.00     0.181 C 
HETATM   30  O   UNK N   1      35.061  19.749  -4.092  0.00  0.00    -0.646 OA
BRANCH  29  31
HETATM   31  O   UNK N   1      33.691  18.069  -3.627  0.00  0.00    -0.772 OA
HETATM   32  H   UNK N   1      32.881  17.819  -3.228  0.00  0.00     0.167 HD
ENDBRANCH  29  31
ENDBRANCH   7  29
TORSDOF 6
ENDMDL
MODEL 5
REMARK VINA RESULT:      -6.8      2.995      5.964
REMARK  6 active torsions:
REMARK  status: ('A' for Active; 'I' for Inactive)
REMARK    1  A    between atoms: C_3  and  N_2 
REMARK    2  A    between atoms: N_5  and  C_10 
REMARK    3  A    between atoms: C_7  and  O_8 
REMARK    4  A    between atoms: C_16  and  C_28 
REMARK    5  A    between atoms: N_18  and  C_22 
REMARK    6  A    between atoms: C_28  and  O_30 
ROOT
HETATM    1  C   UNK N   1      22.499  15.603   6.764  0.00  0.00     0.104 A 
HETATM    2  C   UNK N   1      21.232  16.051   6.372  0.00  0.00     0.049 A 
HETATM    3  C   UNK N   1      21.134  17.162   5.528  0.00  0.00     0.023 A 
HETATM    4  C   UNK N   1      22.297  17.786   5.048  0.00  0.00     0.060 A 
HETATM    5  C   UNK N   1      22.230  18.893   4.190  0.00  0.00     0.204 A 
HETATM    6  O   UNK N   1      21.146  19.347   3.863  0.00  0.00    -0.286 OA
HETATM    7  C   UNK N   1      23.425  19.467   3.712  0.00  0.00     0.104 A 
HETATM    8  C   UNK N   1      24.645  18.900   4.094  0.00  0.00     0.123 A 
HETATM    9  N   UNK N   1      24.715  17.824   4.929  0.00  0.00    -0.286 N 
HETATM   10  C   UNK N   1      23.556  17.274   5.429  0.00  0.00     0.129 A 
HETATM   11  N   UNK N   1      23.605  16.223   6.284  0.00  0.00    -0.327 N 
ATOM     12  HN  UNK N   1      24.519  15.882   6.582  1.00  0.00     0.169 HD
ENDROOT
BRANCH   1  13
HETATM   13  N   UNK N   1      22.658  14.493   7.633  0.00  0.00    -0.363 N 
HETATM   14  C   UNK N   1      21.717  14.156   8.658  0.00  0.00     0.151 C 
HETATM   15  C   UNK N   1      22.235  12.840   9.234  0.00  0.00     0.124 C 
HETATM   16  C   UNK N   1      23.290  12.332   8.242  0.00  0.00     0.162 C 
HETATM   17  C   UNK N   1      23.704  13.538   7.428  0.00  0.00     0.158 C 
BRANCH  15  18
HETATM   18  N   UNK N   1      22.859  13.095  10.522  0.00  0.00    -0.417 N 
HETATM   19  C   UNK N   1      23.331  11.817  11.030  0.00  0.00     0.140 C 
HETATM   20  H   UNK N   1      22.949  14.001  10.983  0.00  0.00     0.153 HD
ENDBRANCH  15  18
BRANCH  16  21
HETATM   21  O   UNK N   1      22.717  11.400   7.373  0.00  0.00    -0.387 OA
HETATM   22  C   UNK N   1      23.670  11.218   6.367  0.00  0.00     0.202 C 
ENDBRANCH  16  21
ENDBRANCH   1  13
BRANCH   9  23
HETATM   23  C   UNK N   1      26.034  17.284   5.207  0.00  0.00     0.156 A 
HETATM   24  N   UNK N   1      26.880  17.816   6.125  0.00  0.00    -0.346 N 
HETATM   25  C   UNK N   1      28.097  17.166   6.165  0.00  0.00     0.097 A 
ATOM     26  HN  UNK N   1      26.641  18.609   6.721  1.00  0.00     0.167 HD
HETATM   27  C   UNK N   1      28.243  16.098   5.259  0.00  0.00     0.070 A 
HETATM   28  S   UNK N   1      26.804  16.029   4.446  0.00  0.00    -0.064 SA
ENDBRANCH   9  23
BRANCH   7  29
HETATM   29  C   UNK N   1      23.443  20.643   2.803  0.00  0.00     0.181 C 
HETATM   30  O   UNK N   1      24.360  20.813   2.016  0.00  0.00    -0.646 OA
BRANCH  29  31
HETATM   31  O   UNK N   1      22.436  21.538   2.844  0.00  0.00    -0.772 OA
HETATM   32  H   UNK N   1      22.017  21.815   2.053  0.00  0.00     0.167 HD
ENDBRANCH  29  31
ENDBRANCH   7  29
TORSDOF 6
ENDMDL
MODEL 6
REMARK VINA RESULT:      -6.8      1.663      2.015
REMARK  6 active torsions:
REMARK  status: ('A' for Active; 'I' for Inactive)
REMARK    1  A    between atoms: C_3  and  N_2 
REMARK    2  A    between atoms: N_5  and  C_10 
REMARK    3  A    between atoms: C_7  and  O_8 
REMARK    4  A    between atoms: C_16  and  C_28 
REMARK    5  A    between atoms: N_18  and  C_22 
REMARK    6  A    between atoms: C_28  and  O_30 
ROOT
HETATM    1  C   UNK N   1      27.104  18.120   4.102  0.00  0.00     0.104 A 
HETATM    2  C   UNK N   1      27.167  19.474   3.753  0.00  0.00     0.049 A 
HETATM    3  C   UNK N   1      25.984  20.155   3.449  0.00  0.00     0.023 A 
HETATM    4  C   UNK N   1      24.749  19.495   3.541  0.00  0.00     0.060 A 
HETATM    5  C   UNK N   1      23.545  20.156   3.256  0.00  0.00     0.204 A 
HETATM    6  O   UNK N   1      23.558  21.323   2.898  0.00  0.00    -0.286 OA
HETATM    7  C   UNK N   1      22.328  19.459   3.390  0.00  0.00     0.104 A 
HETATM    8  C   UNK N   1      22.356  18.130   3.825  0.00  0.00     0.123 A 
HETATM    9  N   UNK N   1      23.525  17.483   4.103  0.00  0.00    -0.286 N 
HETATM   10  C   UNK N   1      24.722  18.143   3.944  0.00  0.00     0.129 A 
HETATM   11  N   UNK N   1      25.896  17.508   4.185  0.00  0.00    -0.327 N 
ATOM     12  HN  UNK N   1      25.870  16.521   4.441  1.00  0.00     0.169 HD
ENDROOT
BRANCH   1  13
HETATM   13  N   UNK N   1      28.271  17.375   4.402  0.00  0.00    -0.363 N 
HETATM   14  C   UNK N   1      28.561  16.100   3.819  0.00  0.00     0.151 C 
HETATM   15  C   UNK N   1      29.957  15.753   4.333  0.00  0.00     0.124 C 
HETATM   16  C   UNK N   1      30.521  17.051   4.928  0.00  0.00     0.162 C 
HETATM   17  C   UNK N   1      29.323  17.935   5.195  0.00  0.00     0.158 C 
BRANCH  15  18
HETATM   18  N   UNK N   1      29.847  14.745   5.374  0.00  0.00    -0.417 N 
HETATM   19  C   UNK N   1      31.139  14.671   6.038  0.00  0.00     0.140 C 
HETATM   20  H   UNK N   1      29.018  14.193   5.598  0.00  0.00     0.153 HD
ENDBRANCH  15  18
BRANCH  16  21
HETATM   21  O   UNK N   1      31.333  17.693   3.991  0.00  0.00    -0.387 OA
HETATM   22  C   UNK N   1      32.620  17.630   4.530  0.00  0.00     0.202 C 
ENDBRANCH  16  21
ENDBRANCH   1  13
BRANCH   9  23
HETATM   23  C   UNK N   1      23.428  16.124   4.604  0.00  0.00     0.156 A 
HETATM   24  N   UNK N   1      23.331  15.036   3.799  0.00  0.00    -0.346 N 
HETATM   25  C   UNK N   1      23.189  13.861   4.509  0.00  0.00     0.097 A 
ATOM     26  HN  UNK N   1      23.360  15.083   2.781  1.00  0.00     0.167 HD
HETATM   27  C   UNK N   1      23.160  13.999   5.910  0.00  0.00     0.070 A 
HETATM   28  S   UNK N   1      23.322  15.624   6.181  0.00  0.00    -0.064 SA
ENDBRANCH   9  23
BRANCH   7  29
HETATM   29  C   UNK N   1      21.009  20.083   3.105  0.00  0.00     0.181 C 
HETATM   30  O   UNK N   1      20.019  19.395   2.909  0.00  0.00    -0.646 OA
BRANCH  29  31
HETATM   31  O   UNK N   1      20.898  21.425   3.061  0.00  0.00    -0.772 OA
HETATM   32  H   UNK N   1      21.364  21.959   3.673  0.00  0.00     0.167 HD
ENDBRANCH  29  31
ENDBRANCH   7  29
TORSDOF 6
ENDMDL
MODEL 7
REMARK VINA RESULT:      -6.5      3.693      5.959
REMARK  6 active torsions:
REMARK  status: ('A' for Active; 'I' for Inactive)
REMARK    1  A    between atoms: C_3  and  N_2 
REMARK    2  A    between atoms: N_5  and  C_10 
REMARK    3  A    between atoms: C_7  and  O_8 
REMARK    4  A    between atoms: C_16  and  C_28 
REMARK    5  A    between atoms: N_18  and  C_22 
REMARK    6  A    between atoms: C_28  and  O_30 
ROOT
HETATM    1  C   UNK N   1      31.108  17.234   8.305  0.00  0.00     0.104 A 
HETATM    2  C   UNK N   1      30.394  18.173   9.059  0.00  0.00     0.049 A 
HETATM    3  C   UNK N   1      29.284  18.802   8.487  0.00  0.00     0.023 A 
HETATM    4  C   UNK N   1      28.870  18.458   7.190  0.00  0.00     0.060 A 
HETATM    5  C   UNK N   1      27.752  19.062   6.596  0.00  0.00     0.204 A 
HETATM    6  O   UNK N   1      27.130  19.922   7.198  0.00  0.00    -0.286 OA
HETATM    7  C   UNK N   1      27.359  18.661   5.303  0.00  0.00     0.104 A 
HETATM    8  C   UNK N   1      28.085  17.656   4.658  0.00  0.00     0.123 A 
HETATM    9  N   UNK N   1      29.174  17.066   5.232  0.00  0.00    -0.286 N 
HETATM   10  C   UNK N   1      29.588  17.471   6.481  0.00  0.00     0.129 A 
HETATM   11  N   UNK N   1      30.685  16.919   7.056  0.00  0.00    -0.327 N 
ATOM     12  HN  UNK N   1      31.219  16.232   6.522  1.00  0.00     0.169 HD
ENDROOT
BRANCH   1  13
HETATM   13  N   UNK N   1      32.252  16.579   8.827  0.00  0.00    -0.363 N 
HETATM   14  C   UNK N   1      32.234  15.231   9.309  0.00  0.00     0.151 C 
HETATM   15  C   UNK N   1      33.693  14.925   9.642  0.00  0.00     0.124 C 
HETATM   16  C   UNK N   1      34.517  16.046   8.993  0.00  0.00     0.162 C 
HETATM   17  C   UNK N   1      33.548  17.182   8.753  0.00  0.00     0.158 C 
BRANCH  15  18
HETATM   18  N   UNK N   1      33.872  14.958  11.084  0.00  0.00    -0.417 N 
HETATM   19  C   UNK N   1      35.218  15.449  11.338  0.00  0.00     0.140 C 
HETATM   20  H   UNK N   1      33.183  14.689  11.786  0.00  0.00     0.153 HD
ENDBRANCH  15  18
BRANCH  16  21
HETATM   21  O   UNK N   1      35.005  15.624   7.754  0.00  0.00    -0.387 OA
HETATM   22  C   UNK N   1      35.633  14.403   8.014  0.00  0.00     0.202 C 
ENDBRANCH  16  21
ENDBRANCH   1  13
BRANCH   9  23
HETATM   23  C   UNK N   1      29.813  15.992   4.494  0.00  0.00     0.156 A 
HETATM   24  N   UNK N   1      29.442  14.691   4.597  0.00  0.00    -0.346 N 
HETATM   25  C   UNK N   1      30.239  13.850   3.846  0.00  0.00     0.097 A 
ATOM     26  HN  UNK N   1      28.659  14.370   5.167  1.00  0.00     0.167 HD
HETATM   27  C   UNK N   1      31.277  14.478   3.132  0.00  0.00     0.070 A 
HETATM   28  S   UNK N   1      31.129  16.087   3.490  0.00  0.00    -0.064 SA
ENDBRANCH   9  23
BRANCH   7  29
HETATM   29  C   UNK N   1      26.190  19.253   4.601  0.00  0.00     0.181 C 
HETATM   30  O   UNK N   1      26.305  19.725   3.481  0.00  0.00    -0.646 OA
BRANCH  29  31
HETATM   31  O   UNK N   1      24.984  19.270   5.202  0.00  0.00    -0.772 OA
HETATM   32  H   UNK N   1      24.806  18.700   5.924  0.00  0.00     0.167 HD
ENDBRANCH  29  31
ENDBRANCH   7  29
TORSDOF 6
ENDMDL
MODEL 8
REMARK VINA RESULT:      -6.4      9.971     12.653
REMARK  6 active torsions:
REMARK  status: ('A' for Active; 'I' for Inactive)
REMARK    1  A    between atoms: C_3  and  N_2 
REMARK    2  A    between atoms: N_5  and  C_10 
REMARK    3  A    between atoms: C_7  and  O_8 
REMARK    4  A    between atoms: C_16  and  C_28 
REMARK    5  A    between atoms: N_18  and  C_22 
REMARK    6  A    between atoms: C_28  and  O_30 
ROOT
HETATM    1  C   UNK N   1      35.665  13.544  12.756  0.00  0.00     0.104 A 
HETATM    2  C   UNK N   1      35.959  14.884  13.037  0.00  0.00     0.049 A 
HETATM    3  C   UNK N   1      35.816  15.839  12.026  0.00  0.00     0.023 A 
HETATM    4  C   UNK N   1      35.339  15.459  10.761  0.00  0.00     0.060 A 
HETATM    5  C   UNK N   1      35.173  16.397   9.731  0.00  0.00     0.204 A 
HETATM    6  O   UNK N   1      35.465  17.567   9.918  0.00  0.00    -0.286 OA
HETATM    7  C   UNK N   1      34.664  15.972   8.488  0.00  0.00     0.104 A 
HETATM    8  C   UNK N   1      34.320  14.626   8.325  0.00  0.00     0.123 A 
HETATM    9  N   UNK N   1      34.480  13.710   9.323  0.00  0.00    -0.286 N 
HETATM   10  C   UNK N   1      35.008  14.106  10.531  0.00  0.00     0.129 A 
HETATM   11  N   UNK N   1      35.204  13.205  11.526  0.00  0.00    -0.327 N 
ATOM     12  HN  UNK N   1      34.995  12.224  11.340  1.00  0.00     0.169 HD
ENDROOT
BRANCH   1  13
HETATM   13  N   UNK N   1      35.809  12.531  13.736  0.00  0.00    -0.363 N 
HETATM   14  C   UNK N   1      37.070  12.161  14.305  0.00  0.00     0.151 C 
HETATM   15  C   UNK N   1      36.717  11.140  15.385  0.00  0.00     0.124 C 
HETATM   16  C   UNK N   1      35.199  11.248  15.587  0.00  0.00     0.162 C 
HETATM   17  C   UNK N   1      34.665  11.918  14.340  0.00  0.00     0.158 C 
BRANCH  15  18
HETATM   18  N   UNK N   1      37.053   9.807  14.911  0.00  0.00    -0.417 N 
HETATM   19  C   UNK N   1      38.400   9.873  14.367  0.00  0.00     0.140 C 
HETATM   20  H   UNK N   1      36.456   8.981  14.954  0.00  0.00     0.153 HD
ENDBRANCH  15  18
BRANCH  16  21
HETATM   21  O   UNK N   1      34.920  12.076  16.676  0.00  0.00    -0.387 OA
HETATM   22  C   UNK N   1      35.329  11.346  17.795  0.00  0.00     0.202 C 
ENDBRANCH  16  21
ENDBRANCH   1  13
BRANCH   9  23
HETATM   23  C   UNK N   1      34.033  12.355   9.059  0.00  0.00     0.156 A 
HETATM   24  N   UNK N   1      32.815  11.885   9.429  0.00  0.00    -0.346 N 
HETATM   25  C   UNK N   1      32.646  10.550   9.123  0.00  0.00     0.097 A 
ATOM     26  HN  UNK N   1      32.103  12.457   9.884  1.00  0.00     0.167 HD
HETATM   27  C   UNK N   1      33.746   9.926   8.505  0.00  0.00     0.070 A 
HETATM   28  S   UNK N   1      34.891  11.113   8.372  0.00  0.00    -0.064 SA
ENDBRANCH   9  23
BRANCH   7  29
HETATM   29  C   UNK N   1      34.460  16.899   7.345  0.00  0.00     0.181 C 
HETATM   30  O   UNK N   1      34.630  16.524   6.195  0.00  0.00    -0.646 OA
BRANCH  29  31
HETATM   31  O   UNK N   1      34.082  18.173   7.573  0.00  0.00    -0.772 OA
HETATM   32  H   UNK N   1      33.301  18.512   7.181  0.00  0.00     0.167 HD
ENDBRANCH  29  31
ENDBRANCH   7  29
TORSDOF 6
ENDMDL
MODEL 9
REMARK VINA RESULT:      -6.3      3.331      6.287
REMARK  6 active torsions:
REMARK  status: ('A' for Active; 'I' for Inactive)
REMARK    1  A    between atoms: C_3  and  N_2 
REMARK    2  A    between atoms: N_5  and  C_10 
REMARK    3  A    between atoms: C_7  and  O_8 
REMARK    4  A    between atoms: C_16  and  C_28 
REMARK    5  A    between atoms: N_18  and  C_22 
REMARK    6  A    between atoms: C_28  and  O_30 
ROOT
HETATM    1  C   UNK N   1      21.364  15.737   5.845  0.00  0.00     0.104 A 
HETATM    2  C   UNK N   1      20.038  15.742   5.398  0.00  0.00     0.049 A 
HETATM    3  C   UNK N   1      19.643  16.689   4.447  0.00  0.00     0.023 A 
HETATM    4  C   UNK N   1      20.581  17.589   3.918  0.00  0.00     0.060 A 
HETATM    5  C   UNK N   1      20.218  18.540   2.954  0.00  0.00     0.204 A 
HETATM    6  O   UNK N   1      19.061  18.612   2.573  0.00  0.00    -0.286 OA
HETATM    7  C   UNK N   1      21.202  19.402   2.431  0.00  0.00     0.104 A 
HETATM    8  C   UNK N   1      22.521  19.269   2.878  0.00  0.00     0.123 A 
HETATM    9  N   UNK N   1      22.879  18.346   3.816  0.00  0.00    -0.286 N 
HETATM   10  C   UNK N   1      21.921  17.520   4.358  0.00  0.00     0.129 A 
HETATM   11  N   UNK N   1      22.251  16.617   5.315  0.00  0.00    -0.327 N 
ATOM     12  HN  UNK N   1      23.213  16.597   5.653  1.00  0.00     0.169 HD
ENDROOT
BRANCH   1  13
HETATM   13  N   UNK N   1      21.816  14.813   6.820  0.00  0.00    -0.363 N 
HETATM   14  C   UNK N   1      20.947  13.901   7.501  0.00  0.00     0.151 C 
HETATM   15  C   UNK N   1      21.884  13.037   8.343  0.00  0.00     0.124 C 
HETATM   16  C   UNK N   1      23.298  13.310   7.813  0.00  0.00     0.162 C 
HETATM   17  C   UNK N   1      23.212  14.625   7.070  0.00  0.00     0.158 C 
BRANCH  15  18
HETATM   18  N   UNK N   1      21.795  13.450   9.733  0.00  0.00    -0.417 N 
HETATM   19  C   UNK N   1      20.418  13.853   9.974  0.00  0.00     0.140 C 
HETATM   20  H   UNK N   1      22.556  13.457  10.413  0.00  0.00     0.153 HD
ENDBRANCH  15  18
BRANCH  16  21
HETATM   21  O   UNK N   1      23.664  12.320   6.899  0.00  0.00    -0.387 OA
HETATM   22  C   UNK N   1      23.597  11.125   7.619  0.00  0.00     0.202 C 
ENDBRANCH  16  21
ENDBRANCH   1  13
BRANCH   9  23
HETATM   23  C   UNK N   1      24.288  18.259   4.159  0.00  0.00     0.156 A 
HETATM   24  N   UNK N   1      25.031  17.138   3.984  0.00  0.00    -0.346 N 
HETATM   25  C   UNK N   1      26.325  17.282   4.441  0.00  0.00     0.097 A 
ATOM     26  HN  UNK N   1      24.671  16.282   3.560  1.00  0.00     0.167 HD
HETATM   27  C   UNK N   1      26.632  18.535   5.004  0.00  0.00     0.070 A 
HETATM   28  S   UNK N   1      25.232  19.409   4.890  0.00  0.00    -0.064 SA
ENDBRANCH   9  23
BRANCH   7  29
HETATM   29  C   UNK N   1      20.901  20.439   1.410  0.00  0.00     0.181 C 
HETATM   30  O   UNK N   1      20.927  21.626   1.695  0.00  0.00    -0.646 OA
BRANCH  29  31
HETATM   31  O   UNK N   1      20.596  20.071   0.150  0.00  0.00    -0.772 OA
HETATM   32  H   UNK N   1      20.151  19.263  -0.013  0.00  0.00     0.167 HD
ENDBRANCH  29  31
ENDBRANCH   7  29
TORSDOF 6
ENDMDL
