MODEL 1
REMARK VINA RESULT:      -8.1      0.000      0.000
REMARK  6 active torsions:
REMARK  status: ('A' for Active; 'I' for Inactive)
REMARK    1  A    between atoms: C_2  and  C_4 
REMARK    2  A    between atoms: C_2  and  C_15 
REMARK       I    between atoms: C_4  and  N_6 
REMARK    3  A    between atoms: N_6  and  C_7 
REMARK    4  A    between atoms: C_7  and  C_8 
REMARK    5  A    between atoms: C_8  and  C_9 
REMARK       I    between atoms: C_15  and  N_17 
REMARK    6  A    between atoms: C_18  and  N_17 
ROOT
HETATM    1  C   UNK N   1      32.379  16.480   4.669  0.00  0.00     0.235 C 
HETATM    2  O   UNK N   1      33.437  16.857   4.194  0.00  0.00    -0.272 OA
HETATM    3  N   UNK N   1      31.422  17.430   4.901  0.00  0.00    -0.343 N 
HETATM    4  H   UNK N   1      31.694  18.372   4.803  0.00  0.00     0.163 HD
ENDROOT
BRANCH   3   5
HETATM    5  C   UNK N   1      30.051  17.182   5.277  0.00  0.00     0.211 C 
HETATM    6  C   UNK N   1      29.621  17.517   6.655  0.00  0.00    -0.015 A 
HETATM    7  C   UNK N   1      30.287  16.866   7.704  0.00  0.00     0.011 A 
HETATM    8  C   UNK N   1      28.631  18.485   6.943  0.00  0.00    -0.015 A 
HETATM    9  C   UNK N   1      29.992  17.144   9.033  0.00  0.00     0.001 A 
HETATM   10  C   UNK N   1      29.033  18.099   9.335  0.00  0.00     0.001 A 
HETATM   11  C   UNK N   1      28.369  18.761   8.305  0.00  0.00     0.013 A 
HETATM   12  C   UNK N   1      27.842  19.267   5.924  0.00  0.00     0.002 A 
HETATM   13  C   UNK N   1      27.175  20.407   6.428  0.00  0.00     0.014 A 
HETATM   14  C   UNK N   1      27.651  18.955   4.531  0.00  0.00     0.045 A 
HETATM   15  C   UNK N   1      26.378  21.221   5.631  0.00  0.00     0.001 A 
HETATM   16  C   UNK N   1      26.212  20.916   4.291  0.00  0.00     0.002 A 
HETATM   17  C   UNK N   1      26.832  19.792   3.758  0.00  0.00     0.030 A 
HETATM   18  N   UNK N   1      28.119  17.791   3.857  0.00  0.00    -0.324 N 
HETATM   19  C   UNK N   1      29.108  16.931   4.169  0.00  0.00     0.249 C 
HETATM   20  H   UNK N   1      27.641  17.579   3.023  0.00  0.00     0.169 HD
HETATM   21  O   UNK N   1      29.280  15.952   3.463  0.00  0.00    -0.270 OA
ENDBRANCH   3   5
BRANCH   1  22
HETATM   22  C   UNK N   1      32.212  14.966   4.968  0.00  0.00     0.114 C 
HETATM   23  C   UNK N   1      31.828  14.223   3.697  0.00  0.00     0.035 C 
HETATM   24  C   UNK N   1      31.086  14.648   5.940  0.00  0.00     0.035 C 
BRANCH  22  25
HETATM   25  C   UNK N   1      33.525  14.405   5.550  0.00  0.00     0.235 C 
HETATM   26  O   UNK N   1      34.222  13.666   4.864  0.00  0.00    -0.272 OA
HETATM   27  N   UNK N   1      33.940  14.687   6.815  0.00  0.00    -0.354 N 
HETATM   28  H   UNK N   1      34.723  14.210   7.175  0.00  0.00     0.162 HD
BRANCH  27  29
HETATM   29  C   UNK N   1      33.275  15.659   7.650  0.00  0.00     0.211 C 
BRANCH  29  30
HETATM   30  C   UNK N   1      34.239  16.496   8.467  0.00  0.00     0.354 C 
HETATM   31  F   UNK N   1      33.873  16.441   9.801  0.00  0.00    -0.194 F 
HETATM   32  F   UNK N   1      35.531  16.017   8.326  0.00  0.00    -0.194 F 
BRANCH  30  33
HETATM   33  C   UNK N   1      34.168  17.938   7.964  0.00  0.00     0.456 C 
HETATM   34  F   UNK N   1      32.943  18.493   8.298  0.00  0.00    -0.165 F 
HETATM   35  F   UNK N   1      35.175  18.696   8.538  0.00  0.00    -0.165 F 
HETATM   36  F   UNK N   1      34.312  17.966   6.591  0.00  0.00    -0.165 F 
ENDBRANCH  30  33
ENDBRANCH  29  30
ENDBRANCH  27  29
ENDBRANCH  22  25
ENDBRANCH   1  22
TORSDOF 6
ENDMDL
MODEL 2
REMARK VINA RESULT:      -8.0      1.310      1.686
REMARK  6 active torsions:
REMARK  status: ('A' for Active; 'I' for Inactive)
REMARK    1  A    between atoms: C_2  and  C_4 
REMARK    2  A    between atoms: C_2  and  C_15 
REMARK       I    between atoms: C_4  and  N_6 
REMARK    3  A    between atoms: N_6  and  C_7 
REMARK    4  A    between atoms: C_7  and  C_8 
REMARK    5  A    between atoms: C_8  and  C_9 
REMARK       I    between atoms: C_15  and  N_17 
REMARK    6  A    between atoms: C_18  and  N_17 
ROOT
HETATM    1  C   UNK N   1      33.052  16.680   5.473  0.00  0.00     0.235 C 
HETATM    2  O   UNK N   1      34.129  17.160   5.164  0.00  0.00    -0.272 OA
HETATM    3  N   UNK N   1      32.001  17.543   5.626  0.00  0.00    -0.343 N 
HETATM    4  H   UNK N   1      32.209  18.506   5.616  0.00  0.00     0.163 HD
ENDROOT
BRANCH   3   5
HETATM    5  C   UNK N   1      30.617  17.176   5.802  0.00  0.00     0.211 C 
HETATM    6  C   UNK N   1      29.977  17.429   7.113  0.00  0.00    -0.015 A 
HETATM    7  C   UNK N   1      30.543  16.795   8.230  0.00  0.00     0.011 A 
HETATM    8  C   UNK N   1      28.880  18.305   7.284  0.00  0.00    -0.015 A 
HETATM    9  C   UNK N   1      30.048  17.004   9.511  0.00  0.00     0.001 A 
HETATM   10  C   UNK N   1      28.981  17.870   9.699  0.00  0.00     0.001 A 
HETATM   11  C   UNK N   1      28.412  18.512   8.602  0.00  0.00     0.013 A 
HETATM   12  C   UNK N   1      28.176  19.057   6.183  0.00  0.00     0.002 A 
HETATM   13  C   UNK N   1      27.354  20.123   6.616  0.00  0.00     0.014 A 
HETATM   14  C   UNK N   1      28.204  18.779   4.770  0.00  0.00     0.045 A 
HETATM   15  C   UNK N   1      26.610  20.899   5.735  0.00  0.00     0.001 A 
HETATM   16  C   UNK N   1      26.654  20.629   4.378  0.00  0.00     0.002 A 
HETATM   17  C   UNK N   1      27.432  19.576   3.910  0.00  0.00     0.030 A 
HETATM   18  N   UNK N   1      28.854  17.680   4.141  0.00  0.00    -0.324 N 
HETATM   19  C   UNK N   1      29.858  16.890   4.568  0.00  0.00     0.249 C 
HETATM   20  H   UNK N   1      28.513  17.460   3.244  0.00  0.00     0.169 HD
HETATM   21  O   UNK N   1      30.206  15.952   3.870  0.00  0.00    -0.270 OA
ENDBRANCH   3   5
BRANCH   1  22
HETATM   22  C   UNK N   1      32.967  15.142   5.666  0.00  0.00     0.114 C 
HETATM   23  C   UNK N   1      32.460  14.484   4.391  0.00  0.00     0.035 C 
HETATM   24  C   UNK N   1      31.972  14.707   6.731  0.00  0.00     0.035 C 
BRANCH  22  25
HETATM   25  C   UNK N   1      34.355  14.590   6.047  0.00  0.00     0.235 C 
HETATM   26  O   UNK N   1      34.969  13.895   5.247  0.00  0.00    -0.272 OA
HETATM   27  N   UNK N   1      34.927  14.833   7.258  0.00  0.00    -0.354 N 
HETATM   28  H   UNK N   1      35.760  14.361   7.492  0.00  0.00     0.162 HD
BRANCH  27  29
HETATM   29  C   UNK N   1      34.361  15.756   8.212  0.00  0.00     0.211 C 
BRANCH  29  30
HETATM   30  C   UNK N   1      34.365  15.218   9.630  0.00  0.00     0.354 C 
HETATM   31  F   UNK N   1      33.098  15.353  10.171  0.00  0.00    -0.194 F 
HETATM   32  F   UNK N   1      34.727  13.882   9.636  0.00  0.00    -0.194 F 
BRANCH  30  33
HETATM   33  C   UNK N   1      35.372  16.027  10.448  0.00  0.00     0.456 C 
HETATM   34  F   UNK N   1      35.362  17.349  10.032  0.00  0.00    -0.165 F 
HETATM   35  F   UNK N   1      35.047  15.977  11.793  0.00  0.00    -0.165 F 
HETATM   36  F   UNK N   1      36.642  15.514  10.272  0.00  0.00    -0.165 F 
ENDBRANCH  30  33
ENDBRANCH  29  30
ENDBRANCH  27  29
ENDBRANCH  22  25
ENDBRANCH   1  22
TORSDOF 6
ENDMDL
MODEL 3
REMARK VINA RESULT:      -8.0     11.957     15.198
REMARK  6 active torsions:
REMARK  status: ('A' for Active; 'I' for Inactive)
REMARK    1  A    between atoms: C_2  and  C_4 
REMARK    2  A    between atoms: C_2  and  C_15 
REMARK       I    between atoms: C_4  and  N_6 
REMARK    3  A    between atoms: N_6  and  C_7 
REMARK    4  A    between atoms: C_7  and  C_8 
REMARK    5  A    between atoms: C_8  and  C_9 
REMARK       I    between atoms: C_15  and  N_17 
REMARK    6  A    between atoms: C_18  and  N_17 
ROOT
HETATM    1  C   UNK N   1      28.383  25.503  -5.549  0.00  0.00     0.235 C 
HETATM    2  O   UNK N   1      28.701  26.630  -5.890  0.00  0.00    -0.272 OA
HETATM    3  N   UNK N   1      29.370  24.555  -5.522  0.00  0.00    -0.343 N 
HETATM    4  H   UNK N   1      30.240  24.804  -5.912  0.00  0.00     0.163 HD
ENDROOT
BRANCH   3   5
HETATM    5  C   UNK N   1      29.256  23.224  -4.976  0.00  0.00     0.211 C 
HETATM    6  C   UNK N   1      29.271  22.072  -5.907  0.00  0.00    -0.015 A 
HETATM    7  C   UNK N   1      28.260  22.027  -6.879  0.00  0.00     0.011 A 
HETATM    8  C   UNK N   1      30.272  21.073  -5.887  0.00  0.00    -0.015 A 
HETATM    9  C   UNK N   1      28.213  21.015  -7.830  0.00  0.00     0.001 A 
HETATM   10  C   UNK N   1      29.193  20.034  -7.833  0.00  0.00     0.001 A 
HETATM   11  C   UNK N   1      30.208  20.068  -6.880  0.00  0.00     0.013 A 
HETATM   12  C   UNK N   1      31.418  20.996  -4.911  0.00  0.00     0.002 A 
HETATM   13  C   UNK N   1      32.472  20.132  -5.290  0.00  0.00     0.014 A 
HETATM   14  C   UNK N   1      31.530  21.650  -3.632  0.00  0.00     0.045 A 
HETATM   15  C   UNK N   1      33.589  19.921  -4.491  0.00  0.00     0.001 A 
HETATM   16  C   UNK N   1      33.690  20.563  -3.269  0.00  0.00     0.002 A 
HETATM   17  C   UNK N   1      32.667  21.405  -2.846  0.00  0.00     0.030 A 
HETATM   18  N   UNK N   1      30.532  22.448  -3.004  0.00  0.00    -0.324 N 
HETATM   19  C   UNK N   1      29.471  23.097  -3.521  0.00  0.00     0.249 C 
HETATM   20  H   UNK N   1      30.635  22.542  -2.030  0.00  0.00     0.169 HD
HETATM   21  O   UNK N   1      28.705  23.668  -2.763  0.00  0.00    -0.270 OA
ENDBRANCH   3   5
BRANCH   1  22
HETATM   22  C   UNK N   1      26.899  25.244  -5.178  0.00  0.00     0.114 C 
HETATM   23  C   UNK N   1      26.702  25.401  -3.677  0.00  0.00     0.035 C 
HETATM   24  C   UNK N   1      26.427  23.828  -5.469  0.00  0.00     0.035 C 
BRANCH  22  25
HETATM   25  C   UNK N   1      25.994  26.224  -5.950  0.00  0.00     0.235 C 
HETATM   26  O   UNK N   1      25.517  25.885  -7.027  0.00  0.00    -0.272 OA
HETATM   27  N   UNK N   1      25.712  27.473  -5.488  0.00  0.00    -0.354 N 
HETATM   28  H   UNK N   1      25.226  28.097  -6.075  0.00  0.00     0.162 HD
BRANCH  27  29
HETATM   29  C   UNK N   1      26.099  27.917  -4.171  0.00  0.00     0.211 C 
BRANCH  29  30
HETATM   30  C   UNK N   1      26.823  29.250  -4.184  0.00  0.00     0.354 C 
HETATM   31  F   UNK N   1      27.339  29.476  -5.448  0.00  0.00    -0.194 F 
HETATM   32  F   UNK N   1      25.951  30.273  -3.854  0.00  0.00    -0.194 F 
BRANCH  30  33
HETATM   33  C   UNK N   1      27.956  29.190  -3.159  0.00  0.00     0.456 C 
HETATM   34  F   UNK N   1      28.792  30.284  -3.319  0.00  0.00    -0.165 F 
HETATM   35  F   UNK N   1      27.442  29.202  -1.874  0.00  0.00    -0.165 F 
HETATM   36  F   UNK N   1      28.693  28.036  -3.338  0.00  0.00    -0.165 F 
ENDBRANCH  30  33
ENDBRANCH  29  30
ENDBRANCH  27  29
ENDBRANCH  22  25
ENDBRANCH   1  22
TORSDOF 6
ENDMDL
MODEL 4
REMARK VINA RESULT:      -8.0      2.764      4.062
REMARK  6 active torsions:
REMARK  status: ('A' for Active; 'I' for Inactive)
REMARK    1  A    between atoms: C_2  and  C_4 
REMARK    2  A    between atoms: C_2  and  C_15 
REMARK       I    between atoms: C_4  and  N_6 
REMARK    3  A    between atoms: N_6  and  C_7 
REMARK    4  A    between atoms: C_7  and  C_8 
REMARK    5  A    between atoms: C_8  and  C_9 
REMARK       I    between atoms: C_15  and  N_17 
REMARK    6  A    between atoms: C_18  and  N_17 
ROOT
HETATM    1  C   UNK N   1      33.711  16.786   6.676  0.00  0.00     0.235 C 
HETATM    2  O   UNK N   1      34.611  17.256   6.002  0.00  0.00    -0.272 OA
HETATM    3  N   UNK N   1      32.440  16.875   6.176  0.00  0.00    -0.343 N 
HETATM    4  H   UNK N   1      32.314  17.434   5.374  0.00  0.00     0.163 HD
ENDROOT
BRANCH   3   5
HETATM    5  C   UNK N   1      31.267  16.227   6.712  0.00  0.00     0.211 C 
HETATM    6  C   UNK N   1      30.304  17.038   7.493  0.00  0.00    -0.015 A 
HETATM    7  C   UNK N   1      30.791  17.664   8.650  0.00  0.00     0.011 A 
HETATM    8  C   UNK N   1      28.963  17.244   7.095  0.00  0.00    -0.015 A 
HETATM    9  C   UNK N   1      29.982  18.484   9.427  0.00  0.00     0.001 A 
HETATM   10  C   UNK N   1      28.668  18.707   9.044  0.00  0.00     0.001 A 
HETATM   11  C   UNK N   1      28.170  18.100   7.894  0.00  0.00     0.013 A 
HETATM   12  C   UNK N   1      28.305  16.646   5.877  0.00  0.00     0.002 A 
HETATM   13  C   UNK N   1      27.090  17.257   5.489  0.00  0.00     0.014 A 
HETATM   14  C   UNK N   1      28.742  15.506   5.111  0.00  0.00     0.045 A 
HETATM   15  C   UNK N   1      26.340  16.810   4.409  0.00  0.00     0.001 A 
HETATM   16  C   UNK N   1      26.776  15.720   3.675  0.00  0.00     0.002 A 
HETATM   17  C   UNK N   1      27.954  15.075   4.033  0.00  0.00     0.030 A 
HETATM   18  N   UNK N   1      29.856  14.670   5.407  0.00  0.00    -0.324 N 
HETATM   19  C   UNK N   1      30.950  14.895   6.160  0.00  0.00     0.249 C 
HETATM   20  H   UNK N   1      29.822  13.779   4.992  0.00  0.00     0.169 HD
HETATM   21  O   UNK N   1      31.748  13.987   6.325  0.00  0.00    -0.270 OA
ENDBRANCH   3   5
BRANCH   1  22
HETATM   22  C   UNK N   1      34.081  16.134   8.035  0.00  0.00     0.114 C 
HETATM   23  C   UNK N   1      35.216  15.138   7.843  0.00  0.00     0.035 C 
HETATM   24  C   UNK N   1      32.962  15.307   8.650  0.00  0.00     0.035 C 
BRANCH  22  25
HETATM   25  C   UNK N   1      34.483  17.228   9.043  0.00  0.00     0.235 C 
HETATM   26  O   UNK N   1      34.544  18.395   8.674  0.00  0.00    -0.272 OA
HETATM   27  N   UNK N   1      34.793  16.947  10.338  0.00  0.00    -0.354 N 
HETATM   28  H   UNK N   1      35.156  17.666  10.905  0.00  0.00     0.162 HD
BRANCH  27  29
HETATM   29  C   UNK N   1      34.611  15.635  10.911  0.00  0.00     0.211 C 
BRANCH  29  30
HETATM   30  C   UNK N   1      35.889  15.060  11.492  0.00  0.00     0.354 C 
HETATM   31  F   UNK N   1      36.947  15.360  10.652  0.00  0.00    -0.194 F 
HETATM   32  F   UNK N   1      36.131  15.598  12.745  0.00  0.00    -0.194 F 
BRANCH  30  33
HETATM   33  C   UNK N   1      35.725  13.544  11.606  0.00  0.00     0.456 C 
HETATM   34  F   UNK N   1      35.341  13.020  10.382  0.00  0.00    -0.165 F 
HETATM   35  F   UNK N   1      36.921  12.960  11.989  0.00  0.00    -0.165 F 
HETATM   36  F   UNK N   1      34.757  13.244  12.544  0.00  0.00    -0.165 F 
ENDBRANCH  30  33
ENDBRANCH  29  30
ENDBRANCH  27  29
ENDBRANCH  22  25
ENDBRANCH   1  22
TORSDOF 6
ENDMDL
MODEL 5
REMARK VINA RESULT:      -7.8     12.881     16.113
REMARK  6 active torsions:
REMARK  status: ('A' for Active; 'I' for Inactive)
REMARK    1  A    between atoms: C_2  and  C_4 
REMARK    2  A    between atoms: C_2  and  C_15 
REMARK       I    between atoms: C_4  and  N_6 
REMARK    3  A    between atoms: N_6  and  C_7 
REMARK    4  A    between atoms: C_7  and  C_8 
REMARK    5  A    between atoms: C_8  and  C_9 
REMARK       I    between atoms: C_15  and  N_17 
REMARK    6  A    between atoms: C_18  and  N_17 
ROOT
HETATM    1  C   UNK N   1      28.117  25.566  -5.745  0.00  0.00     0.235 C 
HETATM    2  O   UNK N   1      28.429  26.689  -6.104  0.00  0.00    -0.272 OA
HETATM    3  N   UNK N   1      29.113  24.629  -5.683  0.00  0.00    -0.343 N 
HETATM    4  H   UNK N   1      29.986  24.880  -6.064  0.00  0.00     0.163 HD
ENDROOT
BRANCH   3   5
HETATM    5  C   UNK N   1      29.004  23.308  -5.112  0.00  0.00     0.211 C 
HETATM    6  C   UNK N   1      29.049  22.138  -6.019  0.00  0.00    -0.015 A 
HETATM    7  C   UNK N   1      28.057  22.062  -7.008  0.00  0.00     0.011 A 
HETATM    8  C   UNK N   1      30.060  21.151  -5.961  0.00  0.00    -0.015 A 
HETATM    9  C   UNK N   1      28.038  21.030  -7.939  0.00  0.00     0.001 A 
HETATM   10  C   UNK N   1      29.029  20.060  -7.904  0.00  0.00     0.001 A 
HETATM   11  C   UNK N   1      30.025  20.125  -6.933  0.00  0.00     0.013 A 
HETATM   12  C   UNK N   1      31.189  21.107  -4.962  0.00  0.00     0.002 A 
HETATM   13  C   UNK N   1      32.259  20.248  -5.304  0.00  0.00     0.014 A 
HETATM   14  C   UNK N   1      31.270  21.788  -3.695  0.00  0.00     0.045 A 
HETATM   15  C   UNK N   1      33.364  20.066  -4.481  0.00  0.00     0.001 A 
HETATM   16  C   UNK N   1      33.435  20.734  -3.271  0.00  0.00     0.002 A 
HETATM   17  C   UNK N   1      32.395  21.572  -2.884  0.00  0.00     0.030 A 
HETATM   18  N   UNK N   1      30.252  22.587  -3.102  0.00  0.00    -0.324 N 
HETATM   19  C   UNK N   1      29.194  23.213  -3.651  0.00  0.00     0.249 C 
HETATM   20  H   UNK N   1      30.336  22.702  -2.128  0.00  0.00     0.169 HD
HETATM   21  O   UNK N   1      28.407  23.791  -2.919  0.00  0.00    -0.270 OA
ENDBRANCH   3   5
BRANCH   1  22
HETATM   22  C   UNK N   1      26.629  25.298  -5.393  0.00  0.00     0.114 C 
HETATM   23  C   UNK N   1      26.392  25.546  -3.910  0.00  0.00     0.035 C 
HETATM   24  C   UNK N   1      26.194  23.857  -5.604  0.00  0.00     0.035 C 
BRANCH  22  25
HETATM   25  C   UNK N   1      25.724  26.207  -6.247  0.00  0.00     0.235 C 
HETATM   26  O   UNK N   1      25.089  27.106  -5.708  0.00  0.00    -0.272 OA
HETATM   27  N   UNK N   1      25.586  26.041  -7.591  0.00  0.00    -0.354 N 
HETATM   28  H   UNK N   1      24.907  26.573  -8.067  0.00  0.00     0.162 HD
BRANCH  27  29
HETATM   29  C   UNK N   1      26.396  25.115  -8.345  0.00  0.00     0.211 C 
BRANCH  29  30
HETATM   30  C   UNK N   1      25.587  24.265  -9.305  0.00  0.00     0.354 C 
HETATM   31  F   UNK N   1      24.920  23.283  -8.594  0.00  0.00    -0.194 F 
HETATM   32  F   UNK N   1      24.667  25.048  -9.981  0.00  0.00    -0.194 F 
BRANCH  30  33
HETATM   33  C   UNK N   1      26.549  23.624 -10.306  0.00  0.00     0.456 C 
HETATM   34  F   UNK N   1      26.261  22.275 -10.437  0.00  0.00    -0.165 F 
HETATM   35  F   UNK N   1      26.427  24.231 -11.545  0.00  0.00    -0.165 F 
HETATM   36  F   UNK N   1      27.850  23.762  -9.865  0.00  0.00    -0.165 F 
ENDBRANCH  30  33
ENDBRANCH  29  30
ENDBRANCH  27  29
ENDBRANCH  22  25
ENDBRANCH   1  22
TORSDOF 6
ENDMDL
MODEL 6
REMARK VINA RESULT:      -7.8      3.416      6.370
REMARK  6 active torsions:
REMARK  status: ('A' for Active; 'I' for Inactive)
REMARK    1  A    between atoms: C_2  and  C_4 
REMARK    2  A    between atoms: C_2  and  C_15 
REMARK       I    between atoms: C_4  and  N_6 
REMARK    3  A    between atoms: N_6  and  C_7 
REMARK    4  A    between atoms: C_7  and  C_8 
REMARK    5  A    between atoms: C_8  and  C_9 
REMARK       I    between atoms: C_15  and  N_17 
REMARK    6  A    between atoms: C_18  and  N_17 
ROOT
HETATM    1  C   UNK N   1      27.460  14.776   5.224  0.00  0.00     0.235 C 
HETATM    2  O   UNK N   1      27.233  13.591   5.051  0.00  0.00    -0.272 OA
HETATM    3  N   UNK N   1      28.696  15.114   5.707  0.00  0.00    -0.343 N 
HETATM    4  H   UNK N   1      29.272  14.376   6.015  0.00  0.00     0.163 HD
ENDROOT
BRANCH   3   5
HETATM    5  C   UNK N   1      29.235  16.449   5.806  0.00  0.00     0.211 C 
HETATM    6  C   UNK N   1      29.241  17.114   7.129  0.00  0.00    -0.015 A 
HETATM    7  C   UNK N   1      27.998  17.303   7.751  0.00  0.00     0.011 A 
HETATM    8  C   UNK N   1      30.426  17.505   7.794  0.00  0.00    -0.015 A 
HETATM    9  C   UNK N   1      27.898  17.875   9.014  0.00  0.00     0.001 A 
HETATM   10  C   UNK N   1      29.051  18.252   9.686  0.00  0.00     0.001 A 
HETATM   11  C   UNK N   1      30.293  18.065   9.086  0.00  0.00     0.013 A 
HETATM   12  C   UNK N   1      31.826  17.358   7.255  0.00  0.00     0.002 A 
HETATM   13  C   UNK N   1      32.856  17.487   8.216  0.00  0.00     0.014 A 
HETATM   14  C   UNK N   1      32.226  17.161   5.885  0.00  0.00     0.045 A 
HETATM   15  C   UNK N   1      34.203  17.410   7.883  0.00  0.00     0.001 A 
HETATM   16  C   UNK N   1      34.574  17.209   6.565  0.00  0.00     0.002 A 
HETATM   17  C   UNK N   1      33.595  17.098   5.583  0.00  0.00     0.030 A 
HETATM   18  N   UNK N   1      31.364  17.139   4.751  0.00  0.00    -0.324 N 
HETATM   19  C   UNK N   1      30.040  16.912   4.658  0.00  0.00     0.249 C 
HETATM   20  H   UNK N   1      31.810  17.318   3.893  0.00  0.00     0.169 HD
HETATM   21  O   UNK N   1      29.501  17.017   3.568  0.00  0.00    -0.270 OA
ENDBRANCH   3   5
BRANCH   1  22
HETATM   22  C   UNK N   1      26.337  15.792   4.887  0.00  0.00     0.114 C 
HETATM   23  C   UNK N   1      26.156  16.771   6.038  0.00  0.00     0.035 C 
HETATM   24  C   UNK N   1      24.963  15.161   4.716  0.00  0.00     0.035 C 
BRANCH  22  25
HETATM   25  C   UNK N   1      26.689  16.541   3.587  0.00  0.00     0.235 C 
HETATM   26  O   UNK N   1      26.862  15.908   2.552  0.00  0.00    -0.272 OA
HETATM   27  N   UNK N   1      26.835  17.894   3.543  0.00  0.00    -0.354 N 
HETATM   28  H   UNK N   1      27.174  18.308   2.716  0.00  0.00     0.162 HD
BRANCH  27  29
HETATM   29  C   UNK N   1      26.510  18.745   4.663  0.00  0.00     0.211 C 
BRANCH  29  30
HETATM   30  C   UNK N   1      27.251  20.068   4.635  0.00  0.00     0.354 C 
HETATM   31  F   UNK N   1      28.595  19.833   4.401  0.00  0.00    -0.194 F 
HETATM   32  F   UNK N   1      26.746  20.880   3.634  0.00  0.00    -0.194 F 
BRANCH  30  33
HETATM   33  C   UNK N   1      27.067  20.749   5.992  0.00  0.00     0.456 C 
HETATM   34  F   UNK N   1      28.093  20.378   6.847  0.00  0.00    -0.165 F 
HETATM   35  F   UNK N   1      27.083  22.126   5.843  0.00  0.00    -0.165 F 
HETATM   36  F   UNK N   1      25.862  20.371   6.550  0.00  0.00    -0.165 F 
ENDBRANCH  30  33
ENDBRANCH  29  30
ENDBRANCH  27  29
ENDBRANCH  22  25
ENDBRANCH   1  22
TORSDOF 6
ENDMDL
MODEL 7
REMARK VINA RESULT:      -7.6     11.343     13.022
REMARK  6 active torsions:
REMARK  status: ('A' for Active; 'I' for Inactive)
REMARK    1  A    between atoms: C_2  and  C_4 
REMARK    2  A    between atoms: C_2  and  C_15 
REMARK       I    between atoms: C_4  and  N_6 
REMARK    3  A    between atoms: N_6  and  C_7 
REMARK    4  A    between atoms: C_7  and  C_8 
REMARK    5  A    between atoms: C_8  and  C_9 
REMARK       I    between atoms: C_15  and  N_17 
REMARK    6  A    between atoms: C_18  and  N_17 
ROOT
HETATM    1  C   UNK N   1      30.851  21.875  -8.060  0.00  0.00     0.235 C 
HETATM    2  O   UNK N   1      31.645  22.295  -8.885  0.00  0.00    -0.272 OA
HETATM    3  N   UNK N   1      30.155  22.802  -7.332  0.00  0.00    -0.343 N 
HETATM    4  H   UNK N   1      30.437  23.742  -7.420  0.00  0.00     0.163 HD
ENDROOT
BRANCH   3   5
HETATM    5  C   UNK N   1      29.046  22.532  -6.449  0.00  0.00     0.211 C 
HETATM    6  C   UNK N   1      29.245  22.696  -4.991  0.00  0.00    -0.015 A 
HETATM    7  C   UNK N   1      30.237  21.906  -4.391  0.00  0.00     0.011 A 
HETATM    8  C   UNK N   1      28.530  23.636  -4.213  0.00  0.00    -0.015 A 
HETATM    9  C   UNK N   1      30.535  22.018  -3.038  0.00  0.00     0.001 A 
HETATM   10  C   UNK N   1      29.852  22.943  -2.263  0.00  0.00     0.001 A 
HETATM   11  C   UNK N   1      28.870  23.741  -2.844  0.00  0.00     0.013 A 
HETATM   12  C   UNK N   1      27.447  24.554  -4.719  0.00  0.00     0.002 A 
HETATM   13  C   UNK N   1      27.125  25.632  -3.863  0.00  0.00     0.014 A 
HETATM   14  C   UNK N   1      26.679  24.425  -5.931  0.00  0.00     0.045 A 
HETATM   15  C   UNK N   1      26.129  26.554  -4.162  0.00  0.00     0.001 A 
HETATM   16  C   UNK N   1      25.406  26.425  -5.335  0.00  0.00     0.002 A 
HETATM   17  C   UNK N   1      25.674  25.367  -6.197  0.00  0.00     0.030 A 
HETATM   18  N   UNK N   1      26.748  23.348  -6.861  0.00  0.00    -0.324 N 
HETATM   19  C   UNK N   1      27.716  22.440  -7.084  0.00  0.00     0.249 C 
HETATM   20  H   UNK N   1      25.956  23.253  -7.437  0.00  0.00     0.169 HD
HETATM   21  O   UNK N   1      27.516  21.555  -7.900  0.00  0.00    -0.270 OA
ENDBRANCH   3   5
BRANCH   1  22
HETATM   22  C   UNK N   1      30.702  20.338  -7.907  0.00  0.00     0.114 C 
HETATM   23  C   UNK N   1      29.655  19.817  -8.880  0.00  0.00     0.035 C 
HETATM   24  C   UNK N   1      30.194  19.899  -6.542  0.00  0.00     0.035 C 
BRANCH  22  25
HETATM   25  C   UNK N   1      32.063  19.658  -8.157  0.00  0.00     0.235 C 
HETATM   26  O   UNK N   1      32.230  19.000  -9.177  0.00  0.00    -0.272 OA
HETATM   27  N   UNK N   1      33.094  19.746  -7.273  0.00  0.00    -0.354 N 
HETATM   28  H   UNK N   1      33.898  19.197  -7.427  0.00  0.00     0.162 HD
BRANCH  27  29
HETATM   29  C   UNK N   1      33.054  20.611  -6.119  0.00  0.00     0.211 C 
BRANCH  29  30
HETATM   30  C   UNK N   1      33.487  19.917  -4.843  0.00  0.00     0.354 C 
HETATM   31  F   UNK N   1      32.392  19.294  -4.268  0.00  0.00    -0.194 F 
HETATM   32  F   UNK N   1      34.461  18.971  -5.117  0.00  0.00    -0.194 F 
BRANCH  30  33
HETATM   33  C   UNK N   1      34.049  20.972  -3.889  0.00  0.00     0.456 C 
HETATM   34  F   UNK N   1      33.648  22.234  -4.296  0.00  0.00    -0.165 F 
HETATM   35  F   UNK N   1      33.589  20.748  -2.602  0.00  0.00    -0.165 F 
HETATM   36  F   UNK N   1      35.429  20.920  -3.888  0.00  0.00    -0.165 F 
ENDBRANCH  30  33
ENDBRANCH  29  30
ENDBRANCH  27  29
ENDBRANCH  22  25
ENDBRANCH   1  22
TORSDOF 6
ENDMDL
MODEL 8
REMARK VINA RESULT:      -7.4      5.783      9.697
REMARK  6 active torsions:
REMARK  status: ('A' for Active; 'I' for Inactive)
REMARK    1  A    between atoms: C_2  and  C_4 
REMARK    2  A    between atoms: C_2  and  C_15 
REMARK       I    between atoms: C_4  and  N_6 
REMARK    3  A    between atoms: N_6  and  C_7 
REMARK    4  A    between atoms: C_7  and  C_8 
REMARK    5  A    between atoms: C_8  and  C_9 
REMARK       I    between atoms: C_15  and  N_17 
REMARK    6  A    between atoms: C_18  and  N_17 
ROOT
HETATM    1  C   UNK N   1      36.729  14.018   9.797  0.00  0.00     0.235 C 
HETATM    2  O   UNK N   1      37.842  14.214   9.341  0.00  0.00    -0.272 OA
HETATM    3  N   UNK N   1      36.614  13.078  10.786  0.00  0.00    -0.343 N 
HETATM    4  H   UNK N   1      37.407  12.523  10.968  0.00  0.00     0.163 HD
ENDROOT
BRANCH   3   5
HETATM    5  C   UNK N   1      35.440  12.825  11.586  0.00  0.00     0.211 C 
HETATM    6  C   UNK N   1      34.728  11.538  11.412  0.00  0.00    -0.015 A 
HETATM    7  C   UNK N   1      34.220  11.259  10.134  0.00  0.00     0.011 A 
HETATM    8  C   UNK N   1      34.594  10.581  12.445  0.00  0.00    -0.015 A 
HETATM    9  C   UNK N   1      33.578  10.059   9.854  0.00  0.00     0.001 A 
HETATM   10  C   UNK N   1      33.448   9.105  10.852  0.00  0.00     0.001 A 
HETATM   11  C   UNK N   1      33.953   9.362  12.124  0.00  0.00     0.013 A 
HETATM   12  C   UNK N   1      35.093  10.738  13.859  0.00  0.00     0.002 A 
HETATM   13  C   UNK N   1      35.162   9.540  14.607  0.00  0.00     0.014 A 
HETATM   14  C   UNK N   1      35.449  11.958  14.536  0.00  0.00     0.045 A 
HETATM   15  C   UNK N   1      35.570   9.510  15.935  0.00  0.00     0.001 A 
HETATM   16  C   UNK N   1      35.920  10.688  16.572  0.00  0.00     0.002 A 
HETATM   17  C   UNK N   1      35.847  11.893  15.881  0.00  0.00     0.030 A 
HETATM   18  N   UNK N   1      35.325  13.278  14.015  0.00  0.00    -0.324 N 
HETATM   19  C   UNK N   1      35.238  13.717  12.745  0.00  0.00     0.249 C 
HETATM   20  H   UNK N   1      35.300  13.987  14.696  0.00  0.00     0.169 HD
HETATM   21  O   UNK N   1      35.065  14.908  12.545  0.00  0.00    -0.270 OA
ENDBRANCH   3   5
BRANCH   1  22
HETATM   22  C   UNK N   1      35.548  14.843   9.221  0.00  0.00     0.114 C 
HETATM   23  C   UNK N   1      34.250  14.059   9.357  0.00  0.00     0.035 C 
HETATM   24  C   UNK N   1      35.658  15.123   7.730  0.00  0.00     0.035 C 
BRANCH  22  25
HETATM   25  C   UNK N   1      35.448  16.191   9.961  0.00  0.00     0.235 C 
HETATM   26  O   UNK N   1      36.395  16.584  10.631  0.00  0.00    -0.272 OA
HETATM   27  N   UNK N   1      34.330  16.966   9.913  0.00  0.00    -0.354 N 
HETATM   28  H   UNK N   1      34.277  17.758  10.497  0.00  0.00     0.162 HD
BRANCH  27  29
HETATM   29  C   UNK N   1      33.219  16.672   9.040  0.00  0.00     0.211 C 
BRANCH  29  30
HETATM   30  C   UNK N   1      32.856  17.831   8.133  0.00  0.00     0.354 C 
HETATM   31  F   UNK N   1      31.707  18.439   8.607  0.00  0.00    -0.194 F 
HETATM   32  F   UNK N   1      33.886  18.756   8.100  0.00  0.00    -0.194 F 
BRANCH  30  33
HETATM   33  C   UNK N   1      32.614  17.282   6.726  0.00  0.00     0.456 C 
HETATM   34  F   UNK N   1      31.335  17.609   6.307  0.00  0.00    -0.165 F 
HETATM   35  F   UNK N   1      33.530  17.821   5.837  0.00  0.00    -0.165 F 
HETATM   36  F   UNK N   1      32.745  15.907   6.728  0.00  0.00    -0.165 F 
ENDBRANCH  30  33
ENDBRANCH  29  30
ENDBRANCH  27  29
ENDBRANCH  22  25
ENDBRANCH   1  22
TORSDOF 6
ENDMDL
MODEL 9
REMARK VINA RESULT:      -7.4      7.931     11.505
REMARK  6 active torsions:
REMARK  status: ('A' for Active; 'I' for Inactive)
REMARK    1  A    between atoms: C_2  and  C_4 
REMARK    2  A    between atoms: C_2  and  C_15 
REMARK       I    between atoms: C_4  and  N_6 
REMARK    3  A    between atoms: N_6  and  C_7 
REMARK    4  A    between atoms: C_7  and  C_8 
REMARK    5  A    between atoms: C_8  and  C_9 
REMARK       I    between atoms: C_15  and  N_17 
REMARK    6  A    between atoms: C_18  and  N_17 
ROOT
HETATM    1  C   UNK N   1      37.253  11.669  11.952  0.00  0.00     0.235 C 
HETATM    2  O   UNK N   1      38.258  12.178  11.487  0.00  0.00    -0.272 OA
HETATM    3  N   UNK N   1      37.078  11.752  13.307  0.00  0.00    -0.343 N 
HETATM    4  H   UNK N   1      37.838  12.091  13.836  0.00  0.00     0.163 HD
ENDROOT
BRANCH   3   5
HETATM    5  C   UNK N   1      35.886  11.390  14.035  0.00  0.00     0.211 C 
HETATM    6  C   UNK N   1      35.832  10.064  14.693  0.00  0.00    -0.015 A 
HETATM    7  C   UNK N   1      35.969   8.938  13.867  0.00  0.00     0.011 A 
HETATM    8  C   UNK N   1      35.708   9.898  16.092  0.00  0.00    -0.015 A 
HETATM    9  C   UNK N   1      35.980   7.651  14.391  0.00  0.00     0.001 A 
HETATM   10  C   UNK N   1      35.872   7.470  15.761  0.00  0.00     0.001 A 
HETATM   11  C   UNK N   1      35.743   8.577  16.596  0.00  0.00     0.013 A 
HETATM   12  C   UNK N   1      35.561  11.009  17.100  0.00  0.00     0.002 A 
HETATM   13  C   UNK N   1      35.804  10.638  18.443  0.00  0.00     0.014 A 
HETATM   14  C   UNK N   1      35.155  12.370  16.857  0.00  0.00     0.045 A 
HETATM   15  C   UNK N   1      35.683  11.532  19.499  0.00  0.00     0.001 A 
HETATM   16  C   UNK N   1      35.301  12.839  19.251  0.00  0.00     0.002 A 
HETATM   17  C   UNK N   1      35.032  13.243  17.949  0.00  0.00     0.030 A 
HETATM   18  N   UNK N   1      34.736  12.913  15.609  0.00  0.00    -0.324 N 
HETATM   19  C   UNK N   1      34.955  12.492  14.348  0.00  0.00     0.249 C 
HETATM   20  H   UNK N   1      34.198  13.734  15.679  0.00  0.00     0.169 HD
HETATM   21  O   UNK N   1      34.427  13.093  13.428  0.00  0.00    -0.270 OA
ENDBRANCH   3   5
BRANCH   1  22
HETATM   22  C   UNK N   1      36.266  10.976  10.975  0.00  0.00     0.114 C 
HETATM   23  C   UNK N   1      34.831  11.270  11.388  0.00  0.00     0.035 C 
HETATM   24  C   UNK N   1      36.351   9.457  10.984  0.00  0.00     0.035 C 
BRANCH  22  25
HETATM   25  C   UNK N   1      36.529  11.467   9.538  0.00  0.00     0.235 C 
HETATM   26  O   UNK N   1      37.077  10.720   8.736  0.00  0.00    -0.272 OA
HETATM   27  N   UNK N   1      36.190  12.717   9.123  0.00  0.00    -0.354 N 
HETATM   28  H   UNK N   1      36.486  13.018   8.232  0.00  0.00     0.162 HD
BRANCH  27  29
HETATM   29  C   UNK N   1      35.412  13.620   9.937  0.00  0.00     0.211 C 
BRANCH  29  30
HETATM   30  C   UNK N   1      35.981  15.025   9.972  0.00  0.00     0.354 C 
HETATM   31  F   UNK N   1      37.361  14.956  10.049  0.00  0.00    -0.194 F 
HETATM   32  F   UNK N   1      35.618  15.719   8.830  0.00  0.00    -0.194 F 
BRANCH  30  33
HETATM   33  C   UNK N   1      35.423  15.738  11.205  0.00  0.00     0.456 C 
HETATM   34  F   UNK N   1      35.452  17.109  11.008  0.00  0.00    -0.165 F 
HETATM   35  F   UNK N   1      34.116  15.344  11.436  0.00  0.00    -0.165 F 
HETATM   36  F   UNK N   1      36.188  15.430  12.314  0.00  0.00    -0.165 F 
ENDBRANCH  30  33
ENDBRANCH  29  30
ENDBRANCH  27  29
ENDBRANCH  22  25
ENDBRANCH   1  22
TORSDOF 6
ENDMDL
