MODEL 1
REMARK VINA RESULT:      -8.9      0.000      0.000
REMARK  22 active torsions:
REMARK  status: ('A' for Active; 'I' for Inactive)
REMARK    1  A    between atoms: C_2  and  C_3 
REMARK    2  A    between atoms: C_3  and  C_4 
REMARK    3  A    between atoms: C_10  and  C_13 
REMARK    4  A    between atoms: C_15  and  S_22 
REMARK    5  A    between atoms: C_18  and  O_19 
REMARK    6  A    between atoms: O_19  and  C_20 
REMARK    7  A    between atoms: S_22  and  N_25 
REMARK    8  A    between atoms: N_28  and  C_31 
REMARK    9  A    between atoms: C_31  and  C_32 
REMARK   10  A    between atoms: C_32  and  O_33 
REMARK   11  A    between atoms: O_33  and  C_34 
REMARK   12  A    between atoms: C_34  and  O_36 
REMARK   13  A    between atoms: O_36  and  C_37 
REMARK   14  A    between atoms: C_37  and  C_38 
REMARK   15  A    between atoms: C_38  and  N_39 
REMARK   16  A    between atoms: N_42  and  S_45 
REMARK   17  A    between atoms: S_45  and  C_48 
REMARK   18  A    between atoms: C_51  and  O_70 
REMARK   19  A    between atoms: C_52  and  C_54 
REMARK   20  A    between atoms: C_62  and  C_67 
REMARK   21  A    between atoms: C_67  and  C_68 
REMARK   22  A    between atoms: O_70  and  C_71 
ROOT
HETATM    1  C   UNK N   1      26.387  14.917   2.183  0.00  0.00     0.406 C 
HETATM    2  O   UNK N   1      26.088  15.680   1.278  0.00  0.00    -0.230 OA
ENDROOT
BRANCH   1   3
HETATM    3  O   UNK N   1      26.160  13.592   2.012  0.00  0.00    -0.296 OA
BRANCH   3   4
HETATM    4  C   UNK N   1      24.930  12.990   1.923  0.00  0.00     0.200 C 
BRANCH   4   5
HETATM    5  C   UNK N   1      24.753  11.998   3.070  0.00  0.00     0.143 C 
BRANCH   5   6
HETATM    6  N   UNK N   1      24.016  12.508   4.238  0.00  0.00    -0.408 N 
HETATM    7  C   UNK N   1      23.161  11.515   4.898  0.00  0.00     0.132 C 
HETATM    8  C   UNK N   1      23.847  10.789   6.063  0.00  0.00     0.127 C 
HETATM    9  N   UNK N   1      24.540  11.691   6.993  0.00  0.00    -0.203 NA
HETATM   10  C   UNK N   1      25.436  12.622   6.291  0.00  0.00     0.127 C 
HETATM   11  C   UNK N   1      24.740  13.394   5.155  0.00  0.00     0.132 C 
BRANCH   9  12
HETATM   12  S   UNK N   1      23.520  12.598   8.157  0.00  0.00     0.243 S 
HETATM   13  O   UNK N   1      23.104  11.567   9.213  0.00  0.00    -0.206 OA
HETATM   14  O   UNK N   1      24.601  13.289   8.990  0.00  0.00    -0.206 OA
BRANCH  12  15
HETATM   15  C   UNK N   1      22.350  13.948   8.080  0.00  0.00     0.075 A 
HETATM   16  C   UNK N   1      22.514  14.870   7.070  0.00  0.00     0.042 A 
HETATM   17  C   UNK N   1      21.781  16.050   7.030  0.00  0.00     0.043 A 
HETATM   18  C   UNK N   1      20.868  16.342   8.066  0.00  0.00     0.082 A 
HETATM   19  C   UNK N   1      20.722  15.424   9.126  0.00  0.00     0.039 A 
HETATM   20  C   UNK N   1      21.467  14.231   9.135  0.00  0.00     0.027 A 
BRANCH  17  21
HETATM   21  C   UNK N   1      21.965  16.885   5.842  0.00  0.00     0.121 A 
HETATM   22  N   UNK N   1      20.851  17.249   5.120  0.00  0.00    -0.307 N 
HETATM   23  C   UNK N   1      20.914  18.215   4.149  0.00  0.00     0.277 A 
HETATM   24  H   UNK N   1      19.991  16.807   5.304  0.00  0.00     0.170 HD
HETATM   25  C   UNK N   1      22.134  18.830   3.940  0.00  0.00     0.147 A 
HETATM   26  O   UNK N   1      19.915  18.536   3.532  0.00  0.00    -0.265 OA
HETATM   27  C   UNK N   1      23.222  18.425   4.632  0.00  0.00     0.092 A 
HETATM   28  N   UNK N   1      22.490  19.845   3.132  0.00  0.00    -0.289 N 
HETATM   29  C   UNK N   1      24.263  19.211   4.213  0.00  0.00     0.055 A 
HETATM   30  N   UNK N   1      23.176  17.459   5.576  0.00  0.00    -0.338 N 
HETATM   31  N   UNK N   1      23.786  20.089   3.293  0.00  0.00    -0.300 N 
ATOM     32  HN  UNK N   1      24.327  20.807   2.810  1.00  0.00     0.187 HD
ATOM     33  HN  UNK N   1      24.017  17.168   6.074  1.00  0.00     0.167 HD
HETATM   34  C   UNK N   1      21.616  20.607   2.256  0.00  0.00     0.178 C 
BRANCH  29  35
HETATM   35  C   UNK N   1      25.670  19.148   4.693  0.00  0.00     0.061 C 
BRANCH  35  36
HETATM   36  C   UNK N   1      26.120  20.539   5.105  0.00  0.00     0.002 C 
HETATM   37  C   UNK N   1      27.566  20.505   5.547  0.00  0.00     0.005 C 
ENDBRANCH  35  36
ENDBRANCH  29  35
ENDBRANCH  17  21
BRANCH  18  38
HETATM   38  O   UNK N   1      20.139  17.483   8.038  0.00  0.00    -0.351 OA
BRANCH  38  39
HETATM   39  C   UNK N   1      19.357  17.866   9.104  0.00  0.00     0.171 C 
HETATM   40  C   UNK N   1      17.924  17.419   8.920  0.00  0.00     0.034 C 
ENDBRANCH  38  39
ENDBRANCH  18  38
ENDBRANCH  12  15
ENDBRANCH   9  12
ENDBRANCH   5   6
ENDBRANCH   4   5
ENDBRANCH   3   4
ENDBRANCH   1   3
BRANCH   1  41
HETATM   41  O   UNK N   1      26.903  15.430   3.331  0.00  0.00    -0.296 OA
BRANCH  41  42
HETATM   42  C   UNK N   1      28.020  16.236   3.394  0.00  0.00     0.211 C 
BRANCH  42  43
HETATM   43  C   UNK N   1      29.251  15.435   3.827  0.00  0.00     0.299 C 
BRANCH  43  44
HETATM   44  N   UNK N   1      30.448  16.263   4.073  0.00  0.00     0.092 N 
HETATM   45  C   UNK N   1      31.616  15.392   4.243  0.00  0.00     0.288 C 
HETATM   46  C   UNK N   1      31.478  14.448   5.458  0.00  0.00     0.138 C 
HETATM   47  N   UNK N   1      31.025  15.118   6.689  0.00  0.00    -0.203 NA
HETATM   48  C   UNK N   1      29.991  16.139   6.469  0.00  0.00     0.138 C 
HETATM   49  C   UNK N   1      30.345  17.053   5.297  0.00  0.00     0.288 C 
BRANCH  47  50
HETATM   50  S   UNK N   1      32.371  15.789   7.631  0.00  0.00     0.243 S 
HETATM   51  O   UNK N   1      31.836  16.851   8.606  0.00  0.00    -0.206 OA
HETATM   52  O   UNK N   1      31.959  14.715   8.659  0.00  0.00    -0.206 OA
BRANCH  50  53
HETATM   53  C   UNK N   1      33.998  15.152   8.035  0.00  0.00     0.075 A 
HETATM   54  C   UNK N   1      35.006  14.988   7.085  0.00  0.00     0.027 A 
HETATM   55  C   UNK N   1      36.252  14.481   7.486  0.00  0.00     0.039 A 
HETATM   56  C   UNK N   1      36.494  14.134   8.839  0.00  0.00     0.082 A 
HETATM   57  C   UNK N   1      35.459  14.307   9.785  0.00  0.00     0.043 A 
HETATM   58  C   UNK N   1      34.245  14.820   9.359  0.00  0.00     0.042 A 
BRANCH  56  59
HETATM   59  O   UNK N   1      37.693  13.635   9.225  0.00  0.00    -0.351 OA
BRANCH  59  60
HETATM   60  C   UNK N   1      38.036  12.309   9.077  0.00  0.00     0.171 C 
HETATM   61  C   UNK N   1      38.042  11.632  10.431  0.00  0.00     0.034 C 
ENDBRANCH  59  60
ENDBRANCH  56  59
BRANCH  57  62
HETATM   62  C   UNK N   1      35.547  13.991  11.225  0.00  0.00     0.121 A 
HETATM   63  N   UNK N   1      36.193  14.818  12.115  0.00  0.00    -0.307 N 
HETATM   64  C   UNK N   1      36.201  14.529  13.467  0.00  0.00     0.277 A 
HETATM   65  H   UNK N   1      36.654  15.623  11.787  0.00  0.00     0.170 HD
HETATM   66  O   UNK N   1      36.765  15.268  14.253  0.00  0.00    -0.265 OA
HETATM   67  C   UNK N   1      35.547  13.375  13.894  0.00  0.00     0.147 A 
HETATM   68  C   UNK N   1      34.943  12.575  12.992  0.00  0.00     0.092 A 
HETATM   69  N   UNK N   1      35.378  12.843  15.120  0.00  0.00    -0.289 N 
HETATM   70  N   UNK N   1      34.924  12.855  11.676  0.00  0.00    -0.338 N 
HETATM   71  C   UNK N   1      34.407  11.521  13.695  0.00  0.00     0.055 A 
ATOM     72  HN  UNK N   1      34.452  12.230  11.022  1.00  0.00     0.167 HD
HETATM   73  N   UNK N   1      34.684  11.711  15.009  0.00  0.00    -0.300 N 
ATOM     74  HN  UNK N   1      34.412  11.096  15.775  1.00  0.00     0.187 HD
HETATM   75  C   UNK N   1      35.854  13.377  16.384  0.00  0.00     0.178 C 
BRANCH  71  76
HETATM   76  C   UNK N   1      33.678  10.334  13.148  0.00  0.00     0.061 C 
BRANCH  76  77
HETATM   77  C   UNK N   1      34.285   9.842  11.846  0.00  0.00     0.002 C 
HETATM   78  C   UNK N   1      33.177   9.379  10.920  0.00  0.00     0.005 C 
ENDBRANCH  76  77
ENDBRANCH  71  76
ENDBRANCH  57  62
ENDBRANCH  50  53
ENDBRANCH  47  50
ENDBRANCH  43  44
ENDBRANCH  42  43
ENDBRANCH  41  42
ENDBRANCH   1  41
TORSDOF 22
ENDMDL
MODEL 2
REMARK VINA RESULT:      -8.6      3.722      7.284
REMARK  22 active torsions:
REMARK  status: ('A' for Active; 'I' for Inactive)
REMARK    1  A    between atoms: C_2  and  C_3 
REMARK    2  A    between atoms: C_3  and  C_4 
REMARK    3  A    between atoms: C_10  and  C_13 
REMARK    4  A    between atoms: C_15  and  S_22 
REMARK    5  A    between atoms: C_18  and  O_19 
REMARK    6  A    between atoms: O_19  and  C_20 
REMARK    7  A    between atoms: S_22  and  N_25 
REMARK    8  A    between atoms: N_28  and  C_31 
REMARK    9  A    between atoms: C_31  and  C_32 
REMARK   10  A    between atoms: C_32  and  O_33 
REMARK   11  A    between atoms: O_33  and  C_34 
REMARK   12  A    between atoms: C_34  and  O_36 
REMARK   13  A    between atoms: O_36  and  C_37 
REMARK   14  A    between atoms: C_37  and  C_38 
REMARK   15  A    between atoms: C_38  and  N_39 
REMARK   16  A    between atoms: N_42  and  S_45 
REMARK   17  A    between atoms: S_45  and  C_48 
REMARK   18  A    between atoms: C_51  and  O_70 
REMARK   19  A    between atoms: C_52  and  C_54 
REMARK   20  A    between atoms: C_62  and  C_67 
REMARK   21  A    between atoms: C_67  and  C_68 
REMARK   22  A    between atoms: O_70  and  C_71 
ROOT
HETATM    1  C   UNK N   1      21.391  20.059   3.004  0.00  0.00     0.406 C 
HETATM    2  O   UNK N   1      20.629  20.922   3.411  0.00  0.00    -0.230 OA
ENDROOT
BRANCH   1   3
HETATM    3  O   UNK N   1      20.894  19.085   2.203  0.00  0.00    -0.296 OA
BRANCH   3   4
HETATM    4  C   UNK N   1      20.037  18.085   2.588  0.00  0.00     0.200 C 
BRANCH   4   5
HETATM    5  C   UNK N   1      20.693  16.723   2.364  0.00  0.00     0.143 C 
BRANCH   5   6
HETATM    6  N   UNK N   1      21.091  16.006   3.588  0.00  0.00    -0.408 N 
HETATM    7  C   UNK N   1      22.033  16.738   4.441  0.00  0.00     0.132 C 
HETATM    8  C   UNK N   1      21.353  17.564   5.542  0.00  0.00     0.127 C 
HETATM    9  N   UNK N   1      20.327  16.820   6.287  0.00  0.00    -0.203 NA
HETATM   10  C   UNK N   1      19.367  16.160   5.390  0.00  0.00     0.127 C 
HETATM   11  C   UNK N   1      20.041  15.286   4.315  0.00  0.00     0.132 C 
BRANCH   9  12
HETATM   12  S   UNK N   1      20.905  15.651   7.518  0.00  0.00     0.243 S 
HETATM   13  O   UNK N   1      21.006  16.456   8.819  0.00  0.00    -0.206 OA
HETATM   14  O   UNK N   1      19.597  14.930   7.849  0.00  0.00    -0.206 OA
BRANCH  12  15
HETATM   15  C   UNK N   1      21.996  14.235   7.552  0.00  0.00     0.075 A 
HETATM   16  C   UNK N   1      22.872  14.086   6.499  0.00  0.00     0.042 A 
HETATM   17  C   UNK N   1      23.628  12.932   6.334  0.00  0.00     0.043 A 
HETATM   18  C   UNK N   1      23.475  11.859   7.238  0.00  0.00     0.082 A 
HETATM   19  C   UNK N   1      22.552  11.985   8.295  0.00  0.00     0.039 A 
HETATM   20  C   UNK N   1      21.809  13.170   8.448  0.00  0.00     0.027 A 
BRANCH  17  21
HETATM   21  C   UNK N   1      24.606  12.951   5.244  0.00  0.00     0.121 A 
HETATM   22  N   UNK N   1      25.944  12.976   5.567  0.00  0.00    -0.307 N 
HETATM   23  C   UNK N   1      26.911  12.753   4.621  0.00  0.00     0.277 A 
HETATM   24  H   UNK N   1      26.212  13.158   6.497  0.00  0.00     0.170 HD
HETATM   25  C   UNK N   1      26.491  12.476   3.334  0.00  0.00     0.147 A 
HETATM   26  O   UNK N   1      28.089  12.763   4.929  0.00  0.00    -0.265 OA
HETATM   27  C   UNK N   1      25.174  12.499   3.033  0.00  0.00     0.092 A 
HETATM   28  N   UNK N   1      27.181  12.144   2.228  0.00  0.00    -0.289 N 
HETATM   29  C   UNK N   1      25.075  12.188   1.702  0.00  0.00     0.055 A 
HETATM   30  N   UNK N   1      24.214  12.738   3.953  0.00  0.00    -0.338 N 
HETATM   31  N   UNK N   1      26.326  11.963   1.226  0.00  0.00    -0.300 N 
ATOM     32  HN  UNK N   1      26.567  11.701   0.270  1.00  0.00     0.187 HD
ATOM     33  HN  UNK N   1      23.228  12.760   3.692  1.00  0.00     0.167 HD
HETATM   34  C   UNK N   1      28.618  11.954   2.122  0.00  0.00     0.178 C 
BRANCH  29  35
HETATM   35  C   UNK N   1      23.820  12.081   0.908  0.00  0.00     0.061 C 
BRANCH  35  36
HETATM   36  C   UNK N   1      23.378  13.471   0.485  0.00  0.00     0.002 C 
HETATM   37  C   UNK N   1      21.880  13.608   0.645  0.00  0.00     0.005 C 
ENDBRANCH  35  36
ENDBRANCH  29  35
ENDBRANCH  17  21
BRANCH  18  38
HETATM   38  O   UNK N   1      24.211  10.731   7.096  0.00  0.00    -0.351 OA
BRANCH  38  39
HETATM   39  C   UNK N   1      23.621   9.488   7.044  0.00  0.00     0.171 C 
HETATM   40  C   UNK N   1      22.902   9.279   5.730  0.00  0.00     0.034 C 
ENDBRANCH  38  39
ENDBRANCH  18  38
ENDBRANCH  12  15
ENDBRANCH   9  12
ENDBRANCH   5   6
ENDBRANCH   4   5
ENDBRANCH   3   4
ENDBRANCH   1   3
BRANCH   1  41
HETATM   41  O   UNK N   1      22.692  20.094   3.395  0.00  0.00    -0.296 OA
BRANCH  41  42
HETATM   42  C   UNK N   1      23.699  20.733   2.704  0.00  0.00     0.211 C 
BRANCH  42  43
HETATM   43  C   UNK N   1      25.072  20.186   3.105  0.00  0.00     0.299 C 
BRANCH  43  44
HETATM   44  N   UNK N   1      25.217  19.935   4.553  0.00  0.00     0.092 N 
HETATM   45  C   UNK N   1      26.596  20.219   4.961  0.00  0.00     0.288 C 
HETATM   46  C   UNK N   1      27.622  19.307   4.252  0.00  0.00     0.138 C 
HETATM   47  N   UNK N   1      27.261  17.880   4.258  0.00  0.00    -0.203 NA
HETATM   48  C   UNK N   1      25.829  17.625   4.048  0.00  0.00     0.138 C 
HETATM   49  C   UNK N   1      24.962  18.541   4.910  0.00  0.00     0.288 C 
BRANCH  47  50
HETATM   50  S   UNK N   1      27.836  17.040   5.711  0.00  0.00     0.243 S 
HETATM   51  O   UNK N   1      26.849  15.921   6.082  0.00  0.00    -0.206 OA
HETATM   52  O   UNK N   1      28.469  16.072   4.691  0.00  0.00    -0.206 OA
BRANCH  50  53
HETATM   53  C   UNK N   1      29.463  16.881   6.450  0.00  0.00     0.075 A 
HETATM   54  C   UNK N   1      29.782  17.404   7.703  0.00  0.00     0.027 A 
HETATM   55  C   UNK N   1      31.081  17.235   8.207  0.00  0.00     0.039 A 
HETATM   56  C   UNK N   1      32.067  16.545   7.459  0.00  0.00     0.082 A 
HETATM   57  C   UNK N   1      31.723  16.023   6.191  0.00  0.00     0.043 A 
HETATM   58  C   UNK N   1      30.429  16.197   5.728  0.00  0.00     0.042 A 
BRANCH  56  59
HETATM   59  O   UNK N   1      33.324  16.391   7.941  0.00  0.00    -0.351 OA
BRANCH  59  60
HETATM   60  C   UNK N   1      34.401  17.107   7.467  0.00  0.00     0.171 C 
HETATM   61  C   UNK N   1      34.484  18.435   8.188  0.00  0.00     0.034 C 
ENDBRANCH  59  60
ENDBRANCH  56  59
BRANCH  57  62
HETATM   62  C   UNK N   1      32.630  15.285   5.289  0.00  0.00     0.121 A 
HETATM   63  N   UNK N   1      32.848  15.681   3.990  0.00  0.00    -0.307 N 
HETATM   64  C   UNK N   1      33.754  15.009   3.191  0.00  0.00     0.277 A 
HETATM   65  H   UNK N   1      32.355  16.451   3.625  0.00  0.00     0.170 HD
HETATM   66  O   UNK N   1      33.952  15.368   2.045  0.00  0.00    -0.265 OA
HETATM   67  C   UNK N   1      34.426  13.918   3.738  0.00  0.00     0.147 A 
HETATM   68  C   UNK N   1      34.172  13.543   5.008  0.00  0.00     0.092 A 
HETATM   69  N   UNK N   1      35.352  13.086   3.223  0.00  0.00    -0.289 N 
HETATM   70  N   UNK N   1      33.298  14.198   5.793  0.00  0.00    -0.338 N 
HETATM   71  C   UNK N   1      34.958  12.443   5.259  0.00  0.00     0.055 A 
ATOM     72  HN  UNK N   1      33.134  13.890   6.753  1.00  0.00     0.167 HD
HETATM   73  N   UNK N   1      35.682  12.182   4.144  0.00  0.00    -0.300 N 
ATOM     74  HN  UNK N   1      36.358  11.428   4.030  1.00  0.00     0.187 HD
HETATM   75  C   UNK N   1      35.927  13.128   1.890  0.00  0.00     0.178 C 
BRANCH  71  76
HETATM   76  C   UNK N   1      35.007  11.622   6.511  0.00  0.00     0.061 C 
BRANCH  76  77
HETATM   77  C   UNK N   1      35.822  12.294   7.601  0.00  0.00     0.002 C 
HETATM   78  C   UNK N   1      37.271  12.384   7.162  0.00  0.00     0.005 C 
ENDBRANCH  76  77
ENDBRANCH  71  76
ENDBRANCH  57  62
ENDBRANCH  50  53
ENDBRANCH  47  50
ENDBRANCH  43  44
ENDBRANCH  42  43
ENDBRANCH  41  42
ENDBRANCH   1  41
TORSDOF 22
ENDMDL
MODEL 3
REMARK VINA RESULT:      -8.6      2.474      5.607
REMARK  22 active torsions:
REMARK  status: ('A' for Active; 'I' for Inactive)
REMARK    1  A    between atoms: C_2  and  C_3 
REMARK    2  A    between atoms: C_3  and  C_4 
REMARK    3  A    between atoms: C_10  and  C_13 
REMARK    4  A    between atoms: C_15  and  S_22 
REMARK    5  A    between atoms: C_18  and  O_19 
REMARK    6  A    between atoms: O_19  and  C_20 
REMARK    7  A    between atoms: S_22  and  N_25 
REMARK    8  A    between atoms: N_28  and  C_31 
REMARK    9  A    between atoms: C_31  and  C_32 
REMARK   10  A    between atoms: C_32  and  O_33 
REMARK   11  A    between atoms: O_33  and  C_34 
REMARK   12  A    between atoms: C_34  and  O_36 
REMARK   13  A    between atoms: O_36  and  C_37 
REMARK   14  A    between atoms: C_37  and  C_38 
REMARK   15  A    between atoms: C_38  and  N_39 
REMARK   16  A    between atoms: N_42  and  S_45 
REMARK   17  A    between atoms: S_45  and  C_48 
REMARK   18  A    between atoms: C_51  and  O_70 
REMARK   19  A    between atoms: C_52  and  C_54 
REMARK   20  A    between atoms: C_62  and  C_67 
REMARK   21  A    between atoms: C_67  and  C_68 
REMARK   22  A    between atoms: O_70  and  C_71 
ROOT
HETATM    1  C   UNK N   1      22.455  20.053   3.044  0.00  0.00     0.406 C 
HETATM    2  O   UNK N   1      22.530  21.240   2.771  0.00  0.00    -0.230 OA
ENDROOT
BRANCH   1   3
HETATM    3  O   UNK N   1      21.235  19.464   3.034  0.00  0.00    -0.296 OA
BRANCH   3   4
HETATM    4  C   UNK N   1      20.957  18.194   2.596  0.00  0.00     0.200 C 
BRANCH   4   5
HETATM    5  C   UNK N   1      19.962  17.524   3.540  0.00  0.00     0.143 C 
BRANCH   5   6
HETATM    6  N   UNK N   1      20.516  16.450   4.383  0.00  0.00    -0.408 N 
HETATM    7  C   UNK N   1      21.738  16.817   5.107  0.00  0.00     0.132 C 
HETATM    8  C   UNK N   1      21.478  17.345   6.525  0.00  0.00     0.127 C 
HETATM    9  N   UNK N   1      20.552  16.511   7.302  0.00  0.00    -0.203 NA
HETATM   10  C   UNK N   1      19.314  16.227   6.561  0.00  0.00     0.127 C 
HETATM   11  C   UNK N   1      19.566  15.646   5.157  0.00  0.00     0.132 C 
BRANCH   9  12
HETATM   12  S   UNK N   1      21.208  14.989   7.988  0.00  0.00     0.243 S 
HETATM   13  O   UNK N   1      21.281  15.229   9.500  0.00  0.00    -0.206 OA
HETATM   14  O   UNK N   1      19.944  14.125   7.999  0.00  0.00    -0.206 OA
BRANCH  12  15
HETATM   15  C   UNK N   1      22.375  13.733   7.478  0.00  0.00     0.075 A 
HETATM   16  C   UNK N   1      23.398  14.123   6.644  0.00  0.00     0.042 A 
HETATM   17  C   UNK N   1      24.245  13.199   6.043  0.00  0.00     0.043 A 
HETATM   18  C   UNK N   1      24.037  11.819   6.254  0.00  0.00     0.082 A 
HETATM   19  C   UNK N   1      22.967  11.408   7.073  0.00  0.00     0.039 A 
HETATM   20  C   UNK N   1      22.133  12.365   7.680  0.00  0.00     0.027 A 
BRANCH  17  21
HETATM   21  C   UNK N   1      25.363  13.751   5.276  0.00  0.00     0.121 A 
HETATM   22  N   UNK N   1      26.642  13.538   5.740  0.00  0.00    -0.307 N 
HETATM   23  C   UNK N   1      27.738  13.809   4.963  0.00  0.00     0.277 A 
HETATM   24  H   UNK N   1      26.772  13.184   6.649  0.00  0.00     0.170 HD
HETATM   25  C   UNK N   1      27.511  14.281   3.684  0.00  0.00     0.147 A 
HETATM   26  O   UNK N   1      28.860  13.599   5.384  0.00  0.00    -0.265 OA
HETATM   27  C   UNK N   1      26.248  14.521   3.266  0.00  0.00     0.092 A 
HETATM   28  N   UNK N   1      28.358  14.558   2.676  0.00  0.00    -0.289 N 
HETATM   29  C   UNK N   1      26.345  14.972   1.976  0.00  0.00     0.055 A 
HETATM   30  N   UNK N   1      25.162  14.277   4.032  0.00  0.00    -0.338 N 
HETATM   31  N   UNK N   1      27.658  14.978   1.628  0.00  0.00    -0.300 N 
ATOM     32  HN  UNK N   1      28.038  15.255   0.723  1.00  0.00     0.187 HD
ATOM     33  HN  UNK N   1      24.222  14.480   3.692  1.00  0.00     0.167 HD
HETATM   34  C   UNK N   1      29.801  14.387   2.681  0.00  0.00     0.178 C 
BRANCH  29  35
HETATM   35  C   UNK N   1      25.218  15.363   1.087  0.00  0.00     0.061 C 
BRANCH  35  36
HETATM   36  C   UNK N   1      24.365  14.141   0.795  0.00  0.00     0.002 C 
HETATM   37  C   UNK N   1      22.918  14.429   1.128  0.00  0.00     0.005 C 
ENDBRANCH  35  36
ENDBRANCH  29  35
ENDBRANCH  17  21
BRANCH  18  38
HETATM   38  O   UNK N   1      24.858  10.906   5.683  0.00  0.00    -0.351 OA
BRANCH  38  39
HETATM   39  C   UNK N   1      24.485  10.203   4.560  0.00  0.00     0.171 C 
HETATM   40  C   UNK N   1      25.232  10.689   3.338  0.00  0.00     0.034 C 
ENDBRANCH  38  39
ENDBRANCH  18  38
ENDBRANCH  12  15
ENDBRANCH   9  12
ENDBRANCH   5   6
ENDBRANCH   4   5
ENDBRANCH   3   4
ENDBRANCH   1   3
BRANCH   1  41
HETATM   41  O   UNK N   1      23.591  19.383   3.376  0.00  0.00    -0.296 OA
BRANCH  41  42
HETATM   42  C   UNK N   1      24.770  19.985   3.757  0.00  0.00     0.211 C 
BRANCH  42  43
HETATM   43  C   UNK N   1      25.563  19.084   4.709  0.00  0.00     0.299 C 
BRANCH  43  44
HETATM   44  N   UNK N   1      27.014  19.057   4.437  0.00  0.00     0.092 N 
HETATM   45  C   UNK N   1      27.539  17.719   4.729  0.00  0.00     0.288 C 
HETATM   46  C   UNK N   1      27.362  17.326   6.213  0.00  0.00     0.138 C 
HETATM   47  N   UNK N   1      27.777  18.371   7.164  0.00  0.00    -0.203 NA
HETATM   48  C   UNK N   1      27.417  19.734   6.749  0.00  0.00     0.138 C 
HETATM   49  C   UNK N   1      27.763  19.985   5.283  0.00  0.00     0.288 C 
BRANCH  47  50
HETATM   50  S   UNK N   1      29.503  18.277   7.565  0.00  0.00     0.243 S 
HETATM   51  O   UNK N   1      29.758  18.986   8.906  0.00  0.00    -0.206 OA
HETATM   52  O   UNK N   1      29.073  17.031   8.366  0.00  0.00    -0.206 OA
BRANCH  50  53
HETATM   53  C   UNK N   1      30.803  17.154   7.051  0.00  0.00     0.075 A 
HETATM   54  C   UNK N   1      30.954  16.719   5.735  0.00  0.00     0.027 A 
HETATM   55  C   UNK N   1      31.999  15.837   5.418  0.00  0.00     0.039 A 
HETATM   56  C   UNK N   1      32.897  15.385   6.418  0.00  0.00     0.082 A 
HETATM   57  C   UNK N   1      32.726  15.838   7.745  0.00  0.00     0.043 A 
HETATM   58  C   UNK N   1      31.692  16.716   8.022  0.00  0.00     0.042 A 
BRANCH  56  59
HETATM   59  O   UNK N   1      33.900  14.526   6.114  0.00  0.00    -0.351 OA
BRANCH  59  60
HETATM   60  C   UNK N   1      33.677  13.243   5.667  0.00  0.00     0.171 C 
HETATM   61  C   UNK N   1      34.501  12.990   4.422  0.00  0.00     0.034 C 
ENDBRANCH  59  60
ENDBRANCH  56  59
BRANCH  57  62
HETATM   62  C   UNK N   1      33.569  15.461   8.899  0.00  0.00     0.121 A 
HETATM   63  N   UNK N   1      34.159  16.402   9.710  0.00  0.00    -0.307 N 
HETATM   64  C   UNK N   1      34.887  16.018  10.820  0.00  0.00     0.277 A 
HETATM   65  H   UNK N   1      34.063  17.359   9.497  0.00  0.00     0.170 HD
HETATM   66  O   UNK N   1      35.400  16.854  11.542  0.00  0.00    -0.265 OA
HETATM   67  C   UNK N   1      35.010  14.656  11.083  0.00  0.00     0.147 A 
HETATM   68  C   UNK N   1      34.438  13.760  10.255  0.00  0.00     0.092 A 
HETATM   69  N   UNK N   1      35.637  13.988  12.072  0.00  0.00    -0.289 N 
HETATM   70  N   UNK N   1      33.721  14.127   9.177  0.00  0.00    -0.338 N 
HETATM   71  C   UNK N   1      34.741  12.513  10.752  0.00  0.00     0.055 A 
ATOM     72  HN  UNK N   1      33.296  13.421   8.575  1.00  0.00     0.167 HD
HETATM   73  N   UNK N   1      35.478  12.679  11.877  0.00  0.00    -0.300 N 
ATOM     74  HN  UNK N   1      35.847  11.935  12.469  1.00  0.00     0.187 HD
HETATM   75  C   UNK N   1      36.374  14.555  13.187  0.00  0.00     0.178 C 
BRANCH  71  76
HETATM   76  C   UNK N   1      34.380  11.183  10.166  0.00  0.00     0.061 C 
BRANCH  76  77
HETATM   77  C   UNK N   1      35.324  10.778   9.048  0.00  0.00     0.002 C 
HETATM   78  C   UNK N   1      36.519  10.053   9.638  0.00  0.00     0.005 C 
ENDBRANCH  76  77
ENDBRANCH  71  76
ENDBRANCH  57  62
ENDBRANCH  50  53
ENDBRANCH  47  50
ENDBRANCH  43  44
ENDBRANCH  42  43
ENDBRANCH  41  42
ENDBRANCH   1  41
TORSDOF 22
ENDMDL
MODEL 4
REMARK VINA RESULT:      -8.5      3.027      6.341
REMARK  22 active torsions:
REMARK  status: ('A' for Active; 'I' for Inactive)
REMARK    1  A    between atoms: C_2  and  C_3 
REMARK    2  A    between atoms: C_3  and  C_4 
REMARK    3  A    between atoms: C_10  and  C_13 
REMARK    4  A    between atoms: C_15  and  S_22 
REMARK    5  A    between atoms: C_18  and  O_19 
REMARK    6  A    between atoms: O_19  and  C_20 
REMARK    7  A    between atoms: S_22  and  N_25 
REMARK    8  A    between atoms: N_28  and  C_31 
REMARK    9  A    between atoms: C_31  and  C_32 
REMARK   10  A    between atoms: C_32  and  O_33 
REMARK   11  A    between atoms: O_33  and  C_34 
REMARK   12  A    between atoms: C_34  and  O_36 
REMARK   13  A    between atoms: O_36  and  C_37 
REMARK   14  A    between atoms: C_37  and  C_38 
REMARK   15  A    between atoms: C_38  and  N_39 
REMARK   16  A    between atoms: N_42  and  S_45 
REMARK   17  A    between atoms: S_45  and  C_48 
REMARK   18  A    between atoms: C_51  and  O_70 
REMARK   19  A    between atoms: C_52  and  C_54 
REMARK   20  A    between atoms: C_62  and  C_67 
REMARK   21  A    between atoms: C_67  and  C_68 
REMARK   22  A    between atoms: O_70  and  C_71 
ROOT
HETATM    1  C   UNK N   1      22.262  20.052   3.030  0.00  0.00     0.406 C 
HETATM    2  O   UNK N   1      22.300  21.231   2.714  0.00  0.00    -0.230 OA
ENDROOT
BRANCH   1   3
HETATM    3  O   UNK N   1      21.059  19.427   3.050  0.00  0.00    -0.296 OA
BRANCH   3   4
HETATM    4  C   UNK N   1      20.815  18.136   2.656  0.00  0.00     0.200 C 
BRANCH   4   5
HETATM    5  C   UNK N   1      19.811  17.484   3.605  0.00  0.00     0.143 C 
BRANCH   5   6
HETATM    6  N   UNK N   1      20.339  16.372   4.414  0.00  0.00    -0.408 N 
HETATM    7  C   UNK N   1      21.661  16.622   4.999  0.00  0.00     0.132 C 
HETATM    8  C   UNK N   1      21.605  17.196   6.422  0.00  0.00     0.127 C 
HETATM    9  N   UNK N   1      20.685  16.475   7.312  0.00  0.00    -0.203 NA
HETATM   10  C   UNK N   1      19.354  16.309   6.709  0.00  0.00     0.127 C 
HETATM   11  C   UNK N   1      19.398  15.683   5.303  0.00  0.00     0.132 C 
BRANCH   9  12
HETATM   12  S   UNK N   1      21.251  14.904   7.967  0.00  0.00     0.243 S 
HETATM   13  O   UNK N   1      21.189  15.058   9.491  0.00  0.00    -0.206 OA
HETATM   14  O   UNK N   1      19.979  14.067   7.814  0.00  0.00    -0.206 OA
BRANCH  12  15
HETATM   15  C   UNK N   1      22.440  13.654   7.495  0.00  0.00     0.075 A 
HETATM   16  C   UNK N   1      23.458  14.037   6.650  0.00  0.00     0.042 A 
HETATM   17  C   UNK N   1      24.321  13.110   6.077  0.00  0.00     0.043 A 
HETATM   18  C   UNK N   1      24.137  11.734   6.328  0.00  0.00     0.082 A 
HETATM   19  C   UNK N   1      23.073  11.329   7.159  0.00  0.00     0.039 A 
HETATM   20  C   UNK N   1      22.222  12.289   7.737  0.00  0.00     0.027 A 
BRANCH  17  21
HETATM   21  C   UNK N   1      25.430  13.659   5.295  0.00  0.00     0.121 A 
HETATM   22  N   UNK N   1      26.716  13.401   5.714  0.00  0.00    -0.307 N 
HETATM   23  C   UNK N   1      27.795  13.669   4.913  0.00  0.00     0.277 A 
HETATM   24  H   UNK N   1      26.863  13.015   6.608  0.00  0.00     0.170 HD
HETATM   25  C   UNK N   1      27.544  14.186   3.656  0.00  0.00     0.147 A 
HETATM   26  O   UNK N   1      28.924  13.419   5.295  0.00  0.00    -0.265 OA
HETATM   27  C   UNK N   1      26.276  14.470   3.284  0.00  0.00     0.092 A 
HETATM   28  N   UNK N   1      28.368  14.474   2.634  0.00  0.00    -0.289 N 
HETATM   29  C   UNK N   1      26.347  14.958   2.006  0.00  0.00     0.055 A 
HETATM   30  N   UNK N   1      25.206  14.229   4.073  0.00  0.00    -0.338 N 
HETATM   31  N   UNK N   1      27.649  14.944   1.620  0.00  0.00    -0.300 N 
ATOM     32  HN  UNK N   1      28.010  15.240   0.712  1.00  0.00     0.187 HD
ATOM     33  HN  UNK N   1      24.262  14.465   3.768  1.00  0.00     0.167 HD
HETATM   34  C   UNK N   1      29.806  14.269   2.590  0.00  0.00     0.178 C 
BRANCH  29  35
HETATM   35  C   UNK N   1      25.205  15.404   1.163  0.00  0.00     0.061 C 
BRANCH  35  36
HETATM   36  C   UNK N   1      24.422  14.189   0.700  0.00  0.00     0.002 C 
HETATM   37  C   UNK N   1      22.968  14.331   1.091  0.00  0.00     0.005 C 
ENDBRANCH  35  36
ENDBRANCH  29  35
ENDBRANCH  17  21
BRANCH  18  38
HETATM   38  O   UNK N   1      24.974  10.819   5.785  0.00  0.00    -0.351 OA
BRANCH  38  39
HETATM   39  C   UNK N   1      24.617  10.080   4.680  0.00  0.00     0.171 C 
HETATM   40  C   UNK N   1      24.271   8.658   5.061  0.00  0.00     0.034 C 
ENDBRANCH  38  39
ENDBRANCH  18  38
ENDBRANCH  12  15
ENDBRANCH   9  12
ENDBRANCH   5   6
ENDBRANCH   4   5
ENDBRANCH   3   4
ENDBRANCH   1   3
BRANCH   1  41
HETATM   41  O   UNK N   1      23.419  19.428   3.376  0.00  0.00    -0.296 OA
BRANCH  41  42
HETATM   42  C   UNK N   1      24.672  19.993   3.276  0.00  0.00     0.211 C 
BRANCH  42  43
HETATM   43  C   UNK N   1      25.548  19.598   4.469  0.00  0.00     0.299 C 
BRANCH  43  44
HETATM   44  N   UNK N   1      26.980  19.455   4.139  0.00  0.00     0.092 N 
HETATM   45  C   UNK N   1      27.347  18.036   4.166  0.00  0.00     0.288 C 
HETATM   46  C   UNK N   1      27.153  17.402   5.562  0.00  0.00     0.138 C 
HETATM   47  N   UNK N   1      27.707  18.203   6.667  0.00  0.00    -0.203 NA
HETATM   48  C   UNK N   1      27.504  19.651   6.516  0.00  0.00     0.138 C 
HETATM   49  C   UNK N   1      27.849  20.123   5.105  0.00  0.00     0.288 C 
BRANCH  47  50
HETATM   50  S   UNK N   1      29.417  17.843   6.975  0.00  0.00     0.243 S 
HETATM   51  O   UNK N   1      29.659  17.761   8.491  0.00  0.00    -0.206 OA
HETATM   52  O   UNK N   1      28.922  16.383   7.028  0.00  0.00    -0.206 OA
BRANCH  50  53
HETATM   53  C   UNK N   1      30.691  17.080   5.969  0.00  0.00     0.075 A 
HETATM   54  C   UNK N   1      31.036  17.543   4.700  0.00  0.00     0.027 A 
HETATM   55  C   UNK N   1      32.044  16.886   3.979  0.00  0.00     0.039 A 
HETATM   56  C   UNK N   1      32.712  15.760   4.523  0.00  0.00     0.082 A 
HETATM   57  C   UNK N   1      32.346  15.306   5.811  0.00  0.00     0.043 A 
HETATM   58  C   UNK N   1      31.355  15.984   6.501  0.00  0.00     0.042 A 
BRANCH  56  59
HETATM   59  O   UNK N   1      33.678  15.119   3.824  0.00  0.00    -0.351 OA
BRANCH  59  60
HETATM   60  C   UNK N   1      33.408  14.305   2.746  0.00  0.00     0.171 C 
HETATM   61  C   UNK N   1      34.649  14.168   1.889  0.00  0.00     0.034 C 
ENDBRANCH  59  60
ENDBRANCH  56  59
BRANCH  57  62
HETATM   62  C   UNK N   1      32.938  14.151   6.517  0.00  0.00     0.121 A 
HETATM   63  N   UNK N   1      32.525  12.861   6.280  0.00  0.00    -0.307 N 
HETATM   64  C   UNK N   1      33.144  11.797   6.907  0.00  0.00     0.277 A 
HETATM   65  H   UNK N   1      31.781  12.694   5.658  0.00  0.00     0.170 HD
HETATM   66  O   UNK N   1      32.783  10.655   6.688  0.00  0.00    -0.265 OA
HETATM   67  C   UNK N   1      34.187  12.073   7.789  0.00  0.00     0.147 A 
HETATM   68  C   UNK N   1      34.552  13.350   8.015  0.00  0.00     0.092 A 
HETATM   69  N   UNK N   1      34.972  11.265   8.528  0.00  0.00    -0.289 N 
HETATM   70  N   UNK N   1      33.959  14.390   7.402  0.00  0.00    -0.338 N 
HETATM   71  C   UNK N   1      35.578  13.311   8.930  0.00  0.00     0.055 A 
ATOM     72  HN  UNK N   1      34.265  15.345   7.592  1.00  0.00     0.167 HD
HETATM   73  N   UNK N   1      35.824  12.012   9.229  0.00  0.00    -0.300 N 
ATOM     74  HN  UNK N   1      36.534  11.668   9.875  1.00  0.00     0.187 HD
HETATM   75  C   UNK N   1      34.935   9.814   8.585  0.00  0.00     0.178 C 
BRANCH  71  76
HETATM   76  C   UNK N   1      36.298  14.471   9.547  0.00  0.00     0.061 C 
BRANCH  76  77
HETATM   77  C   UNK N   1      36.231  14.442  11.063  0.00  0.00     0.002 C 
HETATM   78  C   UNK N   1      34.808  14.720  11.508  0.00  0.00     0.005 C 
ENDBRANCH  76  77
ENDBRANCH  71  76
ENDBRANCH  57  62
ENDBRANCH  50  53
ENDBRANCH  47  50
ENDBRANCH  43  44
ENDBRANCH  42  43
ENDBRANCH  41  42
ENDBRANCH   1  41
TORSDOF 22
ENDMDL
MODEL 5
REMARK VINA RESULT:      -8.5      2.870      6.295
REMARK  22 active torsions:
REMARK  status: ('A' for Active; 'I' for Inactive)
REMARK    1  A    between atoms: C_2  and  C_3 
REMARK    2  A    between atoms: C_3  and  C_4 
REMARK    3  A    between atoms: C_10  and  C_13 
REMARK    4  A    between atoms: C_15  and  S_22 
REMARK    5  A    between atoms: C_18  and  O_19 
REMARK    6  A    between atoms: O_19  and  C_20 
REMARK    7  A    between atoms: S_22  and  N_25 
REMARK    8  A    between atoms: N_28  and  C_31 
REMARK    9  A    between atoms: C_31  and  C_32 
REMARK   10  A    between atoms: C_32  and  O_33 
REMARK   11  A    between atoms: O_33  and  C_34 
REMARK   12  A    between atoms: C_34  and  O_36 
REMARK   13  A    between atoms: O_36  and  C_37 
REMARK   14  A    between atoms: C_37  and  C_38 
REMARK   15  A    between atoms: C_38  and  N_39 
REMARK   16  A    between atoms: N_42  and  S_45 
REMARK   17  A    between atoms: S_45  and  C_48 
REMARK   18  A    between atoms: C_51  and  O_70 
REMARK   19  A    between atoms: C_52  and  C_54 
REMARK   20  A    between atoms: C_62  and  C_67 
REMARK   21  A    between atoms: C_67  and  C_68 
REMARK   22  A    between atoms: O_70  and  C_71 
ROOT
HETATM    1  C   UNK N   1      22.881  20.420   2.926  0.00  0.00     0.406 C 
HETATM    2  O   UNK N   1      21.884  21.060   2.630  0.00  0.00    -0.230 OA
ENDROOT
BRANCH   1   3
HETATM    3  O   UNK N   1      22.719  19.210   3.516  0.00  0.00    -0.296 OA
BRANCH   3   4
HETATM    4  C   UNK N   1      21.693  18.853   4.353  0.00  0.00     0.200 C 
BRANCH   4   5
HETATM    5  C   UNK N   1      22.116  17.670   5.220  0.00  0.00     0.143 C 
BRANCH   5   6
HETATM    6  N   UNK N   1      21.855  16.340   4.643  0.00  0.00    -0.408 N 
HETATM    7  C   UNK N   1      21.524  15.305   5.629  0.00  0.00     0.132 C 
HETATM    8  C   UNK N   1      20.016  15.137   5.861  0.00  0.00     0.127 C 
HETATM    9  N   UNK N   1      19.235  15.050   4.619  0.00  0.00    -0.203 NA
HETATM   10  C   UNK N   1      19.553  16.146   3.692  0.00  0.00     0.127 C 
HETATM   11  C   UNK N   1      21.061  16.287   3.412  0.00  0.00     0.132 C 
BRANCH   9  12
HETATM   12  S   UNK N   1      19.276  13.486   3.742  0.00  0.00     0.243 S 
HETATM   13  O   UNK N   1      18.073  12.697   4.272  0.00  0.00    -0.206 OA
HETATM   14  O   UNK N   1      18.650  13.901   2.409  0.00  0.00    -0.206 OA
BRANCH  12  15
HETATM   15  C   UNK N   1      20.536  12.387   3.105  0.00  0.00     0.075 A 
HETATM   16  C   UNK N   1      21.846  12.685   3.409  0.00  0.00     0.042 A 
HETATM   17  C   UNK N   1      22.905  12.010   2.815  0.00  0.00     0.043 A 
HETATM   18  C   UNK N   1      22.648  11.018   1.845  0.00  0.00     0.082 A 
HETATM   19  C   UNK N   1      21.312  10.735   1.497  0.00  0.00     0.039 A 
HETATM   20  C   UNK N   1      20.257  11.424   2.123  0.00  0.00     0.027 A 
BRANCH  17  21
HETATM   21  C   UNK N   1      24.242  12.340   3.314  0.00  0.00     0.121 A 
HETATM   22  N   UNK N   1      25.316  12.161   2.472  0.00  0.00    -0.307 N 
HETATM   23  C   UNK N   1      26.553  12.669   2.775  0.00  0.00     0.277 A 
HETATM   24  H   UNK N   1      25.194  11.658   1.634  0.00  0.00     0.170 HD
HETATM   25  C   UNK N   1      26.676  13.390   3.947  0.00  0.00     0.147 A 
HETATM   26  O   UNK N   1      27.488  12.514   2.010  0.00  0.00    -0.265 OA
HETATM   27  C   UNK N   1      25.617  13.517   4.777  0.00  0.00     0.092 A 
HETATM   28  N   UNK N   1      27.716  14.065   4.469  0.00  0.00    -0.289 N 
HETATM   29  C   UNK N   1      26.042  14.275   5.836  0.00  0.00     0.055 A 
HETATM   30  N   UNK N   1      24.399  13.002   4.498  0.00  0.00    -0.338 N 
HETATM   31  N   UNK N   1      27.340  14.612   5.621  0.00  0.00    -0.300 N 
ATOM     32  HN  UNK N   1      27.922  15.183   6.234  1.00  0.00     0.187 HD
ATOM     33  HN  UNK N   1      23.622  13.104   5.151  1.00  0.00     0.167 HD
HETATM   34  C   UNK N   1      29.031  14.234   3.874  0.00  0.00     0.178 C 
BRANCH  29  35
HETATM   35  C   UNK N   1      25.228  14.692   7.010  0.00  0.00     0.061 C 
BRANCH  35  36
HETATM   36  C   UNK N   1      25.140  13.537   7.992  0.00  0.00     0.002 C 
HETATM   37  C   UNK N   1      23.720  13.022   8.058  0.00  0.00     0.005 C 
ENDBRANCH  35  36
ENDBRANCH  29  35
ENDBRANCH  17  21
BRANCH  18  38
HETATM   38  O   UNK N   1      23.669  10.344   1.263  0.00  0.00    -0.351 OA
BRANCH  38  39
HETATM   39  C   UNK N   1      23.839  10.332  -0.103  0.00  0.00     0.171 C 
HETATM   40  C   UNK N   1      23.753   8.925  -0.652  0.00  0.00     0.034 C 
ENDBRANCH  38  39
ENDBRANCH  18  38
ENDBRANCH  12  15
ENDBRANCH   9  12
ENDBRANCH   5   6
ENDBRANCH   4   5
ENDBRANCH   3   4
ENDBRANCH   1   3
BRANCH   1  41
HETATM   41  O   UNK N   1      24.104  20.958   2.680  0.00  0.00    -0.296 OA
BRANCH  41  42
HETATM   42  C   UNK N   1      25.296  20.274   2.790  0.00  0.00     0.211 C 
BRANCH  42  43
HETATM   43  C   UNK N   1      25.882  20.417   4.198  0.00  0.00     0.299 C 
BRANCH  43  44
HETATM   44  N   UNK N   1      27.344  20.219   4.261  0.00  0.00     0.092 N 
HETATM   45  C   UNK N   1      27.641  18.783   4.262  0.00  0.00     0.288 C 
HETATM   46  C   UNK N   1      27.047  18.058   5.490  0.00  0.00     0.138 C 
HETATM   47  N   UNK N   1      27.299  18.740   6.770  0.00  0.00    -0.203 NA
HETATM   48  C   UNK N   1      27.195  20.204   6.698  0.00  0.00     0.138 C 
HETATM   49  C   UNK N   1      27.933  20.761   5.483  0.00  0.00     0.288 C 
BRANCH  47  50
HETATM   50  S   UNK N   1      28.844  18.261   7.501  0.00  0.00     0.243 S 
HETATM   51  O   UNK N   1      28.679  18.156   9.026  0.00  0.00    -0.206 OA
HETATM   52  O   UNK N   1      28.257  16.839   7.393  0.00  0.00    -0.206 OA
BRANCH  50  53
HETATM   53  C   UNK N   1      30.281  17.416   6.842  0.00  0.00     0.075 A 
HETATM   54  C   UNK N   1      30.499  17.240   5.475  0.00  0.00     0.027 A 
HETATM   55  C   UNK N   1      31.651  16.565   5.044  0.00  0.00     0.039 A 
HETATM   56  C   UNK N   1      32.590  16.060   5.978  0.00  0.00     0.082 A 
HETATM   57  C   UNK N   1      32.350  16.248   7.358  0.00  0.00     0.043 A 
HETATM   58  C   UNK N   1      31.210  16.928   7.750  0.00  0.00     0.042 A 
BRANCH  56  59
HETATM   59  O   UNK N   1      33.697  15.399   5.562  0.00  0.00    -0.351 OA
BRANCH  59  60
HETATM   60  C   UNK N   1      33.643  14.236   4.825  0.00  0.00     0.171 C 
HETATM   61  C   UNK N   1      34.493  13.174   5.489  0.00  0.00     0.034 C 
ENDBRANCH  59  60
ENDBRANCH  56  59
BRANCH  57  62
HETATM   62  C   UNK N   1      33.224  15.782   8.454  0.00  0.00     0.121 A 
HETATM   63  N   UNK N   1      33.843  16.657   9.316  0.00  0.00    -0.307 N 
HETATM   64  C   UNK N   1      34.600  16.188  10.372  0.00  0.00     0.277 A 
HETATM   65  H   UNK N   1      33.746  17.627   9.179  0.00  0.00     0.170 HD
HETATM   66  O   UNK N   1      35.139  16.965  11.140  0.00  0.00    -0.265 OA
HETATM   67  C   UNK N   1      34.723  14.809  10.529  0.00  0.00     0.147 A 
HETATM   68  C   UNK N   1      34.122  13.980   9.653  0.00  0.00     0.092 A 
HETATM   69  N   UNK N   1      35.374  14.066  11.446  0.00  0.00    -0.289 N 
HETATM   70  N   UNK N   1      33.376  14.430   8.627  0.00  0.00    -0.338 N 
HETATM   71  C   UNK N   1      34.432  12.699  10.045  0.00  0.00     0.055 A 
ATOM     72  HN  UNK N   1      32.930  13.773   7.986  1.00  0.00     0.167 HD
HETATM   73  N   UNK N   1      35.202  12.776  11.158  0.00  0.00    -0.300 N 
ATOM     74  HN  UNK N   1      35.583  11.989  11.681  1.00  0.00     0.187 HD
HETATM   75  C   UNK N   1      36.147  14.545  12.578  0.00  0.00     0.178 C 
BRANCH  71  76
HETATM   76  C   UNK N   1      34.046  11.418   9.372  0.00  0.00     0.061 C 
BRANCH  76  77
HETATM   77  C   UNK N   1      33.455  10.417  10.348  0.00  0.00     0.002 C 
HETATM   78  C   UNK N   1      33.595   9.018   9.778  0.00  0.00     0.005 C 
ENDBRANCH  76  77
ENDBRANCH  71  76
ENDBRANCH  57  62
ENDBRANCH  50  53
ENDBRANCH  47  50
ENDBRANCH  43  44
ENDBRANCH  42  43
ENDBRANCH  41  42
ENDBRANCH   1  41
TORSDOF 22
ENDMDL
MODEL 6
REMARK VINA RESULT:      -8.5      2.812      6.826
REMARK  22 active torsions:
REMARK  status: ('A' for Active; 'I' for Inactive)
REMARK    1  A    between atoms: C_2  and  C_3 
REMARK    2  A    between atoms: C_3  and  C_4 
REMARK    3  A    between atoms: C_10  and  C_13 
REMARK    4  A    between atoms: C_15  and  S_22 
REMARK    5  A    between atoms: C_18  and  O_19 
REMARK    6  A    between atoms: O_19  and  C_20 
REMARK    7  A    between atoms: S_22  and  N_25 
REMARK    8  A    between atoms: N_28  and  C_31 
REMARK    9  A    between atoms: C_31  and  C_32 
REMARK   10  A    between atoms: C_32  and  O_33 
REMARK   11  A    between atoms: O_33  and  C_34 
REMARK   12  A    between atoms: C_34  and  O_36 
REMARK   13  A    between atoms: O_36  and  C_37 
REMARK   14  A    between atoms: C_37  and  C_38 
REMARK   15  A    between atoms: C_38  and  N_39 
REMARK   16  A    between atoms: N_42  and  S_45 
REMARK   17  A    between atoms: S_45  and  C_48 
REMARK   18  A    between atoms: C_51  and  O_70 
REMARK   19  A    between atoms: C_52  and  C_54 
REMARK   20  A    between atoms: C_62  and  C_67 
REMARK   21  A    between atoms: C_67  and  C_68 
REMARK   22  A    between atoms: O_70  and  C_71 
ROOT
HETATM    1  C   UNK N   1      33.938  17.530   7.144  0.00  0.00     0.406 C 
HETATM    2  O   UNK N   1      34.687  18.426   7.500  0.00  0.00    -0.230 OA
ENDROOT
BRANCH   1   3
HETATM    3  O   UNK N   1      34.116  16.989   5.914  0.00  0.00    -0.296 OA
BRANCH   3   4
HETATM    4  C   UNK N   1      34.761  15.811   5.638  0.00  0.00     0.200 C 
BRANCH   4   5
HETATM    5  C   UNK N   1      33.758  14.773   5.138  0.00  0.00     0.143 C 
BRANCH   5   6
HETATM    6  N   UNK N   1      32.428  15.300   4.786  0.00  0.00    -0.408 N 
HETATM    7  C   UNK N   1      32.185  15.419   3.344  0.00  0.00     0.132 C 
HETATM    8  C   UNK N   1      31.497  14.190   2.733  0.00  0.00     0.127 C 
HETATM    9  N   UNK N   1      30.331  13.728   3.498  0.00  0.00    -0.203 NA
HETATM   10  C   UNK N   1      30.642  13.559   4.925  0.00  0.00     0.127 C 
HETATM   11  C   UNK N   1      31.285  14.807   5.559  0.00  0.00     0.132 C 
BRANCH   9  12
HETATM   12  S   UNK N   1      28.815  14.669   3.318  0.00  0.00     0.243 S 
HETATM   13  O   UNK N   1      28.478  14.605   1.824  0.00  0.00    -0.206 OA
HETATM   14  O   UNK N   1      27.790  13.631   3.782  0.00  0.00    -0.206 OA
BRANCH  12  15
HETATM   15  C   UNK N   1      28.085  16.112   4.081  0.00  0.00     0.075 A 
HETATM   16  C   UNK N   1      26.818  15.978   4.604  0.00  0.00     0.042 A 
HETATM   17  C   UNK N   1      26.091  17.076   5.049  0.00  0.00     0.043 A 
HETATM   18  C   UNK N   1      26.637  18.372   4.932  0.00  0.00     0.082 A 
HETATM   19  C   UNK N   1      27.916  18.524   4.360  0.00  0.00     0.039 A 
HETATM   20  C   UNK N   1      28.637  17.395   3.930  0.00  0.00     0.027 A 
BRANCH  17  21
HETATM   21  C   UNK N   1      24.808  16.783   5.692  0.00  0.00     0.121 A 
HETATM   22  N   UNK N   1      23.720  17.558   5.362  0.00  0.00    -0.307 N 
HETATM   23  C   UNK N   1      22.449  17.199   5.731  0.00  0.00     0.277 A 
HETATM   24  H   UNK N   1      23.856  18.388   4.851  0.00  0.00     0.170 HD
HETATM   25  C   UNK N   1      22.298  16.014   6.425  0.00  0.00     0.147 A 
HETATM   26  O   UNK N   1      21.497  17.889   5.416  0.00  0.00    -0.265 OA
HETATM   27  C   UNK N   1      23.386  15.291   6.773  0.00  0.00     0.092 A 
HETATM   28  N   UNK N   1      21.197  15.366   6.847  0.00  0.00    -0.289 N 
HETATM   29  C   UNK N   1      22.922  14.188   7.439  0.00  0.00     0.055 A 
HETATM   30  N   UNK N   1      24.645  15.647   6.433  0.00  0.00    -0.338 N 
HETATM   31  N   UNK N   1      21.565  14.249   7.465  0.00  0.00    -0.300 N 
ATOM     32  HN  UNK N   1      20.941  13.559   7.884  1.00  0.00     0.187 HD
ATOM     33  HN  UNK N   1      25.447  15.087   6.721  1.00  0.00     0.167 HD
HETATM   34  C   UNK N   1      19.817  15.766   6.634  0.00  0.00     0.178 C 
BRANCH  29  35
HETATM   35  C   UNK N   1      23.745  13.088   8.014  0.00  0.00     0.061 C 
BRANCH  35  36
HETATM   36  C   UNK N   1      22.838  11.929   8.386  0.00  0.00     0.002 C 
HETATM   37  C   UNK N   1      22.984  11.611   9.857  0.00  0.00     0.005 C 
ENDBRANCH  35  36
ENDBRANCH  29  35
ENDBRANCH  17  21
BRANCH  18  38
HETATM   38  O   UNK N   1      25.945  19.451   5.369  0.00  0.00    -0.351 OA
BRANCH  38  39
HETATM   39  C   UNK N   1      25.772  20.565   4.579  0.00  0.00     0.171 C 
HETATM   40  C   UNK N   1      25.028  20.223   3.307  0.00  0.00     0.034 C 
ENDBRANCH  38  39
ENDBRANCH  18  38
ENDBRANCH  12  15
ENDBRANCH   9  12
ENDBRANCH   5   6
ENDBRANCH   4   5
ENDBRANCH   3   4
ENDBRANCH   1   3
BRANCH   1  41
HETATM   41  O   UNK N   1      32.941  17.137   7.981  0.00  0.00    -0.296 OA
BRANCH  41  42
HETATM   42  C   UNK N   1      32.946  15.965   8.706  0.00  0.00     0.211 C 
BRANCH  42  43
HETATM   43  C   UNK N   1      34.321  15.713   9.331  0.00  0.00     0.299 C 
BRANCH  43  44
HETATM   44  N   UNK N   1      34.455  14.389   9.970  0.00  0.00     0.092 N 
HETATM   45  C   UNK N   1      35.642  14.381  10.831  0.00  0.00     0.288 C 
HETATM   46  C   UNK N   1      36.948  14.621  10.040  0.00  0.00     0.138 C 
HETATM   47  N   UNK N   1      37.068  13.807   8.819  0.00  0.00    -0.203 NA
HETATM   48  C   UNK N   1      35.811  13.658   8.074  0.00  0.00     0.138 C 
HETATM   49  C   UNK N   1      34.646  13.312   8.999  0.00  0.00     0.288 C 
BRANCH  47  50
HETATM   50  S   UNK N   1      37.799  12.220   9.130  0.00  0.00     0.243 S 
HETATM   51  O   UNK N   1      38.932  11.970   8.121  0.00  0.00    -0.206 OA
HETATM   52  O   UNK N   1      38.800  13.039   9.971  0.00  0.00    -0.206 OA
BRANCH  50  53
HETATM   53  C   UNK N   1      37.852  11.181  10.590  0.00  0.00     0.075 A 
HETATM   54  C   UNK N   1      38.247   9.844  10.557  0.00  0.00     0.027 A 
HETATM   55  C   UNK N   1      38.259   9.100  11.747  0.00  0.00     0.039 A 
HETATM   56  C   UNK N   1      37.873   9.690  12.977  0.00  0.00     0.082 A 
HETATM   57  C   UNK N   1      37.475  11.046  12.988  0.00  0.00     0.043 A 
HETATM   58  C   UNK N   1      37.486  11.755  11.799  0.00  0.00     0.042 A 
BRANCH  56  59
HETATM   59  O   UNK N   1      37.874   8.970  14.124  0.00  0.00    -0.351 OA
BRANCH  59  60
HETATM   60  C   UNK N   1      37.334   7.706  14.216  0.00  0.00     0.171 C 
HETATM   61  C   UNK N   1      35.852   7.765  13.913  0.00  0.00     0.034 C 
ENDBRANCH  59  60
ENDBRANCH  56  59
BRANCH  57  62
HETATM   62  C   UNK N   1      37.042  11.806  14.179  0.00  0.00     0.121 A 
HETATM   63  N   UNK N   1      37.268  13.157  14.305  0.00  0.00    -0.307 N 
HETATM   64  C   UNK N   1      36.792  13.851  15.401  0.00  0.00     0.277 A 
HETATM   65  H   UNK N   1      37.774  13.634  13.608  0.00  0.00     0.170 HD
HETATM   66  O   UNK N   1      36.985  15.049  15.505  0.00  0.00    -0.265 OA
HETATM   67  C   UNK N   1      36.090  13.141  16.372  0.00  0.00     0.147 A 
HETATM   68  C   UNK N   1      35.906  11.813  16.229  0.00  0.00     0.092 A 
HETATM   69  N   UNK N   1      35.510  13.532  17.524  0.00  0.00    -0.289 N 
HETATM   70  N   UNK N   1      36.360  11.133  15.161  0.00  0.00    -0.338 N 
HETATM   71  C   UNK N   1      35.207  11.390  17.335  0.00  0.00     0.055 A 
ATOM     72  HN  UNK N   1      36.197  10.128  15.081  1.00  0.00     0.167 HD
HETATM   73  N   UNK N   1      34.969  12.470  18.119  0.00  0.00    -0.300 N 
ATOM     74  HN  UNK N   1      34.466  12.469  19.005  1.00  0.00     0.187 HD
HETATM   75  C   UNK N   1      35.456  14.877  18.069  0.00  0.00     0.178 C 
BRANCH  71  76
HETATM   76  C   UNK N   1      34.797   9.991  17.676  0.00  0.00     0.061 C 
BRANCH  76  77
HETATM   77  C   UNK N   1      35.181   9.615  19.096  0.00  0.00     0.002 C 
HETATM   78  C   UNK N   1      34.393   8.390  19.521  0.00  0.00     0.005 C 
ENDBRANCH  76  77
ENDBRANCH  71  76
ENDBRANCH  57  62
ENDBRANCH  50  53
ENDBRANCH  47  50
ENDBRANCH  43  44
ENDBRANCH  42  43
ENDBRANCH  41  42
ENDBRANCH   1  41
TORSDOF 22
ENDMDL
MODEL 7
REMARK VINA RESULT:      -8.3      3.653      7.789
REMARK  22 active torsions:
REMARK  status: ('A' for Active; 'I' for Inactive)
REMARK    1  A    between atoms: C_2  and  C_3 
REMARK    2  A    between atoms: C_3  and  C_4 
REMARK    3  A    between atoms: C_10  and  C_13 
REMARK    4  A    between atoms: C_15  and  S_22 
REMARK    5  A    between atoms: C_18  and  O_19 
REMARK    6  A    between atoms: O_19  and  C_20 
REMARK    7  A    between atoms: S_22  and  N_25 
REMARK    8  A    between atoms: N_28  and  C_31 
REMARK    9  A    between atoms: C_31  and  C_32 
REMARK   10  A    between atoms: C_32  and  O_33 
REMARK   11  A    between atoms: O_33  and  C_34 
REMARK   12  A    between atoms: C_34  and  O_36 
REMARK   13  A    between atoms: O_36  and  C_37 
REMARK   14  A    between atoms: C_37  and  C_38 
REMARK   15  A    between atoms: C_38  and  N_39 
REMARK   16  A    between atoms: N_42  and  S_45 
REMARK   17  A    between atoms: S_45  and  C_48 
REMARK   18  A    between atoms: C_51  and  O_70 
REMARK   19  A    between atoms: C_52  and  C_54 
REMARK   20  A    between atoms: C_62  and  C_67 
REMARK   21  A    between atoms: C_67  and  C_68 
REMARK   22  A    between atoms: O_70  and  C_71 
ROOT
HETATM    1  C   UNK N   1      24.138  20.571   3.068  0.00  0.00     0.406 C 
HETATM    2  O   UNK N   1      24.539  20.678   1.920  0.00  0.00    -0.230 OA
ENDROOT
BRANCH   1   3
HETATM    3  O   UNK N   1      22.801  20.504   3.282  0.00  0.00    -0.296 OA
BRANCH   3   4
HETATM    4  C   UNK N   1      22.003  19.413   3.049  0.00  0.00     0.200 C 
BRANCH   4   5
HETATM    5  C   UNK N   1      21.343  18.964   4.351  0.00  0.00     0.143 C 
BRANCH   5   6
HETATM    6  N   UNK N   1      21.569  17.557   4.721  0.00  0.00    -0.408 N 
HETATM    7  C   UNK N   1      20.494  16.959   5.520  0.00  0.00     0.132 C 
HETATM    8  C   UNK N   1      19.438  16.225   4.681  0.00  0.00     0.127 C 
HETATM    9  N   UNK N   1      20.011  15.317   3.678  0.00  0.00    -0.203 NA
HETATM   10  C   UNK N   1      21.035  15.981   2.857  0.00  0.00     0.127 C 
HETATM   11  C   UNK N   1      22.128  16.674   3.692  0.00  0.00     0.132 C 
BRANCH   9  12
HETATM   12  S   UNK N   1      20.637  13.744   4.268  0.00  0.00     0.243 S 
HETATM   13  O   UNK N   1      19.608  12.705   3.808  0.00  0.00    -0.206 OA
HETATM   14  O   UNK N   1      21.690  13.447   3.198  0.00  0.00    -0.206 OA
BRANCH  12  15
HETATM   15  C   UNK N   1      21.546  13.162   5.694  0.00  0.00     0.075 A 
HETATM   16  C   UNK N   1      22.299  12.019   5.540  0.00  0.00     0.042 A 
HETATM   17  C   UNK N   1      22.891  11.381   6.623  0.00  0.00     0.043 A 
HETATM   18  C   UNK N   1      22.691  11.885   7.927  0.00  0.00     0.082 A 
HETATM   19  C   UNK N   1      21.889  13.030   8.099  0.00  0.00     0.039 A 
HETATM   20  C   UNK N   1      21.312  13.664   6.984  0.00  0.00     0.027 A 
BRANCH  17  21
HETATM   21  C   UNK N   1      23.761  10.246   6.308  0.00  0.00     0.121 A 
HETATM   22  N   UNK N   1      23.804   9.190   7.191  0.00  0.00    -0.307 N 
HETATM   23  C   UNK N   1      24.398   8.002   6.854  0.00  0.00     0.277 A 
HETATM   24  H   UNK N   1      23.399   9.291   8.083  0.00  0.00     0.170 HD
HETATM   25  C   UNK N   1      24.931   7.893   5.584  0.00  0.00     0.147 A 
HETATM   26  O   UNK N   1      24.412   7.074   7.642  0.00  0.00    -0.265 OA
HETATM   27  C   UNK N   1      24.913   8.957   4.750  0.00  0.00     0.092 A 
HETATM   28  N   UNK N   1      25.497   6.854   4.944  0.00  0.00    -0.289 N 
HETATM   29  C   UNK N   1      25.502   8.546   3.584  0.00  0.00     0.055 A 
HETATM   30  N   UNK N   1      24.349  10.140   5.080  0.00  0.00    -0.338 N 
HETATM   31  N   UNK N   1      25.847   7.240   3.722  0.00  0.00    -0.300 N 
ATOM     32  HN  UNK N   1      26.295   6.659   3.013  1.00  0.00     0.187 HD
ATOM     33  HN  UNK N   1      24.362  10.929   4.433  1.00  0.00     0.167 HD
HETATM   34  C   UNK N   1      25.665   5.504   5.456  0.00  0.00     0.178 C 
BRANCH  29  35
HETATM   35  C   UNK N   1      25.710   9.366   2.359  0.00  0.00     0.061 C 
BRANCH  35  36
HETATM   36  C   UNK N   1      27.197   9.591   2.155  0.00  0.00     0.002 C 
HETATM   37  C   UNK N   1      27.480   9.887   0.699  0.00  0.00     0.005 C 
ENDBRANCH  35  36
ENDBRANCH  29  35
ENDBRANCH  17  21
BRANCH  18  38
HETATM   38  O   UNK N   1      23.268  11.280   8.992  0.00  0.00    -0.351 OA
BRANCH  38  39
HETATM   39  C   UNK N   1      23.262  11.860  10.241  0.00  0.00     0.171 C 
HETATM   40  C   UNK N   1      24.654  12.286  10.651  0.00  0.00     0.034 C 
ENDBRANCH  38  39
ENDBRANCH  18  38
ENDBRANCH  12  15
ENDBRANCH   9  12
ENDBRANCH   5   6
ENDBRANCH   4   5
ENDBRANCH   3   4
ENDBRANCH   1   3
BRANCH   1  41
HETATM   41  O   UNK N   1      25.044  20.556   4.081  0.00  0.00    -0.296 OA
BRANCH  41  42
HETATM   42  C   UNK N   1      25.199  19.520   4.976  0.00  0.00     0.211 C 
BRANCH  42  43
HETATM   43  C   UNK N   1      25.457  18.199   4.246  0.00  0.00     0.299 C 
BRANCH  43  44
HETATM   44  N   UNK N   1      26.737  17.556   4.605  0.00  0.00     0.092 N 
HETATM   45  C   UNK N   1      27.293  16.884   3.426  0.00  0.00     0.288 C 
HETATM   46  C   UNK N   1      26.371  15.762   2.896  0.00  0.00     0.138 C 
HETATM   47  N   UNK N   1      25.869  14.856   3.942  0.00  0.00    -0.203 NA
HETATM   48  C   UNK N   1      25.507  15.531   5.196  0.00  0.00     0.138 C 
HETATM   49  C   UNK N   1      26.582  16.526   5.629  0.00  0.00     0.288 C 
BRANCH  47  50
HETATM   50  S   UNK N   1      26.976  13.506   4.259  0.00  0.00     0.243 S 
HETATM   51  O   UNK N   1      26.177  12.194   4.338  0.00  0.00    -0.206 OA
HETATM   52  O   UNK N   1      26.963  13.360   2.724  0.00  0.00    -0.206 OA
BRANCH  50  53
HETATM   53  C   UNK N   1      28.736  13.297   3.984  0.00  0.00     0.075 A 
HETATM   54  C   UNK N   1      29.257  12.642   2.869  0.00  0.00     0.027 A 
HETATM   55  C   UNK N   1      30.648  12.521   2.731  0.00  0.00     0.039 A 
HETATM   56  C   UNK N   1      31.525  13.053   3.710  0.00  0.00     0.082 A 
HETATM   57  C   UNK N   1      30.976  13.712   4.833  0.00  0.00     0.043 A 
HETATM   58  C   UNK N   1      29.599  13.824   4.933  0.00  0.00     0.042 A 
BRANCH  56  59
HETATM   59  O   UNK N   1      32.868  12.927   3.583  0.00  0.00    -0.351 OA
BRANCH  59  60
HETATM   60  C   UNK N   1      33.511  12.951   2.365  0.00  0.00     0.171 C 
HETATM   61  C   UNK N   1      34.519  14.081   2.345  0.00  0.00     0.034 C 
ENDBRANCH  59  60
ENDBRANCH  56  59
BRANCH  57  62
HETATM   62  C   UNK N   1      31.747  14.315   5.939  0.00  0.00     0.121 A 
HETATM   63  N   UNK N   1      32.973  13.827   6.326  0.00  0.00    -0.307 N 
HETATM   64  C   UNK N   1      33.699  14.454   7.320  0.00  0.00     0.277 A 
HETATM   65  H   UNK N   1      33.337  13.022   5.890  0.00  0.00     0.170 HD
HETATM   66  O   UNK N   1      34.789  14.025   7.653  0.00  0.00    -0.265 OA
HETATM   67  C   UNK N   1      33.148  15.584   7.920  0.00  0.00     0.147 A 
HETATM   68  C   UNK N   1      31.934  16.023   7.533  0.00  0.00     0.092 A 
HETATM   69  N   UNK N   1      33.609  16.397   8.891  0.00  0.00    -0.289 N 
HETATM   70  N   UNK N   1      31.225  15.421   6.560  0.00  0.00    -0.338 N 
HETATM   71  C   UNK N   1      31.649  17.125   8.304  0.00  0.00     0.055 A 
ATOM     72  HN  UNK N   1      30.311  15.785   6.288  1.00  0.00     0.167 HD
HETATM   73  N   UNK N   1      32.700  17.341   9.132  0.00  0.00    -0.300 N 
ATOM     74  HN  UNK N   1      32.780  18.091   9.818  1.00  0.00     0.187 HD
HETATM   75  C   UNK N   1      34.880  16.303   9.588  0.00  0.00     0.178 C 
BRANCH  71  76
HETATM   76  C   UNK N   1      30.397  17.947   8.296  0.00  0.00     0.061 C 
BRANCH  76  77
HETATM   77  C   UNK N   1      29.611  17.802   9.587  0.00  0.00     0.002 C 
HETATM   78  C   UNK N   1      28.128  17.759   9.269  0.00  0.00     0.005 C 
ENDBRANCH  76  77
ENDBRANCH  71  76
ENDBRANCH  57  62
ENDBRANCH  50  53
ENDBRANCH  47  50
ENDBRANCH  43  44
ENDBRANCH  42  43
ENDBRANCH  41  42
ENDBRANCH   1  41
TORSDOF 22
ENDMDL
MODEL 8
REMARK VINA RESULT:      -8.3      2.485      5.830
REMARK  22 active torsions:
REMARK  status: ('A' for Active; 'I' for Inactive)
REMARK    1  A    between atoms: C_2  and  C_3 
REMARK    2  A    between atoms: C_3  and  C_4 
REMARK    3  A    between atoms: C_10  and  C_13 
REMARK    4  A    between atoms: C_15  and  S_22 
REMARK    5  A    between atoms: C_18  and  O_19 
REMARK    6  A    between atoms: O_19  and  C_20 
REMARK    7  A    between atoms: S_22  and  N_25 
REMARK    8  A    between atoms: N_28  and  C_31 
REMARK    9  A    between atoms: C_31  and  C_32 
REMARK   10  A    between atoms: C_32  and  O_33 
REMARK   11  A    between atoms: O_33  and  C_34 
REMARK   12  A    between atoms: C_34  and  O_36 
REMARK   13  A    between atoms: O_36  and  C_37 
REMARK   14  A    between atoms: C_37  and  C_38 
REMARK   15  A    between atoms: C_38  and  N_39 
REMARK   16  A    between atoms: N_42  and  S_45 
REMARK   17  A    between atoms: S_45  and  C_48 
REMARK   18  A    between atoms: C_51  and  O_70 
REMARK   19  A    between atoms: C_52  and  C_54 
REMARK   20  A    between atoms: C_62  and  C_67 
REMARK   21  A    between atoms: C_67  and  C_68 
REMARK   22  A    between atoms: O_70  and  C_71 
ROOT
HETATM    1  C   UNK N   1      26.935  19.208   4.599  0.00  0.00     0.406 C 
HETATM    2  O   UNK N   1      26.896  20.402   4.849  0.00  0.00    -0.230 OA
ENDROOT
BRANCH   1   3
HETATM    3  O   UNK N   1      25.783  18.497   4.662  0.00  0.00    -0.296 OA
BRANCH   3   4
HETATM    4  C   UNK N   1      24.543  18.937   4.275  0.00  0.00     0.200 C 
BRANCH   4   5
HETATM    5  C   UNK N   1      23.697  17.758   3.799  0.00  0.00     0.143 C 
BRANCH   5   6
HETATM    6  N   UNK N   1      23.089  16.946   4.867  0.00  0.00    -0.408 N 
HETATM    7  C   UNK N   1      22.466  17.727   5.942  0.00  0.00     0.132 C 
HETATM    8  C   UNK N   1      20.966  17.977   5.731  0.00  0.00     0.127 C 
HETATM    9  N   UNK N   1      20.215  16.770   5.358  0.00  0.00    -0.203 NA
HETATM   10  C   UNK N   1      20.841  16.060   4.233  0.00  0.00     0.127 C 
HETATM   11  C   UNK N   1      22.334  15.757   4.460  0.00  0.00     0.132 C 
BRANCH   9  12
HETATM   12  S   UNK N   1      19.839  15.608   6.671  0.00  0.00     0.243 S 
HETATM   13  O   UNK N   1      18.553  16.138   7.319  0.00  0.00    -0.206 OA
HETATM   14  O   UNK N   1      19.188  14.482   5.865  0.00  0.00    -0.206 OA
BRANCH  12  15
HETATM   15  C   UNK N   1      20.769  14.600   7.819  0.00  0.00     0.075 A 
HETATM   16  C   UNK N   1      21.623  13.661   7.286  0.00  0.00     0.042 A 
HETATM   17  C   UNK N   1      22.249  12.707   8.080  0.00  0.00     0.043 A 
HETATM   18  C   UNK N   1      21.980  12.663   9.464  0.00  0.00     0.082 A 
HETATM   19  C   UNK N   1      21.075  13.594  10.013  0.00  0.00     0.039 A 
HETATM   20  C   UNK N   1      20.466  14.558   9.189  0.00  0.00     0.027 A 
BRANCH  17  21
HETATM   21  C   UNK N   1      23.223  11.845   7.407  0.00  0.00     0.121 A 
HETATM   22  N   UNK N   1      23.177  10.492   7.652  0.00  0.00    -0.307 N 
HETATM   23  C   UNK N   1      23.886   9.603   6.887  0.00  0.00     0.277 A 
HETATM   24  H   UNK N   1      22.624  10.154   8.394  0.00  0.00     0.170 HD
HETATM   25  C   UNK N   1      24.630  10.114   5.840  0.00  0.00     0.147 A 
HETATM   26  O   UNK N   1      23.821   8.407   7.109  0.00  0.00    -0.265 OA
HETATM   27  C   UNK N   1      24.691  11.450   5.645  0.00  0.00     0.092 A 
HETATM   28  N   UNK N   1      25.353   9.505   4.884  0.00  0.00    -0.289 N 
HETATM   29  C   UNK N   1      25.490  11.646   4.549  0.00  0.00     0.055 A 
HETATM   30  N   UNK N   1      24.014  12.337   6.407  0.00  0.00    -0.338 N 
HETATM   31  N   UNK N   1      25.881  10.430   4.088  0.00  0.00    -0.300 N 
ATOM     32  HN  UNK N   1      26.473  10.257   3.276  1.00  0.00     0.187 HD
ATOM     33  HN  UNK N   1      24.090  13.340   6.242  1.00  0.00     0.167 HD
HETATM   34  C   UNK N   1      25.510   8.073   4.690  0.00  0.00     0.178 C 
BRANCH  29  35
HETATM   35  C   UNK N   1      25.853  12.954   3.939  0.00  0.00     0.061 C 
BRANCH  35  36
HETATM   36  C   UNK N   1      24.785  13.349   2.934  0.00  0.00     0.002 C 
HETATM   37  C   UNK N   1      25.348  14.348   1.948  0.00  0.00     0.005 C 
ENDBRANCH  35  36
ENDBRANCH  29  35
ENDBRANCH  17  21
BRANCH  18  38
HETATM   38  O   UNK N   1      22.588  11.746  10.253  0.00  0.00    -0.351 OA
BRANCH  38  39
HETATM   39  C   UNK N   1      23.515  12.112  11.203  0.00  0.00     0.171 C 
HETATM   40  C   UNK N   1      23.012  11.819  12.599  0.00  0.00     0.034 C 
ENDBRANCH  38  39
ENDBRANCH  18  38
ENDBRANCH  12  15
ENDBRANCH   9  12
ENDBRANCH   5   6
ENDBRANCH   4   5
ENDBRANCH   3   4
ENDBRANCH   1   3
BRANCH   1  41
HETATM   41  O   UNK N   1      28.133  18.639   4.301  0.00  0.00    -0.296 OA
BRANCH  41  42
HETATM   42  C   UNK N   1      28.714  17.618   5.021  0.00  0.00     0.211 C 
BRANCH  42  43
HETATM   43  C   UNK N   1      30.237  17.632   4.861  0.00  0.00     0.299 C 
BRANCH  43  44
HETATM   44  N   UNK N   1      30.857  16.293   4.912  0.00  0.00     0.092 N 
HETATM   45  C   UNK N   1      30.855  15.807   6.296  0.00  0.00     0.288 C 
HETATM   46  C   UNK N   1      31.680  16.709   7.240  0.00  0.00     0.138 C 
HETATM   47  N   UNK N   1      33.008  17.070   6.717  0.00  0.00    -0.203 NA
HETATM   48  C   UNK N   1      33.025  17.356   5.276  0.00  0.00     0.138 C 
HETATM   49  C   UNK N   1      32.254  16.303   4.483  0.00  0.00     0.288 C 
BRANCH  47  50
HETATM   50  S   UNK N   1      34.248  15.868   7.127  0.00  0.00     0.243 S 
HETATM   51  O   UNK N   1      35.352  15.884   6.056  0.00  0.00    -0.206 OA
HETATM   52  O   UNK N   1      34.948  17.071   7.791  0.00  0.00    -0.206 OA
BRANCH  50  53
HETATM   53  C   UNK N   1      34.717  15.096   8.676  0.00  0.00     0.075 A 
HETATM   54  C   UNK N   1      35.489  15.741   9.642  0.00  0.00     0.027 A 
HETATM   55  C   UNK N   1      35.812  15.063  10.828  0.00  0.00     0.039 A 
HETATM   56  C   UNK N   1      35.365  13.737  11.052  0.00  0.00     0.082 A 
HETATM   57  C   UNK N   1      34.585  13.102  10.060  0.00  0.00     0.043 A 
HETATM   58  C   UNK N   1      34.274  13.802   8.906  0.00  0.00     0.042 A 
BRANCH  56  59
HETATM   59  O   UNK N   1      35.686  13.078  12.192  0.00  0.00    -0.351 OA
BRANCH  59  60
HETATM   60  C   UNK N   1      35.051  13.307  13.393  0.00  0.00     0.171 C 
HETATM   61  C   UNK N   1      36.079  13.414  14.498  0.00  0.00     0.034 C 
ENDBRANCH  59  60
ENDBRANCH  56  59
BRANCH  57  62
HETATM   62  C   UNK N   1      34.047  11.728  10.136  0.00  0.00     0.121 A 
HETATM   63  N   UNK N   1      32.884  11.363   9.497  0.00  0.00    -0.307 N 
HETATM   64  C   UNK N   1      32.443  10.054   9.533  0.00  0.00     0.277 A 
HETATM   65  H   UNK N   1      32.362  12.040   9.011  0.00  0.00     0.170 HD
HETATM   66  O   UNK N   1      31.419   9.731   8.959  0.00  0.00    -0.265 OA
HETATM   67  C   UNK N   1      33.203   9.125  10.241  0.00  0.00     0.147 A 
HETATM   68  C   UNK N   1      34.325   9.521  10.874  0.00  0.00     0.092 A 
HETATM   69  N   UNK N   1      33.038   7.803  10.446  0.00  0.00    -0.289 N 
HETATM   70  N   UNK N   1      34.765  10.792  10.836  0.00  0.00    -0.338 N 
HETATM   71  C   UNK N   1      34.844   8.407  11.492  0.00  0.00     0.055 A 
ATOM     72  HN  UNK N   1      35.623  11.056  11.322  1.00  0.00     0.167 HD
HETATM   73  N   UNK N   1      34.035   7.357  11.210  0.00  0.00    -0.300 N 
ATOM     74  HN  UNK N   1      34.165   6.397  11.526  1.00  0.00     0.187 HD
HETATM   75  C   UNK N   1      31.969   6.961   9.940  0.00  0.00     0.178 C 
BRANCH  71  76
HETATM   76  C   UNK N   1      36.058   8.329  12.365  0.00  0.00     0.061 C 
BRANCH  76  77
HETATM   77  C   UNK N   1      35.697   8.164  13.830  0.00  0.00     0.002 C 
HETATM   78  C   UNK N   1      35.245   9.501  14.388  0.00  0.00     0.005 C 
ENDBRANCH  76  77
ENDBRANCH  71  76
ENDBRANCH  57  62
ENDBRANCH  50  53
ENDBRANCH  47  50
ENDBRANCH  43  44
ENDBRANCH  42  43
ENDBRANCH  41  42
ENDBRANCH   1  41
TORSDOF 22
ENDMDL
MODEL 9
REMARK VINA RESULT:      -8.3      2.847      6.191
REMARK  22 active torsions:
REMARK  status: ('A' for Active; 'I' for Inactive)
REMARK    1  A    between atoms: C_2  and  C_3 
REMARK    2  A    between atoms: C_3  and  C_4 
REMARK    3  A    between atoms: C_10  and  C_13 
REMARK    4  A    between atoms: C_15  and  S_22 
REMARK    5  A    between atoms: C_18  and  O_19 
REMARK    6  A    between atoms: O_19  and  C_20 
REMARK    7  A    between atoms: S_22  and  N_25 
REMARK    8  A    between atoms: N_28  and  C_31 
REMARK    9  A    between atoms: C_31  and  C_32 
REMARK   10  A    between atoms: C_32  and  O_33 
REMARK   11  A    between atoms: O_33  and  C_34 
REMARK   12  A    between atoms: C_34  and  O_36 
REMARK   13  A    between atoms: O_36  and  C_37 
REMARK   14  A    between atoms: C_37  and  C_38 
REMARK   15  A    between atoms: C_38  and  N_39 
REMARK   16  A    between atoms: N_42  and  S_45 
REMARK   17  A    between atoms: S_45  and  C_48 
REMARK   18  A    between atoms: C_51  and  O_70 
REMARK   19  A    between atoms: C_52  and  C_54 
REMARK   20  A    between atoms: C_62  and  C_67 
REMARK   21  A    between atoms: C_67  and  C_68 
REMARK   22  A    between atoms: O_70  and  C_71 
ROOT
HETATM    1  C   UNK N   1      23.795  20.406   3.041  0.00  0.00     0.406 C 
HETATM    2  O   UNK N   1      24.423  20.918   2.128  0.00  0.00    -0.230 OA
ENDROOT
BRANCH   1   3
HETATM    3  O   UNK N   1      22.462  20.637   3.117  0.00  0.00    -0.296 OA
BRANCH   3   4
HETATM    4  C   UNK N   1      21.471  19.792   2.685  0.00  0.00     0.200 C 
BRANCH   4   5
HETATM    5  C   UNK N   1      20.737  19.196   3.884  0.00  0.00     0.143 C 
BRANCH   5   6
HETATM    6  N   UNK N   1      21.397  18.043   4.519  0.00  0.00    -0.408 N 
HETATM    7  C   UNK N   1      21.885  18.296   5.879  0.00  0.00     0.132 C 
HETATM    8  C   UNK N   1      20.884  17.906   6.975  0.00  0.00     0.127 C 
HETATM    9  N   UNK N   1      20.300  16.570   6.789  0.00  0.00    -0.203 NA
HETATM   10  C   UNK N   1      19.764  16.388   5.432  0.00  0.00     0.127 C 
HETATM   11  C   UNK N   1      20.781  16.726   4.327  0.00  0.00     0.132 C 
BRANCH   9  12
HETATM   12  S   UNK N   1      21.327  15.166   7.226  0.00  0.00     0.243 S 
HETATM   13  O   UNK N   1      21.363  15.157   8.759  0.00  0.00    -0.206 OA
HETATM   14  O   UNK N   1      20.319  14.026   7.060  0.00  0.00    -0.206 OA
BRANCH  12  15
HETATM   15  C   UNK N   1      22.761  14.345   6.544  0.00  0.00     0.075 A 
HETATM   16  C   UNK N   1      22.539  13.337   5.633  0.00  0.00     0.042 A 
HETATM   17  C   UNK N   1      23.567  12.515   5.186  0.00  0.00     0.043 A 
HETATM   18  C   UNK N   1      24.871  12.683   5.699  0.00  0.00     0.082 A 
HETATM   19  C   UNK N   1      25.100  13.686   6.662  0.00  0.00     0.039 A 
HETATM   20  C   UNK N   1      24.045  14.512   7.088  0.00  0.00     0.027 A 
BRANCH  17  21
HETATM   21  C   UNK N   1      23.218  11.562   4.130  0.00  0.00     0.121 A 
HETATM   22  N   UNK N   1      23.330  10.217   4.401  0.00  0.00    -0.307 N 
HETATM   23  C   UNK N   1      22.800   9.272   3.562  0.00  0.00     0.277 A 
HETATM   24  H   UNK N   1      23.802   9.927   5.216  0.00  0.00     0.170 HD
HETATM   25  C   UNK N   1      22.124   9.721   2.443  0.00  0.00     0.147 A 
HETATM   26  O   UNK N   1      22.896   8.088   3.826  0.00  0.00    -0.265 OA
HETATM   27  C   UNK N   1      22.063  11.045   2.177  0.00  0.00     0.092 A 
HETATM   28  N   UNK N   1      21.442   9.059   1.492  0.00  0.00    -0.289 N 
HETATM   29  C   UNK N   1      21.337  11.176   1.023  0.00  0.00     0.055 A 
HETATM   30  N   UNK N   1      22.601  11.984   2.987  0.00  0.00    -0.338 N 
HETATM   31  N   UNK N   1      20.954   9.936   0.622  0.00  0.00    -0.300 N 
ATOM     32  HN  UNK N   1      20.392   9.718  -0.202  1.00  0.00     0.187 HD
ATOM     33  HN  UNK N   1      22.549  12.975   2.753  1.00  0.00     0.167 HD
HETATM   34  C   UNK N   1      21.210   7.626   1.427  0.00  0.00     0.178 C 
BRANCH  29  35
HETATM   35  C   UNK N   1      20.993  12.448   0.331  0.00  0.00     0.061 C 
BRANCH  35  36
HETATM   36  C   UNK N   1      19.756  13.048   0.976  0.00  0.00     0.002 C 
HETATM   37  C   UNK N   1      18.516  12.592   0.240  0.00  0.00     0.005 C 
ENDBRANCH  35  36
ENDBRANCH  29  35
ENDBRANCH  17  21
BRANCH  18  38
HETATM   38  O   UNK N   1      25.885  11.897   5.267  0.00  0.00    -0.351 OA
BRANCH  38  39
HETATM   39  C   UNK N   1      27.114  12.422   4.935  0.00  0.00     0.171 C 
HETATM   40  C   UNK N   1      27.174  12.783   3.467  0.00  0.00     0.034 C 
ENDBRANCH  38  39
ENDBRANCH  18  38
ENDBRANCH  12  15
ENDBRANCH   9  12
ENDBRANCH   5   6
ENDBRANCH   4   5
ENDBRANCH   3   4
ENDBRANCH   1   3
BRANCH   1  41
HETATM   41  O   UNK N   1      24.462  19.653   3.956  0.00  0.00    -0.296 OA
BRANCH  41  42
HETATM   42  C   UNK N   1      24.971  18.396   3.712  0.00  0.00     0.211 C 
BRANCH  42  43
HETATM   43  C   UNK N   1      25.710  17.856   4.939  0.00  0.00     0.299 C 
BRANCH  43  44
HETATM   44  N   UNK N   1      27.099  17.436   4.666  0.00  0.00     0.092 N 
HETATM   45  C   UNK N   1      27.451  16.316   5.545  0.00  0.00     0.288 C 
HETATM   46  C   UNK N   1      27.395  16.699   7.041  0.00  0.00     0.138 C 
HETATM   47  N   UNK N   1      28.069  17.969   7.361  0.00  0.00    -0.203 NA
HETATM   48  C   UNK N   1      27.868  19.022   6.356  0.00  0.00     0.138 C 
HETATM   49  C   UNK N   1      28.071  18.493   4.938  0.00  0.00     0.288 C 
BRANCH  47  50
HETATM   50  S   UNK N   1      29.798  17.754   7.699  0.00  0.00     0.243 S 
HETATM   51  O   UNK N   1      30.224  18.714   8.822  0.00  0.00    -0.206 OA
HETATM   52  O   UNK N   1      29.287  16.790   8.789  0.00  0.00    -0.206 OA
BRANCH  50  53
HETATM   53  C   UNK N   1      30.923  16.388   7.412  0.00  0.00     0.075 A 
HETATM   54  C   UNK N   1      30.934  15.649   6.229  0.00  0.00     0.027 A 
HETATM   55  C   UNK N   1      31.848  14.594   6.086  0.00  0.00     0.039 A 
HETATM   56  C   UNK N   1      32.754  14.271   7.128  0.00  0.00     0.082 A 
HETATM   57  C   UNK N   1      32.726  15.032   8.318  0.00  0.00     0.043 A 
HETATM   58  C   UNK N   1      31.819  16.073   8.423  0.00  0.00     0.042 A 
BRANCH  56  59
HETATM   59  O   UNK N   1      33.630  13.245   6.995  0.00  0.00    -0.351 OA
BRANCH  59  60
HETATM   60  C   UNK N   1      33.252  11.986   6.584  0.00  0.00     0.171 C 
HETATM   61  C   UNK N   1      33.791  10.954   7.551  0.00  0.00     0.034 C 
ENDBRANCH  59  60
ENDBRANCH  56  59
BRANCH  57  62
HETATM   62  C   UNK N   1      33.596  14.823   9.494  0.00  0.00     0.121 A 
HETATM   63  N   UNK N   1      34.155  15.874  10.183  0.00  0.00    -0.307 N 
HETATM   64  C   UNK N   1      34.910  15.649  11.318  0.00  0.00     0.277 A 
HETATM   65  H   UNK N   1      34.017  16.795   9.865  0.00  0.00     0.170 HD
HETATM   66  O   UNK N   1      35.396  16.582  11.932  0.00  0.00    -0.265 OA
HETATM   67  C   UNK N   1      35.093  14.331  11.733  0.00  0.00     0.147 A 
HETATM   68  C   UNK N   1      34.550  13.324  11.022  0.00  0.00     0.092 A 
HETATM   69  N   UNK N   1      35.757  13.806  12.782  0.00  0.00    -0.289 N 
HETATM   70  N   UNK N   1      33.807  13.536   9.920  0.00  0.00    -0.338 N 
HETATM   71  C   UNK N   1      34.910  12.156  11.652  0.00  0.00     0.055 A 
ATOM     72  HN  UNK N   1      33.405  12.750   9.409  1.00  0.00     0.167 HD
HETATM   73  N   UNK N   1      35.652  12.479  12.740  0.00  0.00    -0.300 N 
ATOM     74  HN  UNK N   1      36.057  11.823  13.406  1.00  0.00     0.187 HD
HETATM   75  C   UNK N   1      36.483  14.527  13.813  0.00  0.00     0.178 C 
BRANCH  71  76
HETATM   76  C   UNK N   1      34.598  10.754  11.227  0.00  0.00     0.061 C 
BRANCH  76  77
HETATM   77  C   UNK N   1      34.034   9.926  12.367  0.00  0.00     0.002 C 
HETATM   78  C   UNK N   1      35.015   8.824  12.721  0.00  0.00     0.005 C 
ENDBRANCH  76  77
ENDBRANCH  71  76
ENDBRANCH  57  62
ENDBRANCH  50  53
ENDBRANCH  47  50
ENDBRANCH  43  44
ENDBRANCH  42  43
ENDBRANCH  41  42
ENDBRANCH   1  41
TORSDOF 22
ENDMDL
