MODEL 1
REMARK VINA RESULT:      -4.8      0.000      0.000
REMARK  5 active torsions:
REMARK  status: ('A' for Active; 'I' for Inactive)
REMARK    1  A    between atoms: C_3  and  N_15 
REMARK    2  A    between atoms: C_4  and  C_8 
REMARK    3  A    between atoms: N_9  and  N_11 
REMARK    4  A    between atoms: N_11  and  C_12 
REMARK    5  A    between atoms: C_12  and  N_14 
ROOT
HETATM    1  C   UNK N   1      40.848  20.354   2.466  0.00  0.00     0.019 A 
HETATM    2  C   UNK N   1      40.679  21.663   2.012  0.00  0.00     0.033 A 
HETATM    3  C   UNK N   1      41.658  22.623   2.274  0.00  0.00     0.054 A 
HETATM    4  C   UNK N   1      42.807  22.254   2.995  0.00  0.00     0.075 A 
HETATM    5  N   UNK N   1      42.942  20.967   3.425  0.00  0.00    -0.363 N 
ATOM      6  HN  UNK N   1      43.778  20.705   3.948  1.00  0.00     0.165 HD
HETATM    7  C   UNK N   1      41.999  20.021   3.179  0.00  0.00     0.088 A 
ENDROOT
BRANCH   4   8
HETATM    8  C   UNK N   1      43.869  23.223   3.299  0.00  0.00     0.139 C 
HETATM    9  N   UNK N   1      44.919  23.239   2.565  0.00  0.00    -0.307 N 
ATOM     10  HN  UNK N   1      44.994  22.581   1.789  1.00  0.00     0.186 HD
BRANCH   9  11
HETATM   11  N   UNK N   1      45.942  24.117   2.797  0.00  0.00    -0.277 N 
HETATM   12  H   UNK N   1      46.598  23.938   3.509  0.00  0.00     0.189 HD
BRANCH  11  13
HETATM   13  C   UNK N   1      46.050  25.287   2.005  0.00  0.00     0.184 C 
HETATM   14  S   UNK N   1      46.821  25.268   0.798  0.00  0.00    -0.040 SA
BRANCH  13  15
HETATM   15  N   UNK N   1      45.398  26.477   2.404  0.00  0.00    -0.375 N 
HETATM   16  H   UNK N   1      44.417  26.504   2.465  0.00  0.00     0.158 HD
HETATM   17  H   UNK N   1      45.927  27.279   2.621  0.00  0.00     0.158 HD
ENDBRANCH  13  15
ENDBRANCH  11  13
ENDBRANCH   9  11
ENDBRANCH   4   8
BRANCH   3  18
HETATM   18  N   UNK N   1      41.482  23.946   1.812  0.00  0.00    -0.397 N 
HETATM   19  H   UNK N   1      40.579  24.278   1.602  0.00  0.00     0.156 HD
HETATM   20  H   UNK N   1      42.262  24.536   1.701  0.00  0.00     0.156 HD
ENDBRANCH   3  18
TORSDOF 5
ENDMDL
MODEL 2
REMARK VINA RESULT:      -4.8     23.202     24.924
REMARK  5 active torsions:
REMARK  status: ('A' for Active; 'I' for Inactive)
REMARK    1  A    between atoms: C_3  and  N_15 
REMARK    2  A    between atoms: C_4  and  C_8 
REMARK    3  A    between atoms: N_9  and  N_11 
REMARK    4  A    between atoms: N_11  and  C_12 
REMARK    5  A    between atoms: C_12  and  N_14 
ROOT
HETATM    1  C   UNK N   1      24.584  12.086  10.869  0.00  0.00     0.019 A 
HETATM    2  C   UNK N   1      23.384  11.757  11.501  0.00  0.00     0.033 A 
HETATM    3  C   UNK N   1      22.183  12.300  11.042  0.00  0.00     0.054 A 
HETATM    4  C   UNK N   1      22.202  13.176   9.943  0.00  0.00     0.075 A 
HETATM    5  N   UNK N   1      23.391  13.478   9.347  0.00  0.00    -0.363 N 
ATOM      6  HN  UNK N   1      23.397  14.115   8.550  1.00  0.00     0.165 HD
HETATM    7  C   UNK N   1      24.568  12.958   9.782  0.00  0.00     0.088 A 
ENDROOT
BRANCH   4   8
HETATM    8  C   UNK N   1      20.968  13.778   9.418  0.00  0.00     0.139 C 
HETATM    9  N   UNK N   1      20.850  15.054   9.427  0.00  0.00    -0.307 N 
ATOM     10  HN  UNK N   1      21.612  15.622   9.797  1.00  0.00     0.186 HD
BRANCH   9  11
HETATM   11  N   UNK N   1      19.726  15.672   8.952  0.00  0.00    -0.277 N 
HETATM   12  H   UNK N   1      18.851  15.224   9.010  0.00  0.00     0.189 HD
BRANCH  11  13
HETATM   13  C   UNK N   1      19.830  16.962   8.377  0.00  0.00     0.184 C 
HETATM   14  S   UNK N   1      20.616  17.160   7.196  0.00  0.00    -0.040 SA
BRANCH  13  15
HETATM   15  N   UNK N   1      19.158  18.059   8.966  0.00  0.00    -0.375 N 
HETATM   16  H   UNK N   1      18.570  18.628   8.418  0.00  0.00     0.158 HD
HETATM   17  H   UNK N   1      19.278  18.253   9.923  0.00  0.00     0.158 HD
ENDBRANCH  13  15
ENDBRANCH  11  13
ENDBRANCH   9  11
ENDBRANCH   4   8
BRANCH   3  18
HETATM   18  N   UNK N   1      20.972  11.964  11.685  0.00  0.00    -0.397 N 
HETATM   19  H   UNK N   1      20.299  12.660  11.861  0.00  0.00     0.156 HD
HETATM   20  H   UNK N   1      20.801  11.033  11.957  0.00  0.00     0.156 HD
ENDBRANCH   3  18
TORSDOF 5
ENDMDL
MODEL 3
REMARK VINA RESULT:      -4.7     12.786     14.325
REMARK  5 active torsions:
REMARK  status: ('A' for Active; 'I' for Inactive)
REMARK    1  A    between atoms: C_3  and  N_15 
REMARK    2  A    between atoms: C_4  and  C_8 
REMARK    3  A    between atoms: N_9  and  N_11 
REMARK    4  A    between atoms: N_11  and  C_12 
REMARK    5  A    between atoms: C_12  and  N_14 
ROOT
HETATM    1  C   UNK N   1      31.830  16.941   7.831  0.00  0.00     0.019 A 
HETATM    2  C   UNK N   1      32.839  17.905   7.785  0.00  0.00     0.033 A 
HETATM    3  C   UNK N   1      33.969  17.770   8.593  0.00  0.00     0.054 A 
HETATM    4  C   UNK N   1      34.074  16.658   9.446  0.00  0.00     0.075 A 
HETATM    5  N   UNK N   1      33.071  15.733   9.468  0.00  0.00    -0.363 N 
ATOM      6  HN  UNK N   1      33.153  14.928  10.089  1.00  0.00     0.165 HD
HETATM    7  C   UNK N   1      31.965  15.851   8.687  0.00  0.00     0.088 A 
ENDROOT
BRANCH   4   8
HETATM    8  C   UNK N   1      35.241  16.465  10.319  0.00  0.00     0.139 C 
HETATM    9  N   UNK N   1      35.124  15.710  11.348  0.00  0.00    -0.307 N 
ATOM     10  HN  UNK N   1      34.228  15.262  11.539  1.00  0.00     0.186 HD
BRANCH   9  11
HETATM   11  N   UNK N   1      36.174  15.492  12.198  0.00  0.00    -0.277 N 
HETATM   12  H   UNK N   1      36.741  16.242  12.490  0.00  0.00     0.189 HD
BRANCH  11  13
HETATM   13  C   UNK N   1      36.439  14.178  12.656  0.00  0.00     0.184 C 
HETATM   14  S   UNK N   1      35.743  13.661  13.796  0.00  0.00    -0.040 SA
BRANCH  13  15
HETATM   15  N   UNK N   1      37.391  13.371  11.989  0.00  0.00    -0.375 N 
HETATM   16  H   UNK N   1      38.204  13.078  12.460  0.00  0.00     0.158 HD
HETATM   17  H   UNK N   1      37.240  13.104  11.053  0.00  0.00     0.158 HD
ENDBRANCH  13  15
ENDBRANCH  11  13
ENDBRANCH   9  11
ENDBRANCH   4   8
BRANCH   3  18
HETATM   18  N   UNK N   1      34.986  18.748   8.543  0.00  0.00    -0.397 N 
HETATM   19  H   UNK N   1      35.425  19.045   9.373  0.00  0.00     0.156 HD
HETATM   20  H   UNK N   1      35.258  19.132   7.678  0.00  0.00     0.156 HD
ENDBRANCH   3  18
TORSDOF 5
ENDMDL
MODEL 4
REMARK VINA RESULT:      -4.7     12.734     13.799
REMARK  5 active torsions:
REMARK  status: ('A' for Active; 'I' for Inactive)
REMARK    1  A    between atoms: C_3  and  N_15 
REMARK    2  A    between atoms: C_4  and  C_8 
REMARK    3  A    between atoms: N_9  and  N_11 
REMARK    4  A    between atoms: N_11  and  C_12 
REMARK    5  A    between atoms: C_12  and  N_14 
ROOT
HETATM    1  C   UNK N   1      30.413  17.208   6.700  0.00  0.00     0.019 A 
HETATM    2  C   UNK N   1      31.626  17.018   6.035  0.00  0.00     0.033 A 
HETATM    3  C   UNK N   1      32.828  17.117   6.737  0.00  0.00     0.054 A 
HETATM    4  C   UNK N   1      32.799  17.408   8.112  0.00  0.00     0.075 A 
HETATM    5  N   UNK N   1      31.598  17.588   8.733  0.00  0.00    -0.363 N 
ATOM      6  HN  UNK N   1      31.584  17.799   9.731  1.00  0.00     0.165 HD
HETATM    7  C   UNK N   1      30.419  17.495   8.064  0.00  0.00     0.088 A 
ENDROOT
BRANCH   4   8
HETATM    8  C   UNK N   1      34.034  17.524   8.900  0.00  0.00     0.139 C 
HETATM    9  N   UNK N   1      34.124  16.881  10.005  0.00  0.00    -0.307 N 
ATOM     10  HN  UNK N   1      33.340  16.306  10.312  1.00  0.00     0.186 HD
BRANCH   9  11
HETATM   11  N   UNK N   1      35.248  16.949  10.783  0.00  0.00    -0.277 N 
HETATM   12  H   UNK N   1      35.561  17.816  11.128  0.00  0.00     0.189 HD
BRANCH  11  13
HETATM   13  C   UNK N   1      35.956  15.761  11.089  0.00  0.00     0.184 C 
HETATM   14  S   UNK N   1      36.418  14.909  10.034  0.00  0.00    -0.040 SA
BRANCH  13  15
HETATM   15  N   UNK N   1      36.211  15.413  12.436  0.00  0.00    -0.375 N 
HETATM   16  H   UNK N   1      35.543  15.612  13.130  0.00  0.00     0.158 HD
HETATM   17  H   UNK N   1      37.058  14.972  12.679  0.00  0.00     0.158 HD
ENDBRANCH  13  15
ENDBRANCH  11  13
ENDBRANCH   9  11
ENDBRANCH   4   8
BRANCH   3  18
HETATM   18  N   UNK N   1      34.052  16.925   6.059  0.00  0.00    -0.397 N 
HETATM   19  H   UNK N   1      34.054  16.730   5.094  0.00  0.00     0.156 HD
HETATM   20  H   UNK N   1      34.902  16.985   6.552  0.00  0.00     0.156 HD
ENDBRANCH   3  18
TORSDOF 5
ENDMDL
MODEL 5
REMARK VINA RESULT:      -4.7     14.310     16.259
REMARK  5 active torsions:
REMARK  status: ('A' for Active; 'I' for Inactive)
REMARK    1  A    between atoms: C_3  and  N_15 
REMARK    2  A    between atoms: C_4  and  C_8 
REMARK    3  A    between atoms: N_9  and  N_11 
REMARK    4  A    between atoms: N_11  and  C_12 
REMARK    5  A    between atoms: C_12  and  N_14 
ROOT
HETATM    1  C   UNK N   1      35.471  13.127  16.779  0.00  0.00     0.019 A 
HETATM    2  C   UNK N   1      34.777  12.449  15.775  0.00  0.00     0.033 A 
HETATM    3  C   UNK N   1      35.054  12.717  14.434  0.00  0.00     0.054 A 
HETATM    4  C   UNK N   1      36.034  13.672  14.112  0.00  0.00     0.075 A 
HETATM    5  N   UNK N   1      36.695  14.317  15.116  0.00  0.00    -0.363 N 
ATOM      6  HN  UNK N   1      37.404  15.009  14.875  1.00  0.00     0.165 HD
HETATM    7  C   UNK N   1      36.436  14.068  16.426  0.00  0.00     0.088 A 
ENDROOT
BRANCH   4   8
HETATM    8  C   UNK N   1      36.366  13.993  12.717  0.00  0.00     0.139 C 
HETATM    9  N   UNK N   1      36.371  15.221  12.350  0.00  0.00    -0.307 N 
ATOM     10  HN  UNK N   1      36.145  15.945  13.032  1.00  0.00     0.186 HD
BRANCH   9  11
HETATM   11  N   UNK N   1      36.672  15.584  11.066  0.00  0.00    -0.277 N 
HETATM   12  H   UNK N   1      37.608  15.600  10.762  0.00  0.00     0.189 HD
BRANCH  11  13
HETATM   13  C   UNK N   1      35.626  15.935  10.177  0.00  0.00     0.184 C 
HETATM   14  S   UNK N   1      35.340  15.110   9.043  0.00  0.00    -0.040 SA
BRANCH  13  15
HETATM   15  N   UNK N   1      34.861  17.103  10.407  0.00  0.00    -0.375 N 
HETATM   16  H   UNK N   1      34.877  17.536  11.291  0.00  0.00     0.158 HD
HETATM   17  H   UNK N   1      34.312  17.482   9.683  0.00  0.00     0.158 HD
ENDBRANCH  13  15
ENDBRANCH  11  13
ENDBRANCH   9  11
ENDBRANCH   4   8
BRANCH   3  18
HETATM   18  N   UNK N   1      34.349  12.028  13.423  0.00  0.00    -0.397 N 
HETATM   19  H   UNK N   1      34.644  12.092  12.486  0.00  0.00     0.156 HD
HETATM   20  H   UNK N   1      33.562  11.483  13.656  0.00  0.00     0.156 HD
ENDBRANCH   3  18
TORSDOF 5
ENDMDL
MODEL 6
REMARK VINA RESULT:      -4.7     13.880     15.930
REMARK  5 active torsions:
REMARK  status: ('A' for Active; 'I' for Inactive)
REMARK    1  A    between atoms: C_3  and  N_15 
REMARK    2  A    between atoms: C_4  and  C_8 
REMARK    3  A    between atoms: N_9  and  N_11 
REMARK    4  A    between atoms: N_11  and  C_12 
REMARK    5  A    between atoms: C_12  and  N_14 
ROOT
HETATM    1  C   UNK N   1      35.507  12.061  15.141  0.00  0.00     0.019 A 
HETATM    2  C   UNK N   1      36.192  13.234  14.818  0.00  0.00     0.033 A 
HETATM    3  C   UNK N   1      35.985  13.844  13.580  0.00  0.00     0.054 A 
HETATM    4  C   UNK N   1      35.083  13.263  12.672  0.00  0.00     0.075 A 
HETATM    5  N   UNK N   1      34.428  12.118  13.017  0.00  0.00    -0.363 N 
ATOM      6  HN  UNK N   1      33.775  11.702  12.353  1.00  0.00     0.165 HD
HETATM    7  C   UNK N   1      34.620  11.512  14.218  0.00  0.00     0.088 A 
ENDROOT
BRANCH   4   8
HETATM    8  C   UNK N   1      34.826  13.863  11.354  0.00  0.00     0.139 C 
HETATM    9  N   UNK N   1      33.952  14.796  11.260  0.00  0.00    -0.307 N 
ATOM     10  HN  UNK N   1      33.457  15.101  12.099  1.00  0.00     0.186 HD
BRANCH   9  11
HETATM   11  N   UNK N   1      33.669  15.393  10.063  0.00  0.00    -0.277 N 
HETATM   12  H   UNK N   1      32.966  15.026   9.479  0.00  0.00     0.189 HD
BRANCH  11  13
HETATM   13  C   UNK N   1      34.393  16.544   9.668  0.00  0.00     0.184 C 
HETATM   14  S   UNK N   1      34.382  16.965   8.299  0.00  0.00    -0.040 SA
BRANCH  13  15
HETATM   15  N   UNK N   1      35.131  17.282  10.624  0.00  0.00    -0.375 N 
HETATM   16  H   UNK N   1      35.820  16.835  11.165  0.00  0.00     0.158 HD
HETATM   17  H   UNK N   1      34.954  18.243  10.747  0.00  0.00     0.158 HD
ENDBRANCH  13  15
ENDBRANCH  11  13
ENDBRANCH   9  11
ENDBRANCH   4   8
BRANCH   3  18
HETATM   18  N   UNK N   1      36.681  15.029  13.259  0.00  0.00    -0.397 N 
HETATM   19  H   UNK N   1      37.592  15.174  13.603  0.00  0.00     0.156 HD
HETATM   20  H   UNK N   1      36.255  15.712  12.691  0.00  0.00     0.156 HD
ENDBRANCH   3  18
TORSDOF 5
ENDMDL
MODEL 7
REMARK VINA RESULT:      -4.6     14.396     16.327
REMARK  5 active torsions:
REMARK  status: ('A' for Active; 'I' for Inactive)
REMARK    1  A    between atoms: C_3  and  N_15 
REMARK    2  A    between atoms: C_4  and  C_8 
REMARK    3  A    between atoms: N_9  and  N_11 
REMARK    4  A    between atoms: N_11  and  C_12 
REMARK    5  A    between atoms: C_12  and  N_14 
ROOT
HETATM    1  C   UNK N   1      34.832  12.301  16.412  0.00  0.00     0.019 A 
HETATM    2  C   UNK N   1      35.833  13.265  16.537  0.00  0.00     0.033 A 
HETATM    3  C   UNK N   1      36.399  13.834  15.395  0.00  0.00     0.054 A 
HETATM    4  C   UNK N   1      35.949  13.423  14.128  0.00  0.00     0.075 A 
HETATM    5  N   UNK N   1      34.969  12.479  14.040  0.00  0.00    -0.363 N 
ATOM      6  HN  UNK N   1      34.647  12.185  13.117  1.00  0.00     0.165 HD
HETATM    7  C   UNK N   1      34.408  11.916  15.142  0.00  0.00     0.088 A 
ENDROOT
BRANCH   4   8
HETATM    8  C   UNK N   1      36.509  13.988  12.892  0.00  0.00     0.139 C 
HETATM    9  N   UNK N   1      36.032  15.091  12.446  0.00  0.00    -0.307 N 
ATOM     10  HN  UNK N   1      35.277  15.550  12.956  1.00  0.00     0.186 HD
BRANCH   9  11
HETATM   11  N   UNK N   1      36.511  15.666  11.301  0.00  0.00    -0.277 N 
HETATM   12  H   UNK N   1      37.464  15.904  11.226  0.00  0.00     0.189 HD
BRANCH  11  13
HETATM   13  C   UNK N   1      35.627  15.919  10.224  0.00  0.00     0.184 C 
HETATM   14  S   UNK N   1      35.233  14.852   9.353  0.00  0.00    -0.040 SA
BRANCH  13  15
HETATM   15  N   UNK N   1      35.130  17.225  10.004  0.00  0.00    -0.375 N 
HETATM   16  H   UNK N   1      35.103  17.595   9.093  0.00  0.00     0.158 HD
HETATM   17  H   UNK N   1      34.810  17.764  10.764  0.00  0.00     0.158 HD
ENDBRANCH  13  15
ENDBRANCH  11  13
ENDBRANCH   9  11
ENDBRANCH   4   8
BRANCH   3  18
HETATM   18  N   UNK N   1      37.411  14.809  15.527  0.00  0.00    -0.397 N 
HETATM   19  H   UNK N   1      37.170  15.756  15.652  0.00  0.00     0.156 HD
HETATM   20  H   UNK N   1      38.359  14.543  15.494  0.00  0.00     0.156 HD
ENDBRANCH   3  18
TORSDOF 5
ENDMDL
MODEL 8
REMARK VINA RESULT:      -4.6     13.392     14.800
REMARK  5 active torsions:
REMARK  status: ('A' for Active; 'I' for Inactive)
REMARK    1  A    between atoms: C_3  and  N_15 
REMARK    2  A    between atoms: C_4  and  C_8 
REMARK    3  A    between atoms: N_9  and  N_11 
REMARK    4  A    between atoms: N_11  and  C_12 
REMARK    5  A    between atoms: C_12  and  N_14 
ROOT
HETATM    1  C   UNK N   1      28.318  18.374   8.768  0.00  0.00     0.019 A 
HETATM    2  C   UNK N   1      28.625  17.873   7.502  0.00  0.00     0.033 A 
HETATM    3  C   UNK N   1      29.930  17.475   7.207  0.00  0.00     0.054 A 
HETATM    4  C   UNK N   1      30.921  17.585   8.198  0.00  0.00     0.075 A 
HETATM    5  N   UNK N   1      30.590  18.078   9.425  0.00  0.00    -0.363 N 
ATOM      6  HN  UNK N   1      31.315  18.155  10.139  1.00  0.00     0.165 HD
HETATM    7  C   UNK N   1      29.325  18.470   9.727  0.00  0.00     0.088 A 
ENDROOT
BRANCH   4   8
HETATM    8  C   UNK N   1      32.311  17.180   7.943  0.00  0.00     0.139 C 
HETATM    9  N   UNK N   1      32.996  16.683   8.905  0.00  0.00    -0.307 N 
ATOM     10  HN  UNK N   1      32.564  16.580   9.823  1.00  0.00     0.186 HD
BRANCH   9  11
HETATM   11  N   UNK N   1      34.294  16.288   8.730  0.00  0.00    -0.277 N 
HETATM   12  H   UNK N   1      34.637  16.095   7.827  0.00  0.00     0.189 HD
BRANCH  11  13
HETATM   13  C   UNK N   1      35.142  16.159   9.857  0.00  0.00     0.184 C 
HETATM   14  S   UNK N   1      35.936  14.979  10.027  0.00  0.00    -0.040 SA
BRANCH  13  15
HETATM   15  N   UNK N   1      35.207  17.194  10.820  0.00  0.00    -0.375 N 
HETATM   16  H   UNK N   1      36.010  17.760  10.880  0.00  0.00     0.158 HD
HETATM   17  H   UNK N   1      34.448  17.349  11.428  0.00  0.00     0.158 HD
ENDBRANCH  13  15
ENDBRANCH  11  13
ENDBRANCH   9  11
ENDBRANCH   4   8
BRANCH   3  18
HETATM   18  N   UNK N   1      30.234  16.969   5.925  0.00  0.00    -0.397 N 
HETATM   19  H   UNK N   1      29.542  16.954   5.225  0.00  0.00     0.156 HD
HETATM   20  H   UNK N   1      31.138  16.631   5.731  0.00  0.00     0.156 HD
ENDBRANCH   3  18
TORSDOF 5
ENDMDL
MODEL 9
REMARK VINA RESULT:      -4.5     13.116     14.782
REMARK  5 active torsions:
REMARK  status: ('A' for Active; 'I' for Inactive)
REMARK    1  A    between atoms: C_3  and  N_15 
REMARK    2  A    between atoms: C_4  and  C_8 
REMARK    3  A    between atoms: N_9  and  N_11 
REMARK    4  A    between atoms: N_11  and  C_12 
REMARK    5  A    between atoms: C_12  and  N_14 
ROOT
HETATM    1  C   UNK N   1      36.757  12.750  14.030  0.00  0.00     0.019 A 
HETATM    2  C   UNK N   1      36.797  12.326  12.701  0.00  0.00     0.033 A 
HETATM    3  C   UNK N   1      36.590  13.244  11.670  0.00  0.00     0.054 A 
HETATM    4  C   UNK N   1      36.342  14.590  11.990  0.00  0.00     0.075 A 
HETATM    5  N   UNK N   1      36.309  14.973  13.298  0.00  0.00    -0.363 N 
ATOM      6  HN  UNK N   1      36.128  15.952  13.523  1.00  0.00     0.165 HD
HETATM    7  C   UNK N   1      36.508  14.092  14.312  0.00  0.00     0.088 A 
ENDROOT
BRANCH   4   8
HETATM    8  C   UNK N   1      36.117  15.600  10.945  0.00  0.00     0.139 C 
HETATM    9  N   UNK N   1      35.169  16.448  11.100  0.00  0.00    -0.307 N 
ATOM     10  HN  UNK N   1      34.594  16.404  11.942  1.00  0.00     0.186 HD
BRANCH   9  11
HETATM   11  N   UNK N   1      34.910  17.411  10.164  0.00  0.00    -0.277 N 
HETATM   12  H   UNK N   1      35.338  18.296  10.230  0.00  0.00     0.189 HD
BRANCH  11  13
HETATM   13  C   UNK N   1      34.021  17.127   9.098  0.00  0.00     0.184 C 
HETATM   14  S   UNK N   1      34.220  17.735   7.816  0.00  0.00    -0.040 SA
BRANCH  13  15
HETATM   15  N   UNK N   1      32.935  16.243   9.296  0.00  0.00    -0.375 N 
HETATM   16  H   UNK N   1      32.099  16.370   8.793  0.00  0.00     0.158 HD
HETATM   17  H   UNK N   1      33.016  15.499   9.937  0.00  0.00     0.158 HD
ENDBRANCH  13  15
ENDBRANCH  11  13
ENDBRANCH   9  11
ENDBRANCH   4   8
BRANCH   3  18
HETATM   18  N   UNK N   1      36.632  12.810  10.327  0.00  0.00    -0.397 N 
HETATM   19  H   UNK N   1      37.324  12.172  10.038  0.00  0.00     0.156 HD
HETATM   20  H   UNK N   1      35.970  13.145   9.681  0.00  0.00     0.156 HD
ENDBRANCH   3  18
TORSDOF 5
ENDMDL
