MODEL 1
REMARK VINA RESULT:      -7.0      0.000      0.000
REMARK  4 active torsions:
REMARK  status: ('A' for Active; 'I' for Inactive)
REMARK       I    between atoms: C_2  and  N_4 
REMARK    1  A    between atoms: N_4  and  C_5 
REMARK    2  A    between atoms: C_6  and  C_5 
REMARK    3  A    between atoms: N_8  and  C_12 
REMARK    4  A    between atoms: C_15  and  N_19 
ROOT
HETATM    1  C   UNK N   1      32.195  17.364   8.090  0.00  0.00     0.042 A 
HETATM    2  C   UNK N   1      31.972  16.940   6.776  0.00  0.00     0.032 A 
HETATM    3  C   UNK N   1      30.715  17.065   6.192  0.00  0.00     0.035 A 
HETATM    4  C   UNK N   1      29.643  17.636   6.894  0.00  0.00     0.069 A 
HETATM    5  C   UNK N   1      29.876  18.103   8.215  0.00  0.00     0.145 A 
HETATM    6  C   UNK N   1      31.140  17.952   8.800  0.00  0.00     0.074 A 
HETATM    7  F   UNK N   1      28.892  18.674   8.952  0.00  0.00    -0.204 F 
ENDROOT
BRANCH   1   8
HETATM    8  N   UNK N   1      33.484  17.165   8.677  0.00  0.00    -0.291 N 
HETATM    9  C   UNK N   1      33.842  15.972   9.386  0.00  0.00     0.168 A 
HETATM   10  C   UNK N   1      35.285  16.275   9.856  0.00  0.00     0.170 A 
HETATM   11  O   UNK N   1      35.559  17.549   9.379  0.00  0.00    -0.295 OA
HETATM   12  C   UNK N   1      34.508  18.023   8.704  0.00  0.00     0.368 A 
HETATM   13  O   UNK N   1      34.486  19.135   8.203  0.00  0.00    -0.238 OA
BRANCH  10  14
HETATM   14  C   UNK N   1      35.294  16.258  11.371  0.00  0.00     0.156 C 
BRANCH  14  15
HETATM   15  N   UNK N   1      36.222  15.268  11.851  0.00  0.00    -0.359 N 
HETATM   16  C   UNK N   1      35.787  14.124  12.431  0.00  0.00     0.213 C 
HETATM   17  C   UNK N   1      36.773  13.136  12.944  0.00  0.00     0.117 C 
HETATM   18  O   UNK N   1      34.590  13.890  12.530  0.00  0.00    -0.274 OA
HETATM   19  H   UNK N   1      37.189  15.424  11.756  0.00  0.00     0.162 HD
ENDBRANCH  14  15
ENDBRANCH  10  14
ENDBRANCH   1   8
BRANCH   4  20
HETATM   20  N   UNK N   1      28.348  17.682   6.274  0.00  0.00    -0.377 N 
HETATM   21  C   UNK N   1      27.410  16.592   6.488  0.00  0.00     0.133 C 
HETATM   22  C   UNK N   1      26.820  16.121   5.167  0.00  0.00     0.093 C 
HETATM   23  S   UNK N   1      25.818  17.472   4.475  0.00  0.00    -0.166 SA
HETATM   24  C   UNK N   1      27.306  18.486   4.216  0.00  0.00     0.093 C 
HETATM   25  C   UNK N   1      27.879  18.865   5.575  0.00  0.00     0.133 C 
ENDBRANCH   4  20
TORSDOF 4
ENDMDL
MODEL 2
REMARK VINA RESULT:      -7.0      2.123      2.796
REMARK  4 active torsions:
REMARK  status: ('A' for Active; 'I' for Inactive)
REMARK       I    between atoms: C_2  and  N_4 
REMARK    1  A    between atoms: N_4  and  C_5 
REMARK    2  A    between atoms: C_6  and  C_5 
REMARK    3  A    between atoms: N_8  and  C_12 
REMARK    4  A    between atoms: C_15  and  N_19 
ROOT
HETATM    1  C   UNK N   1      34.026  16.005   8.258  0.00  0.00     0.042 A 
HETATM    2  C   UNK N   1      32.734  15.520   8.492  0.00  0.00     0.032 A 
HETATM    3  C   UNK N   1      31.680  15.872   7.654  0.00  0.00     0.035 A 
HETATM    4  C   UNK N   1      31.883  16.706   6.544  0.00  0.00     0.069 A 
HETATM    5  C   UNK N   1      33.200  17.168   6.282  0.00  0.00     0.145 A 
HETATM    6  C   UNK N   1      34.250  16.825   7.144  0.00  0.00     0.074 A 
HETATM    7  F   UNK N   1      33.476  17.969   5.223  0.00  0.00    -0.204 F 
ENDROOT
BRANCH   1   8
HETATM    8  N   UNK N   1      35.071  15.671   9.175  0.00  0.00    -0.291 N 
HETATM    9  C   UNK N   1      35.639  14.358   9.266  0.00  0.00     0.168 A 
HETATM   10  C   UNK N   1      36.663  14.509  10.416  0.00  0.00     0.170 A 
HETATM   11  O   UNK N   1      36.555  15.831  10.823  0.00  0.00    -0.295 OA
HETATM   12  C   UNK N   1      35.640  16.467  10.085  0.00  0.00     0.368 A 
HETATM   13  O   UNK N   1      35.341  17.636  10.259  0.00  0.00    -0.238 OA
BRANCH  10  14
HETATM   14  C   UNK N   1      36.249  13.571  11.533  0.00  0.00     0.156 C 
BRANCH  14  15
HETATM   15  N   UNK N   1      36.888  13.954  12.764  0.00  0.00    -0.359 N 
HETATM   16  C   UNK N   1      36.212  13.935  13.938  0.00  0.00     0.213 C 
HETATM   17  C   UNK N   1      36.894  14.365  15.188  0.00  0.00     0.117 C 
HETATM   18  O   UNK N   1      35.049  13.558  13.983  0.00  0.00    -0.274 OA
HETATM   19  H   UNK N   1      37.832  14.234  12.755  0.00  0.00     0.162 HD
ENDBRANCH  14  15
ENDBRANCH  10  14
ENDBRANCH   1   8
BRANCH   4  20
HETATM   20  N   UNK N   1      30.753  17.096   5.748  0.00  0.00    -0.377 N 
HETATM   21  C   UNK N   1      29.560  17.612   6.399  0.00  0.00     0.133 C 
HETATM   22  C   UNK N   1      28.313  16.920   5.868  0.00  0.00     0.093 C 
HETATM   23  S   UNK N   1      28.118  17.360   4.115  0.00  0.00    -0.166 SA
HETATM   24  C   UNK N   1      29.626  16.440   3.681  0.00  0.00     0.093 C 
HETATM   25  C   UNK N   1      30.823  17.151   4.299  0.00  0.00     0.133 C 
ENDBRANCH   4  20
TORSDOF 4
ENDMDL
MODEL 3
REMARK VINA RESULT:      -6.8      1.070      1.454
REMARK  4 active torsions:
REMARK  status: ('A' for Active; 'I' for Inactive)
REMARK       I    between atoms: C_2  and  N_4 
REMARK    1  A    between atoms: N_4  and  C_5 
REMARK    2  A    between atoms: C_6  and  C_5 
REMARK    3  A    between atoms: N_8  and  C_12 
REMARK    4  A    between atoms: C_15  and  N_19 
ROOT
HETATM    1  C   UNK N   1      32.108  17.084   7.964  0.00  0.00     0.042 A 
HETATM    2  C   UNK N   1      31.056  17.573   8.747  0.00  0.00     0.032 A 
HETATM    3  C   UNK N   1      29.798  17.789   8.194  0.00  0.00     0.035 A 
HETATM    4  C   UNK N   1      29.541  17.506   6.843  0.00  0.00     0.069 A 
HETATM    5  C   UNK N   1      30.595  16.973   6.056  0.00  0.00     0.145 A 
HETATM    6  C   UNK N   1      31.864  16.780   6.618  0.00  0.00     0.074 A 
HETATM    7  F   UNK N   1      30.420  16.666   4.746  0.00  0.00    -0.204 F 
ENDROOT
BRANCH   1   8
HETATM    8  N   UNK N   1      33.402  16.932   8.552  0.00  0.00    -0.291 N 
HETATM    9  C   UNK N   1      33.776  15.787   9.329  0.00  0.00     0.168 A 
HETATM   10  C   UNK N   1      35.219  16.131   9.769  0.00  0.00     0.170 A 
HETATM   11  O   UNK N   1      35.477  17.377   9.215  0.00  0.00    -0.295 OA
HETATM   12  C   UNK N   1      34.417  17.801   8.520  0.00  0.00     0.368 A 
HETATM   13  O   UNK N   1      34.380  18.880   7.954  0.00  0.00    -0.238 OA
BRANCH  10  14
HETATM   14  C   UNK N   1      35.238  16.205  11.283  0.00  0.00     0.156 C 
BRANCH  14  15
HETATM   15  N   UNK N   1      36.188  15.263  11.814  0.00  0.00    -0.359 N 
HETATM   16  C   UNK N   1      35.779  14.141  12.452  0.00  0.00     0.213 C 
HETATM   17  C   UNK N   1      36.787  13.204  13.015  0.00  0.00     0.117 C 
HETATM   18  O   UNK N   1      34.588  13.884  12.562  0.00  0.00    -0.274 OA
HETATM   19  H   UNK N   1      37.152  15.436  11.711  0.00  0.00     0.162 HD
ENDBRANCH  14  15
ENDBRANCH  10  14
ENDBRANCH   1   8
BRANCH   4  20
HETATM   20  N   UNK N   1      28.246  17.809   6.301  0.00  0.00    -0.377 N 
HETATM   21  C   UNK N   1      27.248  16.756   6.194  0.00  0.00     0.133 C 
HETATM   22  C   UNK N   1      26.621  16.746   4.808  0.00  0.00     0.093 C 
HETATM   23  S   UNK N   1      25.695  18.294   4.588  0.00  0.00    -0.166 SA
HETATM   24  C   UNK N   1      27.236  19.260   4.614  0.00  0.00     0.093 C 
HETATM   25  C   UNK N   1      27.841  19.172   6.009  0.00  0.00     0.133 C 
ENDBRANCH   4  20
TORSDOF 4
ENDMDL
MODEL 4
REMARK VINA RESULT:      -6.6      7.550     10.867
REMARK  4 active torsions:
REMARK  status: ('A' for Active; 'I' for Inactive)
REMARK       I    between atoms: C_2  and  N_4 
REMARK    1  A    between atoms: N_4  and  C_5 
REMARK    2  A    between atoms: C_6  and  C_5 
REMARK    3  A    between atoms: N_8  and  C_12 
REMARK    4  A    between atoms: C_15  and  N_19 
ROOT
HETATM    1  C   UNK N   1      35.483  12.646  16.429  0.00  0.00     0.042 A 
HETATM    2  C   UNK N   1      36.315  13.652  15.927  0.00  0.00     0.032 A 
HETATM    3  C   UNK N   1      36.384  13.902  14.559  0.00  0.00     0.035 A 
HETATM    4  C   UNK N   1      35.610  13.167  13.648  0.00  0.00     0.069 A 
HETATM    5  C   UNK N   1      34.736  12.171  14.158  0.00  0.00     0.145 A 
HETATM    6  C   UNK N   1      34.690  11.914  15.535  0.00  0.00     0.074 A 
HETATM    7  F   UNK N   1      33.950  11.427  13.341  0.00  0.00    -0.204 F 
ENDROOT
BRANCH   1   8
HETATM    8  N   UNK N   1      35.484  12.378  17.833  0.00  0.00    -0.291 N 
HETATM    9  C   UNK N   1      35.671  11.065  18.377  0.00  0.00     0.168 A 
HETATM   10  C   UNK N   1      35.534  11.305  19.900  0.00  0.00     0.170 A 
HETATM   11  O   UNK N   1      35.293  12.665  20.030  0.00  0.00    -0.295 OA
HETATM   12  C   UNK N   1      35.279  13.247  18.828  0.00  0.00     0.368 A 
HETATM   13  O   UNK N   1      35.064  14.436  18.667  0.00  0.00    -0.238 OA
BRANCH  10  14
HETATM   14  C   UNK N   1      34.346  10.502  20.392  0.00  0.00     0.156 C 
BRANCH  14  15
HETATM   15  N   UNK N   1      34.190  10.666  21.813  0.00  0.00    -0.359 N 
HETATM   16  C   UNK N   1      33.007  10.413  22.421  0.00  0.00     0.213 C 
HETATM   17  C   UNK N   1      32.873  10.620  23.888  0.00  0.00     0.117 C 
HETATM   18  O   UNK N   1      32.049  10.005  21.778  0.00  0.00    -0.274 OA
HETATM   19  H   UNK N   1      34.957  10.966  22.354  0.00  0.00     0.162 HD
ENDBRANCH  14  15
ENDBRANCH  10  14
ENDBRANCH   1   8
BRANCH   4  20
HETATM   20  N   UNK N   1      35.765  13.415  12.242  0.00  0.00    -0.377 N 
HETATM   21  C   UNK N   1      36.566  12.506  11.437  0.00  0.00     0.133 C 
HETATM   22  C   UNK N   1      37.550  13.279  10.571  0.00  0.00     0.093 C 
HETATM   23  S   UNK N   1      36.605  14.261   9.369  0.00  0.00    -0.166 SA
HETATM   24  C   UNK N   1      35.930  15.302  10.699  0.00  0.00     0.093 C 
HETATM   25  C   UNK N   1      35.009  14.450  11.562  0.00  0.00     0.133 C 
ENDBRANCH   4  20
TORSDOF 4
ENDMDL
MODEL 5
REMARK VINA RESULT:      -6.5      2.032      2.496
REMARK  4 active torsions:
REMARK  status: ('A' for Active; 'I' for Inactive)
REMARK       I    between atoms: C_2  and  N_4 
REMARK    1  A    between atoms: N_4  and  C_5 
REMARK    2  A    between atoms: C_6  and  C_5 
REMARK    3  A    between atoms: N_8  and  C_12 
REMARK    4  A    between atoms: C_15  and  N_19 
ROOT
HETATM    1  C   UNK N   1      31.655  16.827   6.061  0.00  0.00     0.042 A 
HETATM    2  C   UNK N   1      31.289  17.157   4.752  0.00  0.00     0.032 A 
HETATM    3  C   UNK N   1      30.038  17.702   4.478  0.00  0.00     0.035 A 
HETATM    4  C   UNK N   1      29.116  17.953   5.506  0.00  0.00     0.069 A 
HETATM    5  C   UNK N   1      29.499  17.654   6.840  0.00  0.00     0.145 A 
HETATM    6  C   UNK N   1      30.753  17.086   7.102  0.00  0.00     0.074 A 
HETATM    7  F   UNK N   1      28.666  17.878   7.887  0.00  0.00    -0.204 F 
ENDROOT
BRANCH   1   8
HETATM    8  N   UNK N   1      32.925  16.213   6.296  0.00  0.00    -0.291 N 
HETATM    9  C   UNK N   1      33.085  14.804   6.502  0.00  0.00     0.168 A 
HETATM   10  C   UNK N   1      34.604  14.668   6.760  0.00  0.00     0.170 A 
HETATM   11  O   UNK N   1      35.101  15.960   6.676  0.00  0.00    -0.295 OA
HETATM   12  C   UNK N   1      34.113  16.817   6.402  0.00  0.00     0.368 A 
HETATM   13  O   UNK N   1      34.284  18.019   6.299  0.00  0.00    -0.238 OA
BRANCH  10  14
HETATM   14  C   UNK N   1      34.790  14.114   8.158  0.00  0.00     0.156 C 
BRANCH  14  15
HETATM   15  N   UNK N   1      35.380  15.110   9.013  0.00  0.00    -0.359 N 
HETATM   16  C   UNK N   1      34.789  15.473  10.176  0.00  0.00     0.213 C 
HETATM   17  C   UNK N   1      35.411  16.528  11.021  0.00  0.00     0.117 C 
HETATM   18  O   UNK N   1      33.754  14.935  10.545  0.00  0.00    -0.274 OA
HETATM   19  H   UNK N   1      36.228  15.536   8.748  0.00  0.00     0.162 HD
ENDBRANCH  14  15
ENDBRANCH  10  14
ENDBRANCH   1   8
BRANCH   4  20
HETATM   20  N   UNK N   1      27.813  18.453   5.168  0.00  0.00    -0.377 N 
HETATM   21  C   UNK N   1      26.688  17.533   5.094  0.00  0.00     0.133 C 
HETATM   22  C   UNK N   1      25.905  17.742   3.807  0.00  0.00     0.093 C 
HETATM   23  S   UNK N   1      25.154  19.398   3.857  0.00  0.00    -0.166 SA
HETATM   24  C   UNK N   1      26.795  20.180   3.772  0.00  0.00     0.093 C 
HETATM   25  C   UNK N   1      27.546  19.875   5.061  0.00  0.00     0.133 C 
ENDBRANCH   4  20
TORSDOF 4
ENDMDL
MODEL 6
REMARK VINA RESULT:      -6.3      5.135     10.027
REMARK  4 active torsions:
REMARK  status: ('A' for Active; 'I' for Inactive)
REMARK       I    between atoms: C_2  and  N_4 
REMARK    1  A    between atoms: N_4  and  C_5 
REMARK    2  A    between atoms: C_6  and  C_5 
REMARK    3  A    between atoms: N_8  and  C_12 
REMARK    4  A    between atoms: C_15  and  N_19 
ROOT
HETATM    1  C   UNK N   1      28.524  17.671   5.570  0.00  0.00     0.042 A 
HETATM    2  C   UNK N   1      28.444  17.781   6.963  0.00  0.00     0.032 A 
HETATM    3  C   UNK N   1      29.571  17.589   7.757  0.00  0.00     0.035 A 
HETATM    4  C   UNK N   1      30.820  17.299   7.186  0.00  0.00     0.069 A 
HETATM    5  C   UNK N   1      30.911  17.225   5.771  0.00  0.00     0.145 A 
HETATM    6  C   UNK N   1      29.766  17.399   4.982  0.00  0.00     0.074 A 
HETATM    7  F   UNK N   1      32.085  16.958   5.147  0.00  0.00    -0.204 F 
ENDROOT
BRANCH   1   8
HETATM    8  N   UNK N   1      27.333  17.816   4.792  0.00  0.00    -0.291 N 
HETATM    9  C   UNK N   1      27.020  19.007   4.059  0.00  0.00     0.168 A 
HETATM   10  C   UNK N   1      25.636  18.679   3.451  0.00  0.00     0.170 A 
HETATM   11  O   UNK N   1      25.342  17.397   3.894  0.00  0.00    -0.295 OA
HETATM   12  C   UNK N   1      26.339  16.933   4.653  0.00  0.00     0.368 A 
HETATM   13  O   UNK N   1      26.316  15.836   5.184  0.00  0.00    -0.238 OA
BRANCH  10  14
HETATM   14  C   UNK N   1      24.637  19.676   4.002  0.00  0.00     0.156 C 
BRANCH  14  15
HETATM   15  N   UNK N   1      23.294  19.246   3.713  0.00  0.00    -0.359 N 
HETATM   16  C   UNK N   1      22.410  20.071   3.104  0.00  0.00     0.213 C 
HETATM   17  C   UNK N   1      21.022  19.605   2.848  0.00  0.00     0.117 C 
HETATM   18  O   UNK N   1      22.745  21.195   2.753  0.00  0.00    -0.274 OA
HETATM   19  H   UNK N   1      23.012  18.336   3.962  0.00  0.00     0.162 HD
ENDBRANCH  14  15
ENDBRANCH  10  14
ENDBRANCH   1   8
BRANCH   4  20
HETATM   20  N   UNK N   1      31.939  17.041   8.049  0.00  0.00    -0.377 N 
HETATM   21  C   UNK N   1      32.929  18.084   8.271  0.00  0.00     0.133 C 
HETATM   22  C   UNK N   1      34.337  17.537   8.090  0.00  0.00     0.093 C 
HETATM   23  S   UNK N   1      34.646  16.311   9.396  0.00  0.00    -0.166 SA
HETATM   24  C   UNK N   1      33.401  15.191   8.685  0.00  0.00     0.093 C 
HETATM   25  C   UNK N   1      32.028  15.829   8.841  0.00  0.00     0.133 C 
ENDBRANCH   4  20
TORSDOF 4
ENDMDL
MODEL 7
REMARK VINA RESULT:      -6.3      5.147      9.884
REMARK  4 active torsions:
REMARK  status: ('A' for Active; 'I' for Inactive)
REMARK       I    between atoms: C_2  and  N_4 
REMARK    1  A    between atoms: N_4  and  C_5 
REMARK    2  A    between atoms: C_6  and  C_5 
REMARK    3  A    between atoms: N_8  and  C_12 
REMARK    4  A    between atoms: C_15  and  N_19 
ROOT
HETATM    1  C   UNK N   1      28.546  18.255   5.810  0.00  0.00     0.042 A 
HETATM    2  C   UNK N   1      28.878  17.890   7.119  0.00  0.00     0.032 A 
HETATM    3  C   UNK N   1      30.064  17.214   7.389  0.00  0.00     0.035 A 
HETATM    4  C   UNK N   1      30.968  16.896   6.364  0.00  0.00     0.069 A 
HETATM    5  C   UNK N   1      30.652  17.300   5.040  0.00  0.00     0.145 A 
HETATM    6  C   UNK N   1      29.445  17.961   4.776  0.00  0.00     0.074 A 
HETATM    7  F   UNK N   1      31.479  17.036   3.999  0.00  0.00    -0.204 F 
ENDROOT
BRANCH   1   8
HETATM    8  N   UNK N   1      27.291  18.895   5.563  0.00  0.00    -0.291 N 
HETATM    9  C   UNK N   1      26.128  18.186   5.119  0.00  0.00     0.168 A 
HETATM   10  C   UNK N   1      25.083  19.316   4.953  0.00  0.00     0.170 A 
HETATM   11  O   UNK N   1      25.752  20.480   5.305  0.00  0.00    -0.295 OA
HETATM   12  C   UNK N   1      27.011  20.199   5.655  0.00  0.00     0.368 A 
HETATM   13  O   UNK N   1      27.815  21.053   5.984  0.00  0.00    -0.238 OA
BRANCH  10  14
HETATM   14  C   UNK N   1      24.670  19.357   3.495  0.00  0.00     0.156 C 
BRANCH  14  15
HETATM   15  N   UNK N   1      23.240  19.245   3.380  0.00  0.00    -0.359 N 
HETATM   16  C   UNK N   1      22.481  20.310   3.028  0.00  0.00     0.213 C 
HETATM   17  C   UNK N   1      21.003  20.168   2.948  0.00  0.00     0.117 C 
HETATM   18  O   UNK N   1      23.000  21.386   2.764  0.00  0.00    -0.274 OA
HETATM   19  H   UNK N   1      22.805  18.381   3.561  0.00  0.00     0.162 HD
ENDBRANCH  14  15
ENDBRANCH  10  14
ENDBRANCH   1   8
BRANCH   4  20
HETATM   20  N   UNK N   1      32.146  16.138   6.682  0.00  0.00    -0.377 N 
HETATM   21  C   UNK N   1      33.446  16.790   6.660  0.00  0.00     0.133 C 
HETATM   22  C   UNK N   1      34.451  15.962   5.873  0.00  0.00     0.093 C 
HETATM   23  S   UNK N   1      34.724  14.399   6.760  0.00  0.00    -0.166 SA
HETATM   24  C   UNK N   1      33.016  13.870   6.423  0.00  0.00     0.093 C 
HETATM   25  C   UNK N   1      32.066  14.781   7.189  0.00  0.00     0.133 C 
ENDBRANCH   4  20
TORSDOF 4
ENDMDL
MODEL 8
REMARK VINA RESULT:      -6.2      2.684      3.591
REMARK  4 active torsions:
REMARK  status: ('A' for Active; 'I' for Inactive)
REMARK       I    between atoms: C_2  and  N_4 
REMARK    1  A    between atoms: N_4  and  C_5 
REMARK    2  A    between atoms: C_6  and  C_5 
REMARK    3  A    between atoms: N_8  and  C_12 
REMARK    4  A    between atoms: C_15  and  N_19 
ROOT
HETATM    1  C   UNK N   1      34.162  15.203   8.930  0.00  0.00     0.042 A 
HETATM    2  C   UNK N   1      34.626  14.804   7.672  0.00  0.00     0.032 A 
HETATM    3  C   UNK N   1      33.793  14.855   6.558  0.00  0.00     0.035 A 
HETATM    4  C   UNK N   1      32.474  15.324   6.659  0.00  0.00     0.069 A 
HETATM    5  C   UNK N   1      32.013  15.766   7.927  0.00  0.00     0.145 A 
HETATM    6  C   UNK N   1      32.853  15.691   9.046  0.00  0.00     0.074 A 
HETATM    7  F   UNK N   1      30.755  16.241   8.101  0.00  0.00    -0.204 F 
ENDROOT
BRANCH   1   8
HETATM    8  N   UNK N   1      35.026  15.080  10.062  0.00  0.00    -0.291 N 
HETATM    9  C   UNK N   1      35.275  13.833  10.722  0.00  0.00     0.168 A 
HETATM   10  C   UNK N   1      36.209  14.243  11.886  0.00  0.00     0.170 A 
HETATM   11  O   UNK N   1      36.368  15.616  11.753  0.00  0.00    -0.295 OA
HETATM   12  C   UNK N   1      35.683  16.058  10.695  0.00  0.00     0.368 A 
HETATM   13  O   UNK N   1      35.640  17.233  10.374  0.00  0.00    -0.238 OA
BRANCH  10  14
HETATM   14  C   UNK N   1      35.505  13.911  13.186  0.00  0.00     0.156 C 
BRANCH  14  15
HETATM   15  N   UNK N   1      35.018  12.557  13.155  0.00  0.00    -0.359 N 
HETATM   16  C   UNK N   1      34.381  12.018  14.222  0.00  0.00     0.213 C 
HETATM   17  C   UNK N   1      33.917  10.606  14.167  0.00  0.00     0.117 C 
HETATM   18  O   UNK N   1      34.174  12.683  15.227  0.00  0.00    -0.274 OA
HETATM   19  H   UNK N   1      35.150  12.013  12.345  0.00  0.00     0.162 HD
ENDBRANCH  14  15
ENDBRANCH  10  14
ENDBRANCH   1   8
BRANCH   4  20
HETATM   20  N   UNK N   1      31.632  15.294   5.496  0.00  0.00    -0.377 N 
HETATM   21  C   UNK N   1      31.991  16.084   4.329  0.00  0.00     0.133 C 
HETATM   22  C   UNK N   1      30.797  16.884   3.831  0.00  0.00     0.093 C 
HETATM   23  S   UNK N   1      29.534  15.719   3.239  0.00  0.00    -0.166 SA
HETATM   24  C   UNK N   1      29.263  15.101   4.928  0.00  0.00     0.093 C 
HETATM   25  C   UNK N   1      30.518  14.370   5.384  0.00  0.00     0.133 C 
ENDBRANCH   4  20
TORSDOF 4
ENDMDL
MODEL 9
REMARK VINA RESULT:      -6.1     14.002     16.847
REMARK  4 active torsions:
REMARK  status: ('A' for Active; 'I' for Inactive)
REMARK       I    between atoms: C_2  and  N_4 
REMARK    1  A    between atoms: N_4  and  C_5 
REMARK    2  A    between atoms: C_6  and  C_5 
REMARK    3  A    between atoms: N_8  and  C_12 
REMARK    4  A    between atoms: C_15  and  N_19 
ROOT
HETATM    1  C   UNK N   1      28.927  23.668  -4.708  0.00  0.00     0.042 A 
HETATM    2  C   UNK N   1      29.923  24.415  -4.069  0.00  0.00     0.032 A 
HETATM    3  C   UNK N   1      31.227  23.936  -3.983  0.00  0.00     0.035 A 
HETATM    4  C   UNK N   1      31.585  22.702  -4.549  0.00  0.00     0.069 A 
HETATM    5  C   UNK N   1      30.585  21.960  -5.231  0.00  0.00     0.145 A 
HETATM    6  C   UNK N   1      29.271  22.442  -5.293  0.00  0.00     0.074 A 
HETATM    7  F   UNK N   1      30.857  20.764  -5.810  0.00  0.00    -0.204 F 
ENDROOT
BRANCH   1   8
HETATM    8  N   UNK N   1      27.587  24.165  -4.724  0.00  0.00    -0.291 N 
HETATM    9  C   UNK N   1      26.988  24.759  -5.883  0.00  0.00     0.168 A 
HETATM   10  C   UNK N   1      25.587  25.170  -5.370  0.00  0.00     0.170 A 
HETATM   11  O   UNK N   1      25.562  24.779  -4.038  0.00  0.00    -0.295 OA
HETATM   12  C   UNK N   1      26.720  24.202  -3.706  0.00  0.00     0.368 A 
HETATM   13  O   UNK N   1      26.961  23.791  -2.584  0.00  0.00    -0.238 OA
BRANCH  10  14
HETATM   14  C   UNK N   1      25.473  26.676  -5.487  0.00  0.00     0.156 C 
BRANCH  14  15
HETATM   15  N   UNK N   1      26.627  27.309  -4.904  0.00  0.00    -0.359 N 
HETATM   16  C   UNK N   1      26.545  27.958  -3.719  0.00  0.00     0.213 C 
HETATM   17  C   UNK N   1      27.750  28.627  -3.160  0.00  0.00     0.117 C 
HETATM   18  O   UNK N   1      25.492  27.993  -3.097  0.00  0.00    -0.274 OA
HETATM   19  H   UNK N   1      27.491  27.269  -5.375  0.00  0.00     0.162 HD
ENDBRANCH  14  15
ENDBRANCH  10  14
ENDBRANCH   1   8
BRANCH   4  20
HETATM   20  N   UNK N   1      32.926  22.218  -4.376  0.00  0.00    -0.377 N 
HETATM   21  C   UNK N   1      34.013  22.832  -5.121  0.00  0.00     0.133 C 
HETATM   22  C   UNK N   1      34.879  21.772  -5.784  0.00  0.00     0.093 C 
HETATM   23  S   UNK N   1      35.694  20.802  -4.481  0.00  0.00    -0.166 SA
HETATM   24  C   UNK N   1      34.096  20.117  -3.945  0.00  0.00     0.093 C 
HETATM   25  C   UNK N   1      33.258  21.243  -3.354  0.00  0.00     0.133 C 
ENDBRANCH   4  20
TORSDOF 4
ENDMDL
