MODEL 1
REMARK VINA RESULT:      -5.9      0.000      0.000
REMARK  2 active torsions:
REMARK  status: ('A' for Active; 'I' for Inactive)
REMARK    1  A    between atoms: C_9  and  C_12 
REMARK    2  A    between atoms: C_12  and  O_13 
ROOT
HETATM    1  C   UNK N   1      28.156  17.442   7.808  0.00  0.00     0.001 A 
HETATM    2  C   UNK N   1      28.424  18.011   9.057  0.00  0.00     0.002 A 
HETATM    3  C   UNK N   1      29.205  17.117   6.941  0.00  0.00     0.018 A 
HETATM    4  C   UNK N   1      29.742  18.257   9.446  0.00  0.00     0.030 A 
HETATM    5  C   UNK N   1      30.532  17.361   7.323  0.00  0.00     0.041 A 
HETATM    6  C   UNK N   1      30.795  17.935   8.586  0.00  0.00     0.047 A 
HETATM    7  C   UNK N   1      32.914  17.310   6.909  0.00  0.00     0.092 A 
HETATM    8  C   UNK N   1      31.611  17.047   6.480  0.00  0.00     0.186 A 
HETATM    9  C   UNK N   1      33.130  17.880   8.169  0.00  0.00     0.111 A 
HETATM   10  N   UNK N   1      32.072  18.177   8.972  0.00  0.00    -0.350 N 
HETATM   11  O   UNK N   1      31.426  16.551   5.383  0.00  0.00    -0.287 OA
HETATM   12  H   UNK N   1      32.239  18.578   9.855  0.00  0.00     0.166 HD
ENDROOT
BRANCH   9  13
HETATM   13  C   UNK N   1      34.491  18.165   8.640  0.00  0.00     0.193 C 
HETATM   14  O   UNK N   1      35.074  19.164   8.252  0.00  0.00    -0.645 OA
BRANCH  13  15
HETATM   15  O   UNK N   1      35.102  17.327   9.500  0.00  0.00    -0.772 OA
HETATM   16  H   UNK N   1      35.657  17.670  10.173  0.00  0.00     0.167 HD
ENDBRANCH  13  15
ENDBRANCH   9  13
TORSDOF 2
ENDMDL
MODEL 2
REMARK VINA RESULT:      -5.9     12.196     13.282
REMARK  2 active torsions:
REMARK  status: ('A' for Active; 'I' for Inactive)
REMARK    1  A    between atoms: C_9  and  C_12 
REMARK    2  A    between atoms: C_12  and  O_13 
ROOT
HETATM    1  C   UNK N   1      19.524  14.409   2.143  0.00  0.00     0.001 A 
HETATM    2  C   UNK N   1      19.390  14.746   0.793  0.00  0.00     0.002 A 
HETATM    3  C   UNK N   1      19.913  15.376   3.077  0.00  0.00     0.018 A 
HETATM    4  C   UNK N   1      19.644  16.052   0.368  0.00  0.00     0.030 A 
HETATM    5  C   UNK N   1      20.170  16.690   2.659  0.00  0.00     0.041 A 
HETATM    6  C   UNK N   1      20.032  17.023   1.293  0.00  0.00     0.047 A 
HETATM    7  C   UNK N   1      20.807  18.981   3.100  0.00  0.00     0.092 A 
HETATM    8  C   UNK N   1      20.563  17.688   3.566  0.00  0.00     0.186 A 
HETATM    9  C   UNK N   1      20.658  19.269   1.737  0.00  0.00     0.111 A 
HETATM   10  N   UNK N   1      20.277  18.289   0.873  0.00  0.00    -0.350 N 
HETATM   11  O   UNK N   1      20.692  17.441   4.753  0.00  0.00    -0.287 OA
HETATM   12  H   UNK N   1      20.177  18.505  -0.082  0.00  0.00     0.166 HD
ENDROOT
BRANCH   9  13
HETATM   13  C   UNK N   1      20.910  20.621   1.224  0.00  0.00     0.193 C 
HETATM   14  O   UNK N   1      21.056  20.802   0.027  0.00  0.00    -0.645 OA
BRANCH  13  15
HETATM   15  O   UNK N   1      20.981  21.667   2.071  0.00  0.00    -0.772 OA
HETATM   16  H   UNK N   1      20.285  21.826   2.678  0.00  0.00     0.167 HD
ENDBRANCH  13  15
ENDBRANCH   9  13
TORSDOF 2
ENDMDL
MODEL 3
REMARK VINA RESULT:      -5.7      2.797      4.611
REMARK  2 active torsions:
REMARK  status: ('A' for Active; 'I' for Inactive)
REMARK    1  A    between atoms: C_9  and  C_12 
REMARK    2  A    between atoms: C_12  and  O_13 
ROOT
HETATM    1  C   UNK N   1      33.851  17.249   6.139  0.00  0.00     0.001 A 
HETATM    2  C   UNK N   1      34.003  17.655   7.469  0.00  0.00     0.002 A 
HETATM    3  C   UNK N   1      32.575  17.014   5.615  0.00  0.00     0.018 A 
HETATM    4  C   UNK N   1      32.881  17.828   8.281  0.00  0.00     0.030 A 
HETATM    5  C   UNK N   1      31.442  17.186   6.423  0.00  0.00     0.041 A 
HETATM    6  C   UNK N   1      31.604  17.596   7.765  0.00  0.00     0.047 A 
HETATM    7  C   UNK N   1      29.051  17.145   6.779  0.00  0.00     0.092 A 
HETATM    8  C   UNK N   1      30.145  16.960   5.933  0.00  0.00     0.186 A 
HETATM    9  C   UNK N   1      29.256  17.552   8.103  0.00  0.00     0.111 A 
HETATM   10  N   UNK N   1      30.519  17.766   8.560  0.00  0.00    -0.350 N 
HETATM   11  O   UNK N   1      29.964  16.606   4.781  0.00  0.00    -0.287 OA
HETATM   12  H   UNK N   1      30.649  18.052   9.494  0.00  0.00     0.166 HD
ENDROOT
BRANCH   9  13
HETATM   13  C   UNK N   1      28.119  17.753   9.010  0.00  0.00     0.193 C 
HETATM   14  O   UNK N   1      27.797  16.871   9.789  0.00  0.00    -0.645 OA
BRANCH  13  15
HETATM   15  O   UNK N   1      27.427  18.909   8.989  0.00  0.00    -0.772 OA
HETATM   16  H   UNK N   1      26.543  18.930   9.297  0.00  0.00     0.167 HD
ENDBRANCH  13  15
ENDBRANCH   9  13
TORSDOF 2
ENDMDL
MODEL 4
REMARK VINA RESULT:      -5.7      7.829      9.423
REMARK  2 active torsions:
REMARK  status: ('A' for Active; 'I' for Inactive)
REMARK    1  A    between atoms: C_9  and  C_12 
REMARK    2  A    between atoms: C_12  and  O_13 
ROOT
HETATM    1  C   UNK N   1      35.368  10.684  16.652  0.00  0.00     0.001 A 
HETATM    2  C   UNK N   1      34.388  10.189  15.787  0.00  0.00     0.002 A 
HETATM    3  C   UNK N   1      36.076  11.846  16.326  0.00  0.00     0.018 A 
HETATM    4  C   UNK N   1      34.111  10.853  14.590  0.00  0.00     0.030 A 
HETATM    5  C   UNK N   1      35.804  12.519  15.127  0.00  0.00     0.041 A 
HETATM    6  C   UNK N   1      34.813  12.014  14.257  0.00  0.00     0.047 A 
HETATM    7  C   UNK N   1      36.185  14.321  13.560  0.00  0.00     0.092 A 
HETATM    8  C   UNK N   1      36.494  13.689  14.765  0.00  0.00     0.186 A 
HETATM    9  C   UNK N   1      35.195  13.786  12.727  0.00  0.00     0.111 A 
HETATM   10  N   UNK N   1      34.538  12.653  13.094  0.00  0.00    -0.350 N 
HETATM   11  O   UNK N   1      37.356  14.157  15.489  0.00  0.00    -0.287 OA
HETATM   12  H   UNK N   1      33.843  12.287  12.498  0.00  0.00     0.166 HD
ENDROOT
BRANCH   9  13
HETATM   13  C   UNK N   1      34.854  14.435  11.455  0.00  0.00     0.193 C 
HETATM   14  O   UNK N   1      35.698  14.548  10.582  0.00  0.00    -0.645 OA
BRANCH  13  15
HETATM   15  O   UNK N   1      33.610  14.908  11.245  0.00  0.00    -0.772 OA
HETATM   16  H   UNK N   1      33.482  15.668  10.711  0.00  0.00     0.167 HD
ENDBRANCH  13  15
ENDBRANCH   9  13
TORSDOF 2
ENDMDL
MODEL 5
REMARK VINA RESULT:      -5.7      3.584      5.167
REMARK  2 active torsions:
REMARK  status: ('A' for Active; 'I' for Inactive)
REMARK    1  A    between atoms: C_9  and  C_12 
REMARK    2  A    between atoms: C_12  and  O_13 
ROOT
HETATM    1  C   UNK N   1      32.484  16.668   7.608  0.00  0.00     0.001 A 
HETATM    2  C   UNK N   1      31.925  15.425   7.922  0.00  0.00     0.002 A 
HETATM    3  C   UNK N   1      33.557  17.168   8.354  0.00  0.00     0.018 A 
HETATM    4  C   UNK N   1      32.436  14.676   8.983  0.00  0.00     0.030 A 
HETATM    5  C   UNK N   1      34.076  16.422   9.422  0.00  0.00     0.041 A 
HETATM    6  C   UNK N   1      33.507  15.167   9.733  0.00  0.00     0.047 A 
HETATM    7  C   UNK N   1      35.632  16.109  11.247  0.00  0.00     0.092 A 
HETATM    8  C   UNK N   1      35.153  16.890  10.194  0.00  0.00     0.186 A 
HETATM    9  C   UNK N   1      35.038  14.871  11.521  0.00  0.00     0.111 A 
HETATM   10  N   UNK N   1      33.997  14.434  10.763  0.00  0.00    -0.350 N 
HETATM   11  O   UNK N   1      35.672  17.967   9.957  0.00  0.00    -0.287 OA
HETATM   12  H   UNK N   1      33.588  13.561  10.967  0.00  0.00     0.166 HD
ENDROOT
BRANCH   9  13
HETATM   13  C   UNK N   1      35.526  14.033  12.623  0.00  0.00     0.193 C 
HETATM   14  O   UNK N   1      34.749  13.327  13.243  0.00  0.00    -0.645 OA
BRANCH  13  15
HETATM   15  O   UNK N   1      36.833  14.038  12.955  0.00  0.00    -0.772 OA
HETATM   16  H   UNK N   1      37.277  14.852  13.090  0.00  0.00     0.167 HD
ENDBRANCH  13  15
ENDBRANCH   9  13
TORSDOF 2
ENDMDL
MODEL 6
REMARK VINA RESULT:      -5.6      2.725      4.861
REMARK  2 active torsions:
REMARK  status: ('A' for Active; 'I' for Inactive)
REMARK    1  A    between atoms: C_9  and  C_12 
REMARK    2  A    between atoms: C_12  and  O_13 
ROOT
HETATM    1  C   UNK N   1      32.908  17.160   4.614  0.00  0.00     0.001 A 
HETATM    2  C   UNK N   1      31.663  17.179   3.979  0.00  0.00     0.002 A 
HETATM    3  C   UNK N   1      32.992  17.283   6.006  0.00  0.00     0.018 A 
HETATM    4  C   UNK N   1      30.495  17.321   4.730  0.00  0.00     0.030 A 
HETATM    5  C   UNK N   1      31.824  17.426   6.769  0.00  0.00     0.041 A 
HETATM    6  C   UNK N   1      30.570  17.444   6.120  0.00  0.00     0.047 A 
HETATM    7  C   UNK N   1      30.677  17.692   8.881  0.00  0.00     0.092 A 
HETATM    8  C   UNK N   1      31.868  17.552   8.167  0.00  0.00     0.186 A 
HETATM    9  C   UNK N   1      29.455  17.705   8.198  0.00  0.00     0.111 A 
HETATM   10  N   UNK N   1      29.432  17.582   6.843  0.00  0.00    -0.350 N 
HETATM   11  O   UNK N   1      32.931  17.541   8.765  0.00  0.00    -0.287 OA
HETATM   12  H   UNK N   1      28.565  17.593   6.375  0.00  0.00     0.166 HD
ENDROOT
BRANCH   9  13
HETATM   13  C   UNK N   1      28.189  17.851   8.928  0.00  0.00     0.193 C 
HETATM   14  O   UNK N   1      27.795  16.952   9.651  0.00  0.00    -0.645 OA
BRANCH  13  15
HETATM   15  O   UNK N   1      27.458  18.977   8.803  0.00  0.00    -0.772 OA
HETATM   16  H   UNK N   1      26.688  18.978   8.269  0.00  0.00     0.167 HD
ENDBRANCH  13  15
ENDBRANCH   9  13
TORSDOF 2
ENDMDL
MODEL 7
REMARK VINA RESULT:      -5.6      1.542      2.087
REMARK  2 active torsions:
REMARK  status: ('A' for Active; 'I' for Inactive)
REMARK    1  A    between atoms: C_9  and  C_12 
REMARK    2  A    between atoms: C_12  and  O_13 
ROOT
HETATM    1  C   UNK N   1      30.011  17.377   5.809  0.00  0.00     0.001 A 
HETATM    2  C   UNK N   1      29.503  17.461   7.109  0.00  0.00     0.002 A 
HETATM    3  C   UNK N   1      31.382  17.198   5.597  0.00  0.00     0.018 A 
HETATM    4  C   UNK N   1      30.364  17.367   8.205  0.00  0.00     0.030 A 
HETATM    5  C   UNK N   1      32.254  17.103   6.691  0.00  0.00     0.041 A 
HETATM    6  C   UNK N   1      31.734  17.188   8.002  0.00  0.00     0.047 A 
HETATM    7  C   UNK N   1      34.462  16.834   7.641  0.00  0.00     0.092 A 
HETATM    8  C   UNK N   1      33.637  16.923   6.518  0.00  0.00     0.186 A 
HETATM    9  C   UNK N   1      33.905  16.924   8.922  0.00  0.00     0.111 A 
HETATM   10  N   UNK N   1      32.564  17.098   9.070  0.00  0.00    -0.350 N 
HETATM   11  O   UNK N   1      34.124  16.844   5.404  0.00  0.00    -0.287 OA
HETATM   12  H   UNK N   1      32.186  17.160   9.978  0.00  0.00     0.166 HD
ENDROOT
BRANCH   9  13
HETATM   13  C   UNK N   1      34.754  16.833  10.117  0.00  0.00     0.193 C 
HETATM   14  O   UNK N   1      35.674  17.618  10.273  0.00  0.00    -0.645 OA
BRANCH  13  15
HETATM   15  O   UNK N   1      34.522  15.883  11.045  0.00  0.00    -0.772 OA
HETATM   16  H   UNK N   1      34.679  14.982  10.841  0.00  0.00     0.167 HD
ENDBRANCH  13  15
ENDBRANCH   9  13
TORSDOF 2
ENDMDL
MODEL 8
REMARK VINA RESULT:      -5.5      8.148      9.662
REMARK  2 active torsions:
REMARK  status: ('A' for Active; 'I' for Inactive)
REMARK    1  A    between atoms: C_9  and  C_12 
REMARK    2  A    between atoms: C_12  and  O_13 
ROOT
HETATM    1  C   UNK N   1      35.676  14.356  17.905  0.00  0.00     0.001 A 
HETATM    2  C   UNK N   1      36.680  15.222  17.463  0.00  0.00     0.002 A 
HETATM    3  C   UNK N   1      35.104  13.431  17.025  0.00  0.00     0.018 A 
HETATM    4  C   UNK N   1      37.118  15.169  16.138  0.00  0.00     0.030 A 
HETATM    5  C   UNK N   1      35.537  13.370  15.693  0.00  0.00     0.041 A 
HETATM    6  C   UNK N   1      36.552  14.248  15.253  0.00  0.00     0.047 A 
HETATM    7  C   UNK N   1      35.454  12.434  13.464  0.00  0.00     0.092 A 
HETATM    8  C   UNK N   1      34.987  12.455  14.780  0.00  0.00     0.186 A 
HETATM    9  C   UNK N   1      36.461  13.323  13.070  0.00  0.00     0.111 A 
HETATM   10  N   UNK N   1      36.982  14.202  13.968  0.00  0.00    -0.350 N 
HETATM   11  O   UNK N   1      34.110  11.680  15.120  0.00  0.00    -0.287 OA
HETATM   12  H   UNK N   1      37.691  14.821  13.677  0.00  0.00     0.166 HD
ENDROOT
BRANCH   9  13
HETATM   13  C   UNK N   1      36.967  13.319  11.692  0.00  0.00     0.193 C 
HETATM   14  O   UNK N   1      36.199  13.489  10.760  0.00  0.00    -0.645 OA
BRANCH  13  15
HETATM   15  O   UNK N   1      38.279  13.128  11.449  0.00  0.00    -0.772 OA
HETATM   16  H   UNK N   1      38.809  12.674  12.074  0.00  0.00     0.167 HD
ENDBRANCH  13  15
ENDBRANCH   9  13
TORSDOF 2
ENDMDL
MODEL 9
REMARK VINA RESULT:      -5.5      7.625     10.138
REMARK  2 active torsions:
REMARK  status: ('A' for Active; 'I' for Inactive)
REMARK    1  A    between atoms: C_9  and  C_12 
REMARK    2  A    between atoms: C_12  and  O_13 
ROOT
HETATM    1  C   UNK N   1      27.279  18.746   4.628  0.00  0.00     0.001 A 
HETATM    2  C   UNK N   1      27.416  19.884   3.827  0.00  0.00     0.002 A 
HETATM    3  C   UNK N   1      26.014  18.193   4.857  0.00  0.00     0.018 A 
HETATM    4  C   UNK N   1      26.289  20.475   3.251  0.00  0.00     0.030 A 
HETATM    5  C   UNK N   1      24.878  18.780   4.283  0.00  0.00     0.041 A 
HETATM    6  C   UNK N   1      25.023  19.929   3.475  0.00  0.00     0.047 A 
HETATM    7  C   UNK N   1      22.492  18.875   3.896  0.00  0.00     0.092 A 
HETATM    8  C   UNK N   1      23.592  18.253   4.490  0.00  0.00     0.186 A 
HETATM    9  C   UNK N   1      22.682  20.013   3.102  0.00  0.00     0.111 A 
HETATM   10  N   UNK N   1      23.935  20.508   2.913  0.00  0.00    -0.350 N 
HETATM   11  O   UNK N   1      23.424  17.263   5.181  0.00  0.00    -0.287 OA
HETATM   12  H   UNK N   1      24.053  21.309   2.352  0.00  0.00     0.166 HD
ENDROOT
BRANCH   9  13
HETATM   13  C   UNK N   1      21.540  20.682   2.467  0.00  0.00     0.193 C 
HETATM   14  O   UNK N   1      21.444  20.704   1.252  0.00  0.00    -0.645 OA
BRANCH  13  15
HETATM   15  O   UNK N   1      20.594  21.276   3.222  0.00  0.00    -0.772 OA
HETATM   16  H   UNK N   1      19.950  21.825   2.819  0.00  0.00     0.167 HD
ENDBRANCH  13  15
ENDBRANCH   9  13
TORSDOF 2
ENDMDL
