MODEL 1
REMARK VINA RESULT:      -8.7      0.000      0.000
REMARK  5 active torsions:
REMARK  status: ('A' for Active; 'I' for Inactive)
REMARK    1  A    between atoms: C_3  and  C_15 
REMARK    2  A    between atoms: C_4  and  C_8 
REMARK    3  A    between atoms: C_15  and  O_16 
REMARK    4  A    between atoms: O_16  and  C_17 
REMARK    5  A    between atoms: C_20  and  C_24 
REMARK       I    between atoms: C_24  and  N_26 
ROOT
HETATM    1  C   UNK N   1      35.535  15.607  10.767  0.00  0.00     0.142 A 
HETATM    2  C   UNK N   1      35.659  14.774   9.648  0.00  0.00     0.057 A 
HETATM    3  C   UNK N   1      35.149  15.199   8.414  0.00  0.00     0.022 A 
HETATM    4  C   UNK N   1      34.563  16.468   8.296  0.00  0.00     0.047 A 
HETATM    5  C   UNK N   1      34.479  17.265   9.443  0.00  0.00     0.107 A 
HETATM    6  N   UNK N   1      34.947  16.825  10.635  0.00  0.00    -0.346 N 
ATOM      7  HN  UNK N   1      34.854  17.423  11.456  1.00  0.00     0.167 HD
ENDROOT
BRANCH   1   8
HETATM    8  O   UNK N   1      35.948  15.178  11.981  0.00  0.00    -0.331 OA
BRANCH   8   9
HETATM    9  C   UNK N   1      35.420  14.028  12.529  0.00  0.00     0.221 C 
BRANCH   9  10
HETATM   10  C   UNK N   1      36.452  13.072  13.037  0.00  0.00     0.027 A 
HETATM   11  C   UNK N   1      37.007  12.007  12.363  0.00  0.00     0.083 A 
HETATM   12  C   UNK N   1      36.746  11.605  10.955  0.00  0.00     0.079 C 
HETATM   13  O   UNK N   1      37.802  11.363  13.187  0.00  0.00    -0.242 OA
HETATM   14  N   UNK N   1      37.812  11.925  14.363  0.00  0.00    -0.260 N 
HETATM   15  C   UNK N   1      36.988  12.994  14.312  0.00  0.00     0.076 A 
ATOM     16  HN  UNK N   1      38.344  11.614  15.175  1.00  0.00     0.195 HD
BRANCH  15  17
HETATM   17  C   UNK N   1      36.725  13.876  15.471  0.00  0.00    -0.007 A 
HETATM   18  C   UNK N   1      35.841  13.490  16.488  0.00  0.00     0.017 A 
HETATM   19  C   UNK N   1      35.593  14.337  17.571  0.00  0.00     0.043 A 
HETATM   20  C   UNK N   1      36.238  15.574  17.653  0.00  0.00     0.116 A 
HETATM   21  C   UNK N   1      37.125  15.967  16.647  0.00  0.00     0.043 A 
HETATM   22  F   UNK N   1      36.002  16.393  18.705  0.00  0.00    -0.206 F 
HETATM   23  C   UNK N   1      37.362  15.123  15.557  0.00  0.00     0.017 A 
ENDBRANCH  15  17
ENDBRANCH   9  10
ENDBRANCH   8   9
ENDBRANCH   1   8
BRANCH   4  24
HETATM   24  C   UNK N   1      33.986  16.928   6.993  0.00  0.00     0.255 C 
HETATM   25  O   UNK N   1      34.495  17.892   6.439  0.00  0.00    -0.267 OA
HETATM   26  N   UNK N   1      32.909  16.306   6.409  0.00  0.00    -0.346 N 
HETATM   27  C   UNK N   1      32.457  16.682   5.085  0.00  0.00     0.141 C 
HETATM   28  C   UNK N   1      32.185  15.239   7.064  0.00  0.00     0.141 C 
HETATM   29  C   UNK N   1      32.141  15.373   4.331  0.00  0.00     0.160 C 
HETATM   30  S   UNK N   1      30.549  14.647   4.943  0.00  0.00     0.147 S 
HETATM   31  O   UNK N   1      30.758  14.081   3.530  0.00  0.00    -0.228 OA
HETATM   32  O   UNK N   1      30.523  13.153   5.297  0.00  0.00    -0.228 OA
HETATM   33  C   UNK N   1      31.949  14.150   6.025  0.00  0.00     0.160 C 
ENDBRANCH   4  24
TORSDOF 5
ENDMDL
MODEL 2
REMARK VINA RESULT:      -8.6      1.561      1.812
REMARK  5 active torsions:
REMARK  status: ('A' for Active; 'I' for Inactive)
REMARK    1  A    between atoms: C_3  and  C_15 
REMARK    2  A    between atoms: C_4  and  C_8 
REMARK    3  A    between atoms: C_15  and  O_16 
REMARK    4  A    between atoms: O_16  and  C_17 
REMARK    5  A    between atoms: C_20  and  C_24 
REMARK       I    between atoms: C_24  and  N_26 
ROOT
HETATM    1  C   UNK N   1      34.321  15.403  10.423  0.00  0.00     0.142 A 
HETATM    2  C   UNK N   1      33.931  14.559   9.377  0.00  0.00     0.057 A 
HETATM    3  C   UNK N   1      33.608  15.112   8.130  0.00  0.00     0.022 A 
HETATM    4  C   UNK N   1      33.722  16.494   7.925  0.00  0.00     0.047 A 
HETATM    5  C   UNK N   1      34.132  17.290   9.000  0.00  0.00     0.107 A 
HETATM    6  N   UNK N   1      34.407  16.743  10.209  0.00  0.00    -0.346 N 
ATOM      7  HN  UNK N   1      34.685  17.352  10.978  1.00  0.00     0.167 HD
ENDROOT
BRANCH   1   8
HETATM    8  O   UNK N   1      34.557  14.894  11.653  0.00  0.00    -0.331 OA
BRANCH   8   9
HETATM    9  C   UNK N   1      35.760  15.129  12.285  0.00  0.00     0.221 C 
BRANCH   9  10
HETATM   10  C   UNK N   1      36.591  13.900  12.478  0.00  0.00     0.027 A 
HETATM   11  C   UNK N   1      37.235  13.167  11.507  0.00  0.00     0.083 A 
HETATM   12  C   UNK N   1      37.296  13.467  10.051  0.00  0.00     0.079 C 
HETATM   13  O   UNK N   1      37.777  12.113  12.073  0.00  0.00    -0.242 OA
HETATM   14  N   UNK N   1      37.536  12.094  13.354  0.00  0.00    -0.260 N 
HETATM   15  C   UNK N   1      36.804  13.190  13.649  0.00  0.00     0.076 A 
ATOM     16  HN  UNK N   1      37.842  11.380  14.015  1.00  0.00     0.195 HD
BRANCH  15  17
HETATM   17  C   UNK N   1      36.318  13.504  15.011  0.00  0.00    -0.007 A 
HETATM   18  C   UNK N   1      36.956  14.472  15.800  0.00  0.00     0.017 A 
HETATM   19  C   UNK N   1      36.494  14.751  17.089  0.00  0.00     0.043 A 
HETATM   20  C   UNK N   1      35.382  14.074  17.595  0.00  0.00     0.116 A 
HETATM   21  C   UNK N   1      34.736  13.112  16.814  0.00  0.00     0.043 A 
HETATM   22  F   UNK N   1      34.930  14.349  18.842  0.00  0.00    -0.206 F 
HETATM   23  C   UNK N   1      35.206  12.824  15.529  0.00  0.00     0.017 A 
ENDBRANCH  15  17
ENDBRANCH   9  10
ENDBRANCH   8   9
ENDBRANCH   1   8
BRANCH   4  24
HETATM   24  C   UNK N   1      33.353  17.108   6.609  0.00  0.00     0.255 C 
HETATM   25  O   UNK N   1      34.235  17.636   5.946  0.00  0.00    -0.267 OA
HETATM   26  N   UNK N   1      32.065  17.097   6.132  0.00  0.00    -0.346 N 
HETATM   27  C   UNK N   1      31.760  17.572   4.798  0.00  0.00     0.141 C 
HETATM   28  C   UNK N   1      30.956  16.597   6.914  0.00  0.00     0.141 C 
HETATM   29  C   UNK N   1      30.756  16.571   4.185  0.00  0.00     0.160 C 
HETATM   30  S   UNK N   1      29.076  16.808   4.928  0.00  0.00     0.147 S 
HETATM   31  O   UNK N   1      28.846  16.132   3.568  0.00  0.00    -0.228 OA
HETATM   32  O   UNK N   1      28.321  15.565   5.422  0.00  0.00    -0.228 OA
HETATM   33  C   UNK N   1      30.111  15.725   5.993  0.00  0.00     0.160 C 
ENDBRANCH   4  24
TORSDOF 5
ENDMDL
MODEL 3
REMARK VINA RESULT:      -8.5      1.619      1.991
REMARK  5 active torsions:
REMARK  status: ('A' for Active; 'I' for Inactive)
REMARK    1  A    between atoms: C_3  and  C_15 
REMARK    2  A    between atoms: C_4  and  C_8 
REMARK    3  A    between atoms: C_15  and  O_16 
REMARK    4  A    between atoms: O_16  and  C_17 
REMARK    5  A    between atoms: C_20  and  C_24 
REMARK       I    between atoms: C_24  and  N_26 
ROOT
HETATM    1  C   UNK N   1      34.731  15.414  10.856  0.00  0.00     0.142 A 
HETATM    2  C   UNK N   1      35.092  16.531  10.094  0.00  0.00     0.057 A 
HETATM    3  C   UNK N   1      34.199  17.028   9.135  0.00  0.00     0.022 A 
HETATM    4  C   UNK N   1      32.938  16.436   8.977  0.00  0.00     0.047 A 
HETATM    5  C   UNK N   1      32.622  15.332   9.775  0.00  0.00     0.107 A 
HETATM    6  N   UNK N   1      33.510  14.843  10.675  0.00  0.00    -0.346 N 
ATOM      7  HN  UNK N   1      33.257  14.025  11.228  1.00  0.00     0.167 HD
ENDROOT
BRANCH   1   8
HETATM    8  O   UNK N   1      35.612  14.873  11.727  0.00  0.00    -0.331 OA
BRANCH   8   9
HETATM    9  C   UNK N   1      35.207  13.894  12.609  0.00  0.00     0.221 C 
BRANCH   9  10
HETATM   10  C   UNK N   1      36.314  12.999  13.068  0.00  0.00     0.027 A 
HETATM   11  C   UNK N   1      36.882  11.952  12.378  0.00  0.00     0.083 A 
HETATM   12  C   UNK N   1      36.560  11.513  10.994  0.00  0.00     0.079 C 
HETATM   13  O   UNK N   1      37.756  11.363  13.162  0.00  0.00    -0.242 OA
HETATM   14  N   UNK N   1      37.807  11.945  14.327  0.00  0.00    -0.260 N 
HETATM   15  C   UNK N   1      36.928  12.971  14.310  0.00  0.00     0.076 A 
ATOM     16  HN  UNK N   1      38.401  11.675  15.110  1.00  0.00     0.195 HD
BRANCH  15  17
HETATM   17  C   UNK N   1      36.690  13.859  15.469  0.00  0.00    -0.007 A 
HETATM   18  C   UNK N   1      37.348  15.092  15.584  0.00  0.00     0.017 A 
HETATM   19  C   UNK N   1      37.122  15.916  16.689  0.00  0.00     0.043 A 
HETATM   20  C   UNK N   1      36.225  15.520  17.684  0.00  0.00     0.116 A 
HETATM   21  C   UNK N   1      35.559  14.296  17.577  0.00  0.00     0.043 A 
HETATM   22  F   UNK N   1      36.001  16.321  18.753  0.00  0.00    -0.206 F 
HETATM   23  C   UNK N   1      35.796  13.466  16.477  0.00  0.00     0.017 A 
ENDBRANCH  15  17
ENDBRANCH   9  10
ENDBRANCH   8   9
ENDBRANCH   1   8
BRANCH   4  24
HETATM   24  C   UNK N   1      31.981  16.933   7.937  0.00  0.00     0.255 C 
HETATM   25  O   UNK N   1      31.125  17.740   8.272  0.00  0.00    -0.267 OA
HETATM   26  N   UNK N   1      32.036  16.512   6.631  0.00  0.00    -0.346 N 
HETATM   27  C   UNK N   1      31.192  17.110   5.617  0.00  0.00     0.141 C 
HETATM   28  C   UNK N   1      32.943  15.475   6.191  0.00  0.00     0.141 C 
HETATM   29  C   UNK N   1      32.072  17.318   4.365  0.00  0.00     0.160 C 
HETATM   30  S   UNK N   1      32.376  15.699   3.517  0.00  0.00     0.147 S 
HETATM   31  O   UNK N   1      32.577  16.783   2.447  0.00  0.00    -0.228 OA
HETATM   32  O   UNK N   1      33.816  15.350   3.116  0.00  0.00    -0.228 OA
HETATM   33  C   UNK N   1      33.574  15.949   4.887  0.00  0.00     0.160 C 
ENDBRANCH   4  24
TORSDOF 5
ENDMDL
MODEL 4
REMARK VINA RESULT:      -8.2      3.655      9.005
REMARK  5 active torsions:
REMARK  status: ('A' for Active; 'I' for Inactive)
REMARK    1  A    between atoms: C_3  and  C_15 
REMARK    2  A    between atoms: C_4  and  C_8 
REMARK    3  A    between atoms: C_15  and  O_16 
REMARK    4  A    between atoms: O_16  and  C_17 
REMARK    5  A    between atoms: C_20  and  C_24 
REMARK       I    between atoms: C_24  and  N_26 
ROOT
HETATM    1  C   UNK N   1      32.935  13.396   7.053  0.00  0.00     0.142 A 
HETATM    2  C   UNK N   1      34.236  13.882   6.881  0.00  0.00     0.057 A 
HETATM    3  C   UNK N   1      34.919  14.424   7.977  0.00  0.00     0.022 A 
HETATM    4  C   UNK N   1      34.317  14.435   9.244  0.00  0.00     0.047 A 
HETATM    5  C   UNK N   1      33.020  13.923   9.362  0.00  0.00     0.107 A 
HETATM    6  N   UNK N   1      32.361  13.433   8.285  0.00  0.00    -0.346 N 
ATOM      7  HN  UNK N   1      31.410  13.084   8.401  1.00  0.00     0.167 HD
ENDROOT
BRANCH   1   8
HETATM    8  O   UNK N   1      32.233  12.946   5.989  0.00  0.00    -0.331 OA
BRANCH   8   9
HETATM    9  C   UNK N   1      31.810  13.822   5.012  0.00  0.00     0.221 C 
BRANCH   9  10
HETATM   10  C   UNK N   1      30.588  14.600   5.385  0.00  0.00     0.027 A 
HETATM   11  C   UNK N   1      29.282  14.310   5.058  0.00  0.00     0.083 A 
HETATM   12  C   UNK N   1      28.789  13.124   4.307  0.00  0.00     0.079 C 
HETATM   13  O   UNK N   1      28.518  15.284   5.496  0.00  0.00    -0.242 OA
HETATM   14  N   UNK N   1      29.227  16.204   6.089  0.00  0.00    -0.260 N 
HETATM   15  C   UNK N   1      30.519  15.815   6.046  0.00  0.00     0.076 A 
ATOM     16  HN  UNK N   1      28.870  17.062   6.509  1.00  0.00     0.195 HD
BRANCH  15  17
HETATM   17  C   UNK N   1      31.630  16.616   6.606  0.00  0.00    -0.007 A 
HETATM   18  C   UNK N   1      32.727  16.985   5.813  0.00  0.00     0.017 A 
HETATM   19  C   UNK N   1      33.775  17.731   6.357  0.00  0.00     0.043 A 
HETATM   20  C   UNK N   1      33.729  18.129   7.696  0.00  0.00     0.116 A 
HETATM   21  C   UNK N   1      32.638  17.772   8.493  0.00  0.00     0.043 A 
HETATM   22  F   UNK N   1      34.742  18.858   8.222  0.00  0.00    -0.206 F 
HETATM   23  C   UNK N   1      31.596  17.013   7.951  0.00  0.00     0.017 A 
ENDBRANCH  15  17
ENDBRANCH   9  10
ENDBRANCH   8   9
ENDBRANCH   1   8
BRANCH   4  24
HETATM   24  C   UNK N   1      35.018  15.038  10.422  0.00  0.00     0.255 C 
HETATM   25  O   UNK N   1      35.049  16.257  10.520  0.00  0.00    -0.267 OA
HETATM   26  N   UNK N   1      35.624  14.268  11.385  0.00  0.00    -0.346 N 
HETATM   27  C   UNK N   1      36.173  14.868  12.584  0.00  0.00     0.141 C 
HETATM   28  C   UNK N   1      35.729  12.830  11.272  0.00  0.00     0.141 C 
HETATM   29  C   UNK N   1      35.772  13.958  13.765  0.00  0.00     0.160 C 
HETATM   30  S   UNK N   1      36.797  12.414  13.764  0.00  0.00     0.147 S 
HETATM   31  O   UNK N   1      36.301  12.592  15.206  0.00  0.00    -0.228 OA
HETATM   32  O   UNK N   1      36.078  11.067  13.918  0.00  0.00    -0.228 OA
HETATM   33  C   UNK N   1      35.362  12.242  12.629  0.00  0.00     0.160 C 
ENDBRANCH   4  24
TORSDOF 5
ENDMDL
MODEL 5
REMARK VINA RESULT:      -8.1      3.587      9.035
REMARK  5 active torsions:
REMARK  status: ('A' for Active; 'I' for Inactive)
REMARK    1  A    between atoms: C_3  and  C_15 
REMARK    2  A    between atoms: C_4  and  C_8 
REMARK    3  A    between atoms: C_15  and  O_16 
REMARK    4  A    between atoms: O_16  and  C_17 
REMARK    5  A    between atoms: C_20  and  C_24 
REMARK       I    between atoms: C_24  and  N_26 
ROOT
HETATM    1  C   UNK N   1      33.544  13.988   7.216  0.00  0.00     0.142 A 
HETATM    2  C   UNK N   1      32.714  14.071   8.340  0.00  0.00     0.057 A 
HETATM    3  C   UNK N   1      33.250  14.502   9.561  0.00  0.00     0.022 A 
HETATM    4  C   UNK N   1      34.595  14.891   9.639  0.00  0.00     0.047 A 
HETATM    5  C   UNK N   1      35.376  14.803   8.481  0.00  0.00     0.107 A 
HETATM    6  N   UNK N   1      34.850  14.351   7.317  0.00  0.00    -0.346 N 
ATOM      7  HN  UNK N   1      35.450  14.281   6.495  1.00  0.00     0.167 HD
ENDROOT
BRANCH   1   8
HETATM    8  O   UNK N   1      33.062  13.496   6.052  0.00  0.00    -0.331 OA
BRANCH   8   9
HETATM    9  C   UNK N   1      31.979  14.090   5.441  0.00  0.00     0.221 C 
BRANCH   9  10
HETATM   10  C   UNK N   1      32.323  15.324   4.668  0.00  0.00     0.027 A 
HETATM   11  C   UNK N   1      32.911  15.394   3.425  0.00  0.00     0.083 A 
HETATM   12  C   UNK N   1      33.283  14.253   2.545  0.00  0.00     0.079 C 
HETATM   13  O   UNK N   1      33.128  16.657   3.138  0.00  0.00    -0.242 OA
HETATM   14  N   UNK N   1      32.727  17.432   4.107  0.00  0.00    -0.260 N 
HETATM   15  C   UNK N   1      32.216  16.644   5.077  0.00  0.00     0.076 A 
ATOM     16  HN  UNK N   1      32.789  18.450   4.129  1.00  0.00     0.195 HD
BRANCH  15  17
HETATM   17  C   UNK N   1      31.675  17.166   6.351  0.00  0.00    -0.007 A 
HETATM   18  C   UNK N   1      32.528  17.587   7.381  0.00  0.00     0.017 A 
HETATM   19  C   UNK N   1      32.004  18.067   8.584  0.00  0.00     0.043 A 
HETATM   20  C   UNK N   1      30.621  18.144   8.763  0.00  0.00     0.116 A 
HETATM   21  C   UNK N   1      29.761  17.732   7.740  0.00  0.00     0.043 A 
HETATM   22  F   UNK N   1      30.112  18.614   9.926  0.00  0.00    -0.206 F 
HETATM   23  C   UNK N   1      30.287  17.238   6.541  0.00  0.00     0.017 A 
ENDBRANCH  15  17
ENDBRANCH   9  10
ENDBRANCH   8   9
ENDBRANCH   1   8
BRANCH   4  24
HETATM   24  C   UNK N   1      35.194  15.326  10.941  0.00  0.00     0.255 C 
HETATM   25  O   UNK N   1      35.185  16.518  11.216  0.00  0.00    -0.267 OA
HETATM   26  N   UNK N   1      35.750  14.435  11.825  0.00  0.00    -0.346 N 
HETATM   27  C   UNK N   1      36.196  14.863  13.135  0.00  0.00     0.141 C 
HETATM   28  C   UNK N   1      35.902  13.030  11.514  0.00  0.00     0.141 C 
HETATM   29  C   UNK N   1      35.737  13.783  14.140  0.00  0.00     0.160 C 
HETATM   30  S   UNK N   1      36.801  12.273  13.992  0.00  0.00     0.147 S 
HETATM   31  O   UNK N   1      36.199  12.231  15.405  0.00  0.00    -0.228 OA
HETATM   32  O   UNK N   1      36.109  10.906  13.897  0.00  0.00    -0.228 OA
HETATM   33  C   UNK N   1      35.455  12.245  12.741  0.00  0.00     0.160 C 
ENDBRANCH   4  24
TORSDOF 5
ENDMDL
MODEL 6
REMARK VINA RESULT:      -8.1      2.703      3.069
REMARK  5 active torsions:
REMARK  status: ('A' for Active; 'I' for Inactive)
REMARK    1  A    between atoms: C_3  and  C_15 
REMARK    2  A    between atoms: C_4  and  C_8 
REMARK    3  A    between atoms: C_15  and  O_16 
REMARK    4  A    between atoms: O_16  and  C_17 
REMARK    5  A    between atoms: C_20  and  C_24 
REMARK       I    between atoms: C_24  and  N_26 
ROOT
HETATM    1  C   UNK N   1      34.509  14.867  11.104  0.00  0.00     0.142 A 
HETATM    2  C   UNK N   1      34.929  16.176  10.843  0.00  0.00     0.057 A 
HETATM    3  C   UNK N   1      34.727  16.723   9.569  0.00  0.00     0.022 A 
HETATM    4  C   UNK N   1      34.067  15.978   8.582  0.00  0.00     0.047 A 
HETATM    5  C   UNK N   1      33.654  14.679   8.901  0.00  0.00     0.107 A 
HETATM    6  N   UNK N   1      33.888  14.154  10.127  0.00  0.00    -0.346 N 
ATOM      7  HN  UNK N   1      33.592  13.197  10.322  1.00  0.00     0.167 HD
ENDROOT
BRANCH   1   8
HETATM    8  O   UNK N   1      34.770  14.296  12.302  0.00  0.00    -0.331 OA
BRANCH   8   9
HETATM    9  C   UNK N   1      36.066  14.219  12.768  0.00  0.00     0.221 C 
BRANCH   9  10
HETATM   10  C   UNK N   1      36.817  13.024  12.270  0.00  0.00     0.027 A 
HETATM   11  C   UNK N   1      37.577  12.934  11.126  0.00  0.00     0.083 A 
HETATM   12  C   UNK N   1      37.870  14.023  10.157  0.00  0.00     0.079 C 
HETATM   13  O   UNK N   1      37.992  11.694  11.000  0.00  0.00    -0.242 OA
HETATM   14  N   UNK N   1      37.557  10.953  11.981  0.00  0.00    -0.260 N 
HETATM   15  C   UNK N   1      36.825  11.742  12.796  0.00  0.00     0.076 A 
ATOM     16  HN  UNK N   1      37.736   9.957  12.109  1.00  0.00     0.195 HD
BRANCH  15  17
HETATM   17  C   UNK N   1      36.148  11.249  14.016  0.00  0.00    -0.007 A 
HETATM   18  C   UNK N   1      36.853  11.082  15.217  0.00  0.00     0.017 A 
HETATM   19  C   UNK N   1      36.204  10.604  16.358  0.00  0.00     0.043 A 
HETATM   20  C   UNK N   1      34.840  10.303  16.313  0.00  0.00     0.116 A 
HETATM   21  C   UNK N   1      34.127  10.472  15.123  0.00  0.00     0.043 A 
HETATM   22  F   UNK N   1      34.209   9.846  17.421  0.00  0.00    -0.206 F 
HETATM   23  C   UNK N   1      34.781  10.938  13.976  0.00  0.00     0.017 A 
ENDBRANCH  15  17
ENDBRANCH   9  10
ENDBRANCH   8   9
ENDBRANCH   1   8
BRANCH   4  24
HETATM   24  C   UNK N   1      33.868  16.533   7.205  0.00  0.00     0.255 C 
HETATM   25  O   UNK N   1      34.845  16.648   6.477  0.00  0.00    -0.267 OA
HETATM   26  N   UNK N   1      32.633  16.916   6.742  0.00  0.00    -0.346 N 
HETATM   27  C   UNK N   1      32.445  17.318   5.363  0.00  0.00     0.141 C 
HETATM   28  C   UNK N   1      31.458  16.919   7.586  0.00  0.00     0.141 C 
HETATM   29  C   UNK N   1      31.131  16.665   4.881  0.00  0.00     0.160 C 
HETATM   30  S   UNK N   1      29.671  17.547   5.603  0.00  0.00     0.147 S 
HETATM   31  O   UNK N   1      29.159  16.848   4.334  0.00  0.00    -0.228 OA
HETATM   32  O   UNK N   1      28.561  16.704   6.247  0.00  0.00    -0.228 OA
HETATM   33  C   UNK N   1      30.323  16.297   6.781  0.00  0.00     0.160 C 
ENDBRANCH   4  24
TORSDOF 5
ENDMDL
MODEL 7
REMARK VINA RESULT:      -8.0      4.616      9.982
REMARK  5 active torsions:
REMARK  status: ('A' for Active; 'I' for Inactive)
REMARK    1  A    between atoms: C_3  and  C_15 
REMARK    2  A    between atoms: C_4  and  C_8 
REMARK    3  A    between atoms: C_15  and  O_16 
REMARK    4  A    between atoms: O_16  and  C_17 
REMARK    5  A    between atoms: C_20  and  C_24 
REMARK       I    between atoms: C_24  and  N_26 
ROOT
HETATM    1  C   UNK N   1      32.065  17.418   6.268  0.00  0.00     0.142 A 
HETATM    2  C   UNK N   1      31.613  17.294   7.587  0.00  0.00     0.057 A 
HETATM    3  C   UNK N   1      32.543  17.108   8.619  0.00  0.00     0.022 A 
HETATM    4  C   UNK N   1      33.916  17.093   8.332  0.00  0.00     0.047 A 
HETATM    5  C   UNK N   1      34.313  17.237   6.998  0.00  0.00     0.107 A 
HETATM    6  N   UNK N   1      33.399  17.383   6.009  0.00  0.00    -0.346 N 
ATOM      7  HN  UNK N   1      33.721  17.467   5.045  1.00  0.00     0.167 HD
ENDROOT
BRANCH   1   8
HETATM    8  O   UNK N   1      31.177  17.516   5.253  0.00  0.00    -0.331 OA
BRANCH   8   9
HETATM    9  C   UNK N   1      30.833  16.400   4.519  0.00  0.00     0.221 C 
BRANCH   9  10
HETATM   10  C   UNK N   1      29.567  15.745   4.974  0.00  0.00     0.027 A 
HETATM   11  C   UNK N   1      29.279  14.399   4.976  0.00  0.00     0.083 A 
HETATM   12  C   UNK N   1      30.185  13.288   4.580  0.00  0.00     0.079 C 
HETATM   13  O   UNK N   1      28.033  14.242   5.363  0.00  0.00    -0.242 OA
HETATM   14  N   UNK N   1      27.473  15.392   5.616  0.00  0.00    -0.260 N 
HETATM   15  C   UNK N   1      28.395  16.354   5.390  0.00  0.00     0.076 A 
ATOM     16  HN  UNK N   1      26.513  15.540   5.926  1.00  0.00     0.195 HD
BRANCH  15  17
HETATM   17  C   UNK N   1      28.121  17.799   5.553  0.00  0.00    -0.007 A 
HETATM   18  C   UNK N   1      28.111  18.395   6.822  0.00  0.00     0.017 A 
HETATM   19  C   UNK N   1      27.840  19.758   6.963  0.00  0.00     0.043 A 
HETATM   20  C   UNK N   1      27.590  20.541   5.833  0.00  0.00     0.116 A 
HETATM   21  C   UNK N   1      27.603  19.958   4.563  0.00  0.00     0.043 A 
HETATM   22  F   UNK N   1      27.333  21.864   5.968  0.00  0.00    -0.206 F 
HETATM   23  C   UNK N   1      27.861  18.590   4.424  0.00  0.00     0.017 A 
ENDBRANCH  15  17
ENDBRANCH   9  10
ENDBRANCH   8   9
ENDBRANCH   1   8
BRANCH   4  24
HETATM   24  C   UNK N   1      34.924  16.866   9.416  0.00  0.00     0.255 C 
HETATM   25  O   UNK N   1      35.426  17.841   9.958  0.00  0.00    -0.267 OA
HETATM   26  N   UNK N   1      35.298  15.606   9.814  0.00  0.00    -0.346 N 
HETATM   27  C   UNK N   1      36.169  15.411  10.956  0.00  0.00     0.141 C 
HETATM   28  C   UNK N   1      34.836  14.413   9.140  0.00  0.00     0.141 C 
HETATM   29  C   UNK N   1      35.591  14.228  11.764  0.00  0.00     0.160 C 
HETATM   30  S   UNK N   1      35.946  12.627  10.901  0.00  0.00     0.147 S 
HETATM   31  O   UNK N   1      35.724  12.273  12.379  0.00  0.00    -0.228 OA
HETATM   32  O   UNK N   1      34.792  11.631  10.719  0.00  0.00    -0.228 OA
HETATM   33  C   UNK N   1      34.432  13.413  10.217  0.00  0.00     0.160 C 
ENDBRANCH   4  24
TORSDOF 5
ENDMDL
MODEL 8
REMARK VINA RESULT:      -8.0      3.646      5.660
REMARK  5 active torsions:
REMARK  status: ('A' for Active; 'I' for Inactive)
REMARK    1  A    between atoms: C_3  and  C_15 
REMARK    2  A    between atoms: C_4  and  C_8 
REMARK    3  A    between atoms: C_15  and  O_16 
REMARK    4  A    between atoms: O_16  and  C_17 
REMARK    5  A    between atoms: C_20  and  C_24 
REMARK       I    between atoms: C_24  and  N_26 
ROOT
HETATM    1  C   UNK N   1      36.683  13.031  14.352  0.00  0.00     0.142 A 
HETATM    2  C   UNK N   1      36.029  14.203  13.955  0.00  0.00     0.057 A 
HETATM    3  C   UNK N   1      36.040  14.574  12.604  0.00  0.00     0.022 A 
HETATM    4  C   UNK N   1      36.662  13.750  11.655  0.00  0.00     0.047 A 
HETATM    5  C   UNK N   1      37.288  12.581  12.104  0.00  0.00     0.107 A 
HETATM    6  N   UNK N   1      37.297  12.255  13.419  0.00  0.00    -0.346 N 
ATOM      7  HN  UNK N   1      37.778  11.407  13.717  1.00  0.00     0.167 HD
ENDROOT
BRANCH   1   8
HETATM    8  O   UNK N   1      36.752  12.703  15.662  0.00  0.00    -0.331 OA
BRANCH   8   9
HETATM    9  C   UNK N   1      35.649  12.853  16.476  0.00  0.00     0.221 C 
BRANCH   9  10
HETATM   10  C   UNK N   1      35.214  11.587  17.143  0.00  0.00     0.027 A 
HETATM   11  C   UNK N   1      35.152  11.334  18.495  0.00  0.00     0.083 A 
HETATM   12  C   UNK N   1      35.452  12.286  19.598  0.00  0.00     0.079 C 
HETATM   13  O   UNK N   1      34.810  10.078  18.668  0.00  0.00    -0.242 OA
HETATM   14  N   UNK N   1      34.641   9.478  17.524  0.00  0.00    -0.260 N 
HETATM   15  C   UNK N   1      34.878  10.381  16.548  0.00  0.00     0.076 A 
ATOM     16  HN  UNK N   1      34.378   8.502  17.388  1.00  0.00     0.195 HD
BRANCH  15  17
HETATM   17  C   UNK N   1      34.803  10.063  15.106  0.00  0.00    -0.007 A 
HETATM   18  C   UNK N   1      33.847  10.670  14.279  0.00  0.00     0.017 A 
HETATM   19  C   UNK N   1      33.779  10.352  12.921  0.00  0.00     0.043 A 
HETATM   20  C   UNK N   1      34.677   9.432  12.373  0.00  0.00     0.116 A 
HETATM   21  C   UNK N   1      35.638   8.825  13.186  0.00  0.00     0.043 A 
HETATM   22  F   UNK N   1      34.616   9.127  11.055  0.00  0.00    -0.206 F 
HETATM   23  C   UNK N   1      35.696   9.135  14.549  0.00  0.00     0.017 A 
ENDBRANCH  15  17
ENDBRANCH   9  10
ENDBRANCH   8   9
ENDBRANCH   1   8
BRANCH   4  24
HETATM   24  C   UNK N   1      36.711  14.143  10.211  0.00  0.00     0.255 C 
HETATM   25  O   UNK N   1      37.660  14.809   9.821  0.00  0.00    -0.267 OA
HETATM   26  N   UNK N   1      35.729  13.783   9.321  0.00  0.00    -0.346 N 
HETATM   27  C   UNK N   1      35.868  14.056   7.905  0.00  0.00     0.141 C 
HETATM   28  C   UNK N   1      34.523  13.099   9.735  0.00  0.00     0.141 C 
HETATM   29  C   UNK N   1      35.385  12.795   7.156  0.00  0.00     0.160 C 
HETATM   30  S   UNK N   1      33.536  12.683   7.210  0.00  0.00     0.147 S 
HETATM   31  O   UNK N   1      33.974  11.859   5.990  0.00  0.00    -0.228 OA
HETATM   32  O   UNK N   1      32.903  11.342   7.609  0.00  0.00    -0.228 OA
HETATM   33  C   UNK N   1      34.275  11.975   8.737  0.00  0.00     0.160 C 
ENDBRANCH   4  24
TORSDOF 5
ENDMDL
MODEL 9
REMARK VINA RESULT:      -8.0      5.698     10.846
REMARK  5 active torsions:
REMARK  status: ('A' for Active; 'I' for Inactive)
REMARK    1  A    between atoms: C_3  and  C_15 
REMARK    2  A    between atoms: C_4  and  C_8 
REMARK    3  A    between atoms: C_15  and  O_16 
REMARK    4  A    between atoms: O_16  and  C_17 
REMARK    5  A    between atoms: C_20  and  C_24 
REMARK       I    between atoms: C_24  and  N_26 
ROOT
HETATM    1  C   UNK N   1      31.770  16.626   6.244  0.00  0.00     0.142 A 
HETATM    2  C   UNK N   1      31.827  15.229   6.168  0.00  0.00     0.057 A 
HETATM    3  C   UNK N   1      32.965  14.560   6.635  0.00  0.00     0.022 A 
HETATM    4  C   UNK N   1      34.017  15.284   7.215  0.00  0.00     0.047 A 
HETATM    5  C   UNK N   1      33.902  16.677   7.280  0.00  0.00     0.107 A 
HETATM    6  N   UNK N   1      32.808  17.311   6.793  0.00  0.00    -0.346 N 
ATOM      7  HN  UNK N   1      32.763  18.329   6.838  1.00  0.00     0.167 HD
ENDROOT
BRANCH   1   8
HETATM    8  O   UNK N   1      30.714  17.291   5.723  0.00  0.00    -0.331 OA
BRANCH   8   9
HETATM    9  C   UNK N   1      29.428  16.944   6.079  0.00  0.00     0.221 C 
BRANCH   9  10
HETATM   10  C   UNK N   1      28.814  17.859   7.091  0.00  0.00     0.027 A 
HETATM   11  C   UNK N   1      29.053  17.886   8.447  0.00  0.00     0.083 A 
HETATM   12  C   UNK N   1      30.022  17.047   9.202  0.00  0.00     0.079 C 
HETATM   13  O   UNK N   1      28.249  18.769   8.993  0.00  0.00    -0.242 OA
HETATM   14  N   UNK N   1      27.490  19.331   8.094  0.00  0.00    -0.260 N 
HETATM   15  C   UNK N   1      27.812  18.796   6.896  0.00  0.00     0.076 A 
ATOM     16  HN  UNK N   1      26.781  20.043   8.263  1.00  0.00     0.195 HD
BRANCH  15  17
HETATM   17  C   UNK N   1      27.145  19.172   5.630  0.00  0.00    -0.007 A 
HETATM   18  C   UNK N   1      27.547  20.307   4.910  0.00  0.00     0.017 A 
HETATM   19  C   UNK N   1      26.901  20.657   3.722  0.00  0.00     0.043 A 
HETATM   20  C   UNK N   1      25.856  19.868   3.235  0.00  0.00     0.116 A 
HETATM   21  C   UNK N   1      25.451  18.733   3.942  0.00  0.00     0.043 A 
HETATM   22  F   UNK N   1      25.233  20.205   2.080  0.00  0.00    -0.206 F 
HETATM   23  C   UNK N   1      26.089  18.390   5.139  0.00  0.00     0.017 A 
ENDBRANCH  15  17
ENDBRANCH   9  10
ENDBRANCH   8   9
ENDBRANCH   1   8
BRANCH   4  24
HETATM   24  C   UNK N   1      35.255  14.591   7.693  0.00  0.00     0.255 C 
HETATM   25  O   UNK N   1      36.211  14.518   6.933  0.00  0.00    -0.267 OA
HETATM   26  N   UNK N   1      35.347  14.037   8.946  0.00  0.00    -0.346 N 
HETATM   27  C   UNK N   1      36.599  13.496   9.434  0.00  0.00     0.141 C 
HETATM   28  C   UNK N   1      34.219  13.982   9.851  0.00  0.00     0.141 C 
HETATM   29  C   UNK N   1      36.747  13.959  10.900  0.00  0.00     0.160 C 
HETATM   30  S   UNK N   1      35.610  12.991  11.997  0.00  0.00     0.147 S 
HETATM   31  O   UNK N   1      36.732  13.516  12.906  0.00  0.00    -0.228 OA
HETATM   32  O   UNK N   1      34.740  13.763  12.999  0.00  0.00    -0.228 OA
HETATM   33  C   UNK N   1      34.723  14.404  11.226  0.00  0.00     0.160 C 
ENDBRANCH   4  24
TORSDOF 5
ENDMDL
