MODEL 1
REMARK VINA RESULT:      -7.0      0.000      0.000
REMARK  7 active torsions:
REMARK  status: ('A' for Active; 'I' for Inactive)
REMARK    1  A    between atoms: C_3  and  C_9 
REMARK    2  A    between atoms: C_11  and  C_15 
REMARK       I    between atoms: C_15  and  N_17 
REMARK    3  A    between atoms: C_18  and  N_17 
REMARK    4  A    between atoms: C_18  and  C_19 
REMARK    5  A    between atoms: C_18  and  C_28 
REMARK    6  A    between atoms: C_19  and  C_20 
REMARK    7  A    between atoms: C_28  and  N_29 
ROOT
HETATM    1  C   UNK N   1      29.974  18.235   9.310  0.00  0.00     0.275 C 
HETATM    2  O   UNK N   1      29.716  19.007  10.220  0.00  0.00    -0.265 OA
HETATM    3  N   UNK N   1      31.185  17.615   9.304  0.00  0.00    -0.349 N 
HETATM    4  H   UNK N   1      31.831  17.857  10.006  0.00  0.00     0.163 HD
ENDROOT
BRANCH   1   5
HETATM    5  C   UNK N   1      28.937  17.980   8.280  0.00  0.00     0.145 A 
HETATM    6  C   UNK N   1      28.552  18.832   7.269  0.00  0.00     0.060 A 
HETATM    7  C   UNK N   1      27.558  18.179   6.566  0.00  0.00     0.043 A 
HETATM    8  C   UNK N   1      27.407  16.942   7.206  0.00  0.00     0.158 A 
HETATM    9  O   UNK N   1      28.237  16.876   8.220  0.00  0.00    -0.292 OA
HETATM   10 Cl   UNK N   1      26.310  15.622   6.877  0.00  0.00    -0.056 Cl
BRANCH   7  11
HETATM   11  C   UNK N   1      26.867  18.822   5.394  0.00  0.00     0.087 A 
HETATM   12  N   UNK N   1      26.401  20.097   5.419  0.00  0.00    -0.294 N 
HETATM   13  C   UNK N   1      26.454  21.054   6.515  0.00  0.00     0.178 C 
HETATM   14  N   UNK N   1      25.837  20.396   4.263  0.00  0.00    -0.308 N 
HETATM   15  C   UNK N   1      25.925  19.330   3.449  0.00  0.00     0.133 A 
ATOM     16  HN  UNK N   1      25.405  21.290   4.026  1.00  0.00     0.186 HD
HETATM   17  C   UNK N   1      26.569  18.312   4.128  0.00  0.00     0.080 A 
HETATM   18 Cl   UNK N   1      26.906  16.774   3.369  0.00  0.00    -0.080 Cl
ENDBRANCH   7  11
ENDBRANCH   1   5
BRANCH   3  19
HETATM   19  C   UNK N   1      31.580  16.624   8.329  0.00  0.00     0.106 C 
BRANCH  19  20
HETATM   20  C   UNK N   1      32.218  17.256   7.086  0.00  0.00     0.065 C 
BRANCH  20  21
HETATM   21  C   UNK N   1      31.607  16.804   5.799  0.00  0.00    -0.053 A 
HETATM   22  C   UNK N   1      30.556  15.881   5.817  0.00  0.00     0.010 A 
HETATM   23  C   UNK N   1      29.988  15.441   4.617  0.00  0.00     0.046 A 
HETATM   24  C   UNK N   1      30.473  15.922   3.397  0.00  0.00     0.154 A 
HETATM   25  C   UNK N   1      31.522  16.848   3.378  0.00  0.00     0.155 A 
HETATM   26  F   UNK N   1      29.926  15.489   2.236  0.00  0.00    -0.203 F 
HETATM   27  C   UNK N   1      32.083  17.291   4.576  0.00  0.00     0.052 A 
HETATM   28  F   UNK N   1      32.001  17.315   2.199  0.00  0.00    -0.203 F 
ENDBRANCH  20  21
ENDBRANCH  19  20
BRANCH  19  29
HETATM   29  C   UNK N   1      32.409  15.510   8.972  0.00  0.00     0.136 C 
BRANCH  29  30
HETATM   30  N   UNK N   1      31.888  15.144  10.281  0.00  0.00    -0.428 N 
HETATM   31  H   UNK N   1      32.401  14.559  10.940  0.00  0.00     0.149 HD
HETATM   32  H   UNK N   1      30.968  15.488  10.551  0.00  0.00     0.149 HD
ENDBRANCH  29  30
ENDBRANCH  19  29
ENDBRANCH   3  19
TORSDOF 7
ENDMDL
MODEL 2
REMARK VINA RESULT:      -6.9      3.377      6.495
REMARK  7 active torsions:
REMARK  status: ('A' for Active; 'I' for Inactive)
REMARK    1  A    between atoms: C_3  and  C_9 
REMARK    2  A    between atoms: C_11  and  C_15 
REMARK       I    between atoms: C_15  and  N_17 
REMARK    3  A    between atoms: C_18  and  N_17 
REMARK    4  A    between atoms: C_18  and  C_19 
REMARK    5  A    between atoms: C_18  and  C_28 
REMARK    6  A    between atoms: C_19  and  C_20 
REMARK    7  A    between atoms: C_28  and  N_29 
ROOT
HETATM    1  C   UNK N   1      28.363  17.954   8.727  0.00  0.00     0.275 C 
HETATM    2  O   UNK N   1      28.004  17.387   9.746  0.00  0.00    -0.265 OA
HETATM    3  N   UNK N   1      27.513  18.838   8.138  0.00  0.00    -0.349 N 
HETATM    4  H   UNK N   1      26.615  18.944   8.526  0.00  0.00     0.163 HD
ENDROOT
BRANCH   1   5
HETATM    5  C   UNK N   1      29.726  17.684   8.208  0.00  0.00     0.145 A 
HETATM    6  C   UNK N   1      30.072  16.773   7.234  0.00  0.00     0.060 A 
HETATM    7  C   UNK N   1      31.443  16.863   7.085  0.00  0.00     0.043 A 
HETATM    8  C   UNK N   1      31.847  17.851   7.991  0.00  0.00     0.158 A 
HETATM    9  O   UNK N   1      30.798  18.298   8.640  0.00  0.00    -0.292 OA
HETATM   10 Cl   UNK N   1      33.441  18.463   8.364  0.00  0.00    -0.056 Cl
BRANCH   7  11
HETATM   11  C   UNK N   1      32.191  15.986   6.117  0.00  0.00     0.087 A 
HETATM   12  N   UNK N   1      32.717  14.783   6.465  0.00  0.00    -0.294 N 
HETATM   13  C   UNK N   1      32.684  14.128   7.764  0.00  0.00     0.178 C 
HETATM   14  N   UNK N   1      33.322  14.236   5.426  0.00  0.00    -0.308 N 
HETATM   15  C   UNK N   1      33.201  15.060   4.371  0.00  0.00     0.133 A 
ATOM     16  HN  UNK N   1      33.801  13.336   5.425  1.00  0.00     0.186 HD
HETATM   17  C   UNK N   1      32.494  16.180   4.767  0.00  0.00     0.080 A 
HETATM   18 Cl   UNK N   1      32.100  17.461   3.645  0.00  0.00    -0.080 Cl
ENDBRANCH   7  11
ENDBRANCH   1   5
BRANCH   3  19
HETATM   19  C   UNK N   1      27.850  19.629   6.976  0.00  0.00     0.106 C 
BRANCH  19  20
HETATM   20  C   UNK N   1      27.745  18.823   5.676  0.00  0.00     0.065 C 
BRANCH  20  21
HETATM   21  C   UNK N   1      26.651  19.285   4.767  0.00  0.00    -0.053 A 
HETATM   22  C   UNK N   1      26.941  20.186   3.737  0.00  0.00     0.010 A 
HETATM   23  C   UNK N   1      25.922  20.636   2.892  0.00  0.00     0.046 A 
HETATM   24  C   UNK N   1      24.611  20.187   3.077  0.00  0.00     0.154 A 
HETATM   25  C   UNK N   1      24.320  19.282   4.106  0.00  0.00     0.155 A 
HETATM   26  F   UNK N   1      23.624  20.629   2.261  0.00  0.00    -0.203 F 
HETATM   27  C   UNK N   1      25.339  18.830   4.944  0.00  0.00     0.052 A 
HETATM   28  F   UNK N   1      23.051  18.846   4.294  0.00  0.00    -0.203 F 
ENDBRANCH  20  21
ENDBRANCH  19  20
BRANCH  19  29
HETATM   29  C   UNK N   1      27.084  20.954   6.966  0.00  0.00     0.136 C 
BRANCH  29  30
HETATM   30  N   UNK N   1      26.016  20.962   7.953  0.00  0.00    -0.428 N 
HETATM   31  H   UNK N   1      25.373  21.745   8.071  0.00  0.00     0.149 HD
HETATM   32  H   UNK N   1      25.905  20.148   8.555  0.00  0.00     0.149 HD
ENDBRANCH  29  30
ENDBRANCH  19  29
ENDBRANCH   3  19
TORSDOF 7
ENDMDL
MODEL 3
REMARK VINA RESULT:      -6.9      3.068      4.059
REMARK  7 active torsions:
REMARK  status: ('A' for Active; 'I' for Inactive)
REMARK    1  A    between atoms: C_3  and  C_9 
REMARK    2  A    between atoms: C_11  and  C_15 
REMARK       I    between atoms: C_15  and  N_17 
REMARK    3  A    between atoms: C_18  and  N_17 
REMARK    4  A    between atoms: C_18  and  C_19 
REMARK    5  A    between atoms: C_18  and  C_28 
REMARK    6  A    between atoms: C_19  and  C_20 
REMARK    7  A    between atoms: C_28  and  N_29 
ROOT
HETATM    1  C   UNK N   1      34.388  17.965   8.209  0.00  0.00     0.275 C 
HETATM    2  O   UNK N   1      34.802  19.108   8.311  0.00  0.00    -0.265 OA
HETATM    3  N   UNK N   1      35.003  16.982   8.920  0.00  0.00    -0.349 N 
HETATM    4  H   UNK N   1      35.798  17.222   9.449  0.00  0.00     0.163 HD
ENDROOT
BRANCH   1   5
HETATM    5  C   UNK N   1      33.207  17.712   7.347  0.00  0.00     0.145 A 
HETATM    6  C   UNK N   1      31.913  17.492   7.766  0.00  0.00     0.060 A 
HETATM    7  C   UNK N   1      31.161  17.299   6.623  0.00  0.00     0.043 A 
HETATM    8  C   UNK N   1      32.066  17.426   5.562  0.00  0.00     0.158 A 
HETATM    9  O   UNK N   1      33.265  17.659   6.041  0.00  0.00    -0.292 OA
HETATM   10 Cl   UNK N   1      31.820  17.272   3.838  0.00  0.00    -0.056 Cl
BRANCH   7  11
HETATM   11  C   UNK N   1      29.687  16.998   6.689  0.00  0.00     0.087 A 
HETATM   12  N   UNK N   1      28.841  17.636   7.538  0.00  0.00    -0.294 N 
HETATM   13  C   UNK N   1      29.153  18.671   8.512  0.00  0.00     0.178 C 
HETATM   14  N   UNK N   1      27.614  17.171   7.387  0.00  0.00    -0.308 N 
HETATM   15  C   UNK N   1      27.623  16.225   6.432  0.00  0.00     0.133 A 
ATOM     16  HN  UNK N   1      26.794  17.480   7.910  1.00  0.00     0.186 HD
HETATM   17  C   UNK N   1      28.917  16.084   5.966  0.00  0.00     0.080 A 
HETATM   18 Cl   UNK N   1      29.312  14.969   4.680  0.00  0.00    -0.080 Cl
ENDBRANCH   7  11
ENDBRANCH   1   5
BRANCH   3  19
HETATM   19  C   UNK N   1      34.560  15.606   8.945  0.00  0.00     0.106 C 
BRANCH  19  20
HETATM   20  C   UNK N   1      35.265  14.751   7.886  0.00  0.00     0.065 C 
BRANCH  20  21
HETATM   21  C   UNK N   1      34.417  14.452   6.691  0.00  0.00    -0.053 A 
HETATM   22  C   UNK N   1      33.133  13.927   6.866  0.00  0.00     0.010 A 
HETATM   23  C   UNK N   1      32.339  13.631   5.754  0.00  0.00     0.046 A 
HETATM   24  C   UNK N   1      32.830  13.857   4.465  0.00  0.00     0.154 A 
HETATM   25  C   UNK N   1      34.114  14.386   4.288  0.00  0.00     0.155 A 
HETATM   26  F   UNK N   1      32.061  13.562   3.389  0.00  0.00    -0.203 F 
HETATM   27  C   UNK N   1      34.903  14.687   5.398  0.00  0.00     0.052 A 
HETATM   28  F   UNK N   1      34.599  14.603   3.041  0.00  0.00    -0.203 F 
ENDBRANCH  20  21
ENDBRANCH  19  20
BRANCH  19  29
HETATM   29  C   UNK N   1      34.612  15.032  10.363  0.00  0.00     0.136 C 
BRANCH  29  30
HETATM   30  N   UNK N   1      33.285  14.946  10.954  0.00  0.00    -0.428 N 
HETATM   31  H   UNK N   1      33.099  15.151  11.935  0.00  0.00     0.149 HD
HETATM   32  H   UNK N   1      32.506  14.666  10.360  0.00  0.00     0.149 HD
ENDBRANCH  29  30
ENDBRANCH  19  29
ENDBRANCH   3  19
TORSDOF 7
ENDMDL
MODEL 4
REMARK VINA RESULT:      -6.8      2.945      6.234
REMARK  7 active torsions:
REMARK  status: ('A' for Active; 'I' for Inactive)
REMARK    1  A    between atoms: C_3  and  C_9 
REMARK    2  A    between atoms: C_11  and  C_15 
REMARK       I    between atoms: C_15  and  N_17 
REMARK    3  A    between atoms: C_18  and  N_17 
REMARK    4  A    between atoms: C_18  and  C_19 
REMARK    5  A    between atoms: C_18  and  C_28 
REMARK    6  A    between atoms: C_19  and  C_20 
REMARK    7  A    between atoms: C_28  and  N_29 
ROOT
HETATM    1  C   UNK N   1      29.509  17.374   9.029  0.00  0.00     0.275 C 
HETATM    2  O   UNK N   1      29.121  17.287  10.183  0.00  0.00    -0.265 OA
HETATM    3  N   UNK N   1      28.607  17.687   8.060  0.00  0.00    -0.349 N 
HETATM    4  H   UNK N   1      27.662  17.777   8.319  0.00  0.00     0.163 HD
ENDROOT
BRANCH   1   5
HETATM    5  C   UNK N   1      30.952  17.176   8.749  0.00  0.00     0.145 A 
HETATM    6  C   UNK N   1      31.609  15.972   8.622  0.00  0.00     0.060 A 
HETATM    7  C   UNK N   1      32.934  16.275   8.372  0.00  0.00     0.043 A 
HETATM    8  C   UNK N   1      32.994  17.675   8.354  0.00  0.00     0.158 A 
HETATM    9  O   UNK N   1      31.799  18.161   8.593  0.00  0.00    -0.292 OA
HETATM   10 Cl   UNK N   1      34.353  18.749   8.127  0.00  0.00    -0.056 Cl
BRANCH   7  11
HETATM   11  C   UNK N   1      33.973  15.199   8.204  0.00  0.00     0.087 A 
HETATM   12  N   UNK N   1      35.033  15.059   9.041  0.00  0.00    -0.294 N 
HETATM   13  C   UNK N   1      35.380  15.870  10.199  0.00  0.00     0.178 C 
HETATM   14  N   UNK N   1      35.783  14.042   8.655  0.00  0.00    -0.308 N 
HETATM   15  C   UNK N   1      35.231  13.487   7.563  0.00  0.00     0.133 A 
ATOM     16  HN  UNK N   1      36.641  13.731   9.111  1.00  0.00     0.186 HD
HETATM   17  C   UNK N   1      34.085  14.191   7.244  0.00  0.00     0.080 A 
HETATM   18 Cl   UNK N   1      33.068  13.729   5.899  0.00  0.00    -0.080 Cl
ENDBRANCH   7  11
ENDBRANCH   1   5
BRANCH   3  19
HETATM   19  C   UNK N   1      28.954  17.896   6.672  0.00  0.00     0.106 C 
BRANCH  19  20
HETATM   20  C   UNK N   1      29.043  16.578   5.893  0.00  0.00     0.065 C 
BRANCH  20  21
HETATM   21  C   UNK N   1      30.236  16.488   4.996  0.00  0.00    -0.053 A 
HETATM   22  C   UNK N   1      30.280  15.509   3.997  0.00  0.00     0.010 A 
HETATM   23  C   UNK N   1      31.398  15.408   3.164  0.00  0.00     0.046 A 
HETATM   24  C   UNK N   1      32.475  16.284   3.329  0.00  0.00     0.154 A 
HETATM   25  C   UNK N   1      32.431  17.267   4.326  0.00  0.00     0.155 A 
HETATM   26  F   UNK N   1      33.560  16.180   2.525  0.00  0.00    -0.203 F 
HETATM   27  C   UNK N   1      31.312  17.370   5.153  0.00  0.00     0.052 A 
HETATM   28  F   UNK N   1      33.473  18.116   4.496  0.00  0.00    -0.203 F 
ENDBRANCH  20  21
ENDBRANCH  19  20
BRANCH  19  29
HETATM   29  C   UNK N   1      28.057  18.955   6.028  0.00  0.00     0.136 C 
BRANCH  29  30
HETATM   30  N   UNK N   1      27.199  19.599   7.012  0.00  0.00    -0.428 N 
HETATM   31  H   UNK N   1      27.312  19.471   8.017  0.00  0.00     0.149 HD
HETATM   32  H   UNK N   1      26.451  20.207   6.681  0.00  0.00     0.149 HD
ENDBRANCH  29  30
ENDBRANCH  19  29
ENDBRANCH   3  19
TORSDOF 7
ENDMDL
MODEL 5
REMARK VINA RESULT:      -6.8      3.738      5.163
REMARK  7 active torsions:
REMARK  status: ('A' for Active; 'I' for Inactive)
REMARK    1  A    between atoms: C_3  and  C_9 
REMARK    2  A    between atoms: C_11  and  C_15 
REMARK       I    between atoms: C_15  and  N_17 
REMARK    3  A    between atoms: C_18  and  N_17 
REMARK    4  A    between atoms: C_18  and  C_19 
REMARK    5  A    between atoms: C_18  and  C_28 
REMARK    6  A    between atoms: C_19  and  C_20 
REMARK    7  A    between atoms: C_28  and  N_29 
ROOT
HETATM    1  C   UNK N   1      34.637  18.189   8.387  0.00  0.00     0.275 C 
HETATM    2  O   UNK N   1      34.993  19.355   8.455  0.00  0.00    -0.265 OA
HETATM    3  N   UNK N   1      35.142  17.300   9.284  0.00  0.00    -0.349 N 
HETATM    4  H   UNK N   1      35.820  17.620   9.921  0.00  0.00     0.163 HD
ENDROOT
BRANCH   1   5
HETATM    5  C   UNK N   1      33.639  17.810   7.357  0.00  0.00     0.145 A 
HETATM    6  C   UNK N   1      32.340  17.408   7.577  0.00  0.00     0.060 A 
HETATM    7  C   UNK N   1      31.795  17.154   6.332  0.00  0.00     0.043 A 
HETATM    8  C   UNK N   1      32.819  17.432   5.418  0.00  0.00     0.158 A 
HETATM    9  O   UNK N   1      33.893  17.806   6.073  0.00  0.00    -0.292 OA
HETATM   10 Cl   UNK N   1      32.850  17.302   3.676  0.00  0.00    -0.056 Cl
BRANCH   7  11
HETATM   11  C   UNK N   1      30.382  16.660   6.175  0.00  0.00     0.087 A 
HETATM   12  N   UNK N   1      30.073  15.487   5.564  0.00  0.00    -0.294 N 
HETATM   13  C   UNK N   1      30.979  14.521   4.959  0.00  0.00     0.178 C 
HETATM   14  N   UNK N   1      28.764  15.309   5.562  0.00  0.00    -0.308 N 
HETATM   15  C   UNK N   1      28.184  16.354   6.176  0.00  0.00     0.133 A 
ATOM     16  HN  UNK N   1      28.275  14.509   5.159  1.00  0.00     0.186 HD
HETATM   17  C   UNK N   1      29.173  17.232   6.577  0.00  0.00     0.080 A 
HETATM   18 Cl   UNK N   1      28.798  18.697   7.455  0.00  0.00    -0.080 Cl
ENDBRANCH   7  11
ENDBRANCH   1   5
BRANCH   3  19
HETATM   19  C   UNK N   1      34.741  15.912   9.359  0.00  0.00     0.106 C 
BRANCH  19  20
HETATM   20  C   UNK N   1      35.759  14.979   8.693  0.00  0.00     0.065 C 
BRANCH  20  21
HETATM   21  C   UNK N   1      35.277  14.376   7.413  0.00  0.00    -0.053 A 
HETATM   22  C   UNK N   1      35.714  14.901   6.192  0.00  0.00     0.010 A 
HETATM   23  C   UNK N   1      35.256  14.354   4.990  0.00  0.00     0.046 A 
HETATM   24  C   UNK N   1      34.359  13.282   5.007  0.00  0.00     0.154 A 
HETATM   25  C   UNK N   1      33.924  12.753   6.228  0.00  0.00     0.155 A 
HETATM   26  F   UNK N   1      33.912  12.757   3.841  0.00  0.00    -0.203 F 
HETATM   27  C   UNK N   1      34.386  13.296   7.427  0.00  0.00     0.052 A 
HETATM   28  F   UNK N   1      33.051  11.717   6.253  0.00  0.00    -0.203 F 
ENDBRANCH  20  21
ENDBRANCH  19  20
BRANCH  19  29
HETATM   29  C   UNK N   1      34.358  15.520  10.788  0.00  0.00     0.136 C 
BRANCH  29  30
HETATM   30  N   UNK N   1      33.026  14.938  10.844  0.00  0.00    -0.428 N 
HETATM   31  H   UNK N   1      32.450  14.946  11.686  0.00  0.00     0.149 HD
HETATM   32  H   UNK N   1      32.650  14.502  10.003  0.00  0.00     0.149 HD
ENDBRANCH  29  30
ENDBRANCH  19  29
ENDBRANCH   3  19
TORSDOF 7
ENDMDL
MODEL 6
REMARK VINA RESULT:      -6.7      7.385     10.014
REMARK  7 active torsions:
REMARK  status: ('A' for Active; 'I' for Inactive)
REMARK    1  A    between atoms: C_3  and  C_9 
REMARK    2  A    between atoms: C_11  and  C_15 
REMARK       I    between atoms: C_15  and  N_17 
REMARK    3  A    between atoms: C_18  and  N_17 
REMARK    4  A    between atoms: C_18  and  C_19 
REMARK    5  A    between atoms: C_18  and  C_28 
REMARK    6  A    between atoms: C_19  and  C_20 
REMARK    7  A    between atoms: C_28  and  N_29 
ROOT
HETATM    1  C   UNK N   1      19.955  15.670   6.932  0.00  0.00     0.275 C 
HETATM    2  O   UNK N   1      18.911  16.025   7.455  0.00  0.00    -0.265 OA
HETATM    3  N   UNK N   1      20.420  16.370   5.862  0.00  0.00    -0.349 N 
HETATM    4  H   UNK N   1      19.866  17.105   5.515  0.00  0.00     0.163 HD
ENDROOT
BRANCH   1   5
HETATM    5  C   UNK N   1      20.686  14.518   7.517  0.00  0.00     0.145 A 
HETATM    6  C   UNK N   1      21.153  14.408   8.808  0.00  0.00     0.060 A 
HETATM    7  C   UNK N   1      21.771  13.176   8.895  0.00  0.00     0.043 A 
HETATM    8  C   UNK N   1      21.628  12.602   7.625  0.00  0.00     0.158 A 
HETATM    9  O   UNK N   1      20.990  13.439   6.842  0.00  0.00    -0.292 OA
HETATM   10 Cl   UNK N   1      22.194  11.070   7.003  0.00  0.00    -0.056 Cl
BRANCH   7  11
HETATM   11  C   UNK N   1      22.434  12.712  10.164  0.00  0.00     0.087 A 
HETATM   12  N   UNK N   1      23.781  12.712  10.337  0.00  0.00    -0.294 N 
HETATM   13  C   UNK N   1      24.810  13.122   9.391  0.00  0.00     0.178 C 
HETATM   14  N   UNK N   1      24.085  12.251  11.536  0.00  0.00    -0.308 N 
HETATM   15  C   UNK N   1      22.946  11.945  12.183  0.00  0.00     0.133 A 
ATOM     16  HN  UNK N   1      25.028  12.145  11.911  1.00  0.00     0.186 HD
HETATM   17  C   UNK N   1      21.879  12.221  11.349  0.00  0.00     0.080 A 
HETATM   18 Cl   UNK N   1      20.226  11.989  11.866  0.00  0.00    -0.080 Cl
ENDBRANCH   7  11
ENDBRANCH   1   5
BRANCH   3  19
HETATM   19  C   UNK N   1      21.680  16.098   5.206  0.00  0.00     0.106 C 
BRANCH  19  20
HETATM   20  C   UNK N   1      21.599  16.309   3.690  0.00  0.00     0.065 C 
BRANCH  20  21
HETATM   21  C   UNK N   1      21.341  17.728   3.292  0.00  0.00    -0.053 A 
HETATM   22  C   UNK N   1      20.060  18.109   2.878  0.00  0.00     0.010 A 
HETATM   23  C   UNK N   1      19.814  19.429   2.490  0.00  0.00     0.046 A 
HETATM   24  C   UNK N   1      20.848  20.370   2.512  0.00  0.00     0.154 A 
HETATM   25  C   UNK N   1      22.130  19.990   2.930  0.00  0.00     0.155 A 
HETATM   26  F   UNK N   1      20.609  21.647   2.129  0.00  0.00    -0.203 F 
HETATM   27  C   UNK N   1      22.373  18.674   3.323  0.00  0.00     0.052 A 
HETATM   28  F   UNK N   1      23.139  20.895   2.950  0.00  0.00    -0.203 F 
ENDBRANCH  20  21
ENDBRANCH  19  20
BRANCH  19  29
HETATM   29  C   UNK N   1      22.833  16.836   5.890  0.00  0.00     0.136 C 
BRANCH  29  30
HETATM   30  N   UNK N   1      23.851  15.912   6.367  0.00  0.00    -0.428 N 
HETATM   31  H   UNK N   1      23.798  15.445   7.272  0.00  0.00     0.149 HD
HETATM   32  H   UNK N   1      24.654  15.724   5.770  0.00  0.00     0.149 HD
ENDBRANCH  29  30
ENDBRANCH  19  29
ENDBRANCH   3  19
TORSDOF 7
ENDMDL
MODEL 7
REMARK VINA RESULT:      -6.6      4.551      7.785
REMARK  7 active torsions:
REMARK  status: ('A' for Active; 'I' for Inactive)
REMARK    1  A    between atoms: C_3  and  C_9 
REMARK    2  A    between atoms: C_11  and  C_15 
REMARK       I    between atoms: C_15  and  N_17 
REMARK    3  A    between atoms: C_18  and  N_17 
REMARK    4  A    between atoms: C_18  and  C_19 
REMARK    5  A    between atoms: C_18  and  C_28 
REMARK    6  A    between atoms: C_19  and  C_20 
REMARK    7  A    between atoms: C_28  and  N_29 
ROOT
HETATM    1  C   UNK N   1      32.398  16.463   3.632  0.00  0.00     0.275 C 
HETATM    2  O   UNK N   1      32.955  16.720   2.577  0.00  0.00    -0.265 OA
HETATM    3  N   UNK N   1      31.073  16.153   3.613  0.00  0.00    -0.349 N 
HETATM    4  H   UNK N   1      30.600  16.203   2.751  0.00  0.00     0.163 HD
ENDROOT
BRANCH   1   5
HETATM    5  C   UNK N   1      33.204  16.460   4.878  0.00  0.00     0.145 A 
HETATM    6  C   UNK N   1      33.838  15.377   5.446  0.00  0.00     0.060 A 
HETATM    7  C   UNK N   1      34.454  15.843   6.592  0.00  0.00     0.043 A 
HETATM    8  C   UNK N   1      34.154  17.210   6.640  0.00  0.00     0.158 A 
HETATM    9  O   UNK N   1      33.403  17.525   5.611  0.00  0.00    -0.292 OA
HETATM   10 Cl   UNK N   1      34.577  18.423   7.826  0.00  0.00    -0.056 Cl
BRANCH   7  11
HETATM   11  C   UNK N   1      35.228  14.927   7.501  0.00  0.00     0.087 A 
HETATM   12  N   UNK N   1      36.358  14.282   7.112  0.00  0.00    -0.294 N 
HETATM   13  C   UNK N   1      37.017  14.323   5.814  0.00  0.00     0.178 C 
HETATM   14  N   UNK N   1      36.823  13.544   8.104  0.00  0.00    -0.308 N 
HETATM   15  C   UNK N   1      36.016  13.692   9.168  0.00  0.00     0.133 A 
ATOM     16  HN  UNK N   1      37.657  12.957   8.067  1.00  0.00     0.186 HD
HETATM   17  C   UNK N   1      34.994  14.558   8.828  0.00  0.00     0.080 A 
HETATM   18 Cl   UNK N   1      33.768  15.029   9.981  0.00  0.00    -0.080 Cl
ENDBRANCH   7  11
ENDBRANCH   1   5
BRANCH   3  19
HETATM   19  C   UNK N   1      30.320  15.754   4.781  0.00  0.00     0.106 C 
BRANCH  19  20
HETATM   20  C   UNK N   1      29.221  16.764   5.132  0.00  0.00     0.065 C 
BRANCH  20  21
HETATM   21  C   UNK N   1      29.363  17.358   6.497  0.00  0.00    -0.053 A 
HETATM   22  C   UNK N   1      28.301  18.081   7.052  0.00  0.00     0.010 A 
HETATM   23  C   UNK N   1      28.431  18.652   8.321  0.00  0.00     0.046 A 
HETATM   24  C   UNK N   1      29.624  18.506   9.036  0.00  0.00     0.154 A 
HETATM   25  C   UNK N   1      30.686  17.780   8.483  0.00  0.00     0.155 A 
HETATM   26  F   UNK N   1      29.749  19.066  10.262  0.00  0.00    -0.203 F 
HETATM   27  C   UNK N   1      30.553  17.204   7.219  0.00  0.00     0.052 A 
HETATM   28  F   UNK N   1      31.846  17.637   9.167  0.00  0.00    -0.203 F 
ENDBRANCH  20  21
ENDBRANCH  19  20
BRANCH  19  29
HETATM   29  C   UNK N   1      29.840  14.306   4.665  0.00  0.00     0.136 C 
BRANCH  29  30
HETATM   30  N   UNK N   1      30.742  13.387   5.342  0.00  0.00    -0.428 N 
HETATM   31  H   UNK N   1      31.509  12.910   4.869  0.00  0.00     0.149 HD
HETATM   32  H   UNK N   1      30.600  13.212   6.336  0.00  0.00     0.149 HD
ENDBRANCH  29  30
ENDBRANCH  19  29
ENDBRANCH   3  19
TORSDOF 7
ENDMDL
MODEL 8
REMARK VINA RESULT:      -6.6      4.860      8.202
REMARK  7 active torsions:
REMARK  status: ('A' for Active; 'I' for Inactive)
REMARK    1  A    between atoms: C_3  and  C_9 
REMARK    2  A    between atoms: C_11  and  C_15 
REMARK       I    between atoms: C_15  and  N_17 
REMARK    3  A    between atoms: C_18  and  N_17 
REMARK    4  A    between atoms: C_18  and  C_19 
REMARK    5  A    between atoms: C_18  and  C_28 
REMARK    6  A    between atoms: C_19  and  C_20 
REMARK    7  A    between atoms: C_28  and  N_29 
ROOT
HETATM    1  C   UNK N   1      22.063  18.164   5.196  0.00  0.00     0.275 C 
HETATM    2  O   UNK N   1      21.913  18.358   6.391  0.00  0.00    -0.265 OA
HETATM    3  N   UNK N   1      21.004  17.719   4.468  0.00  0.00    -0.349 N 
HETATM    4  H   UNK N   1      20.168  17.516   4.946  0.00  0.00     0.163 HD
ENDROOT
BRANCH   1   5
HETATM    5  C   UNK N   1      23.383  18.465   4.589  0.00  0.00     0.145 A 
HETATM    6  C   UNK N   1      24.547  17.746   4.749  0.00  0.00     0.060 A 
HETATM    7  C   UNK N   1      25.514  18.400   4.009  0.00  0.00     0.043 A 
HETATM    8  C   UNK N   1      24.857  19.492   3.428  0.00  0.00     0.158 A 
HETATM    9  O   UNK N   1      23.601  19.494   3.810  0.00  0.00    -0.292 OA
HETATM   10 Cl   UNK N   1      25.466  20.763   2.394  0.00  0.00    -0.056 Cl
BRANCH   7  11
HETATM   11  C   UNK N   1      26.938  17.915   3.966  0.00  0.00     0.087 A 
HETATM   12  N   UNK N   1      27.951  18.539   4.622  0.00  0.00    -0.294 N 
HETATM   13  C   UNK N   1      27.887  19.738   5.445  0.00  0.00     0.178 C 
HETATM   14  N   UNK N   1      29.089  17.905   4.405  0.00  0.00    -0.308 N 
HETATM   15  C   UNK N   1      28.851  16.848   3.610  0.00  0.00     0.133 A 
ATOM     16  HN  UNK N   1      29.999  18.175   4.780  1.00  0.00     0.186 HD
HETATM   17  C   UNK N   1      27.503  16.820   3.308  0.00  0.00     0.080 A 
HETATM   18 Cl   UNK N   1      26.809  15.552   2.325  0.00  0.00    -0.080 Cl
ENDBRANCH   7  11
ENDBRANCH   1   5
BRANCH   3  19
HETATM   19  C   UNK N   1      21.032  17.526   3.036  0.00  0.00     0.106 C 
BRANCH  19  20
HETATM   20  C   UNK N   1      20.617  16.106   2.635  0.00  0.00     0.065 C 
BRANCH  20  21
HETATM   21  C   UNK N   1      21.771  15.184   2.402  0.00  0.00    -0.053 A 
HETATM   22  C   UNK N   1      22.581  14.803   3.477  0.00  0.00     0.010 A 
HETATM   23  C   UNK N   1      23.671  13.954   3.267  0.00  0.00     0.046 A 
HETATM   24  C   UNK N   1      23.956  13.486   1.980  0.00  0.00     0.154 A 
HETATM   25  C   UNK N   1      23.144  13.864   0.903  0.00  0.00     0.155 A 
HETATM   26  F   UNK N   1      25.016  12.669   1.777  0.00  0.00    -0.203 F 
HETATM   27  C   UNK N   1      22.052  14.706   1.116  0.00  0.00     0.052 A 
HETATM   28  F   UNK N   1      23.415  13.419  -0.347  0.00  0.00    -0.203 F 
ENDBRANCH  20  21
ENDBRANCH  19  20
BRANCH  19  29
HETATM   29  C   UNK N   1      20.272  18.639   2.310  0.00  0.00     0.136 C 
BRANCH  29  30
HETATM   30  N   UNK N   1      18.832  18.447   2.395  0.00  0.00    -0.428 N 
HETATM   31  H   UNK N   1      18.276  18.757   3.191  0.00  0.00     0.149 HD
HETATM   32  H   UNK N   1      18.358  17.980   1.623  0.00  0.00     0.149 HD
ENDBRANCH  29  30
ENDBRANCH  19  29
ENDBRANCH   3  19
TORSDOF 7
ENDMDL
MODEL 9
REMARK VINA RESULT:      -6.5      4.670      7.758
REMARK  7 active torsions:
REMARK  status: ('A' for Active; 'I' for Inactive)
REMARK    1  A    between atoms: C_3  and  C_9 
REMARK    2  A    between atoms: C_11  and  C_15 
REMARK       I    between atoms: C_15  and  N_17 
REMARK    3  A    between atoms: C_18  and  N_17 
REMARK    4  A    between atoms: C_18  and  C_19 
REMARK    5  A    between atoms: C_18  and  C_28 
REMARK    6  A    between atoms: C_19  and  C_20 
REMARK    7  A    between atoms: C_28  and  N_29 
ROOT
HETATM    1  C   UNK N   1      32.717  16.214   3.634  0.00  0.00     0.275 C 
HETATM    2  O   UNK N   1      33.361  16.411   2.616  0.00  0.00    -0.265 OA
HETATM    3  N   UNK N   1      31.395  15.915   3.523  0.00  0.00    -0.349 N 
HETATM    4  H   UNK N   1      30.993  15.924   2.624  0.00  0.00     0.163 HD
ENDROOT
BRANCH   1   5
HETATM    5  C   UNK N   1      33.420  16.269   4.940  0.00  0.00     0.145 A 
HETATM    6  C   UNK N   1      34.017  15.216   5.599  0.00  0.00     0.060 A 
HETATM    7  C   UNK N   1      34.534  15.734   6.772  0.00  0.00     0.043 A 
HETATM    8  C   UNK N   1      34.217  17.098   6.743  0.00  0.00     0.158 A 
HETATM    9  O   UNK N   1      33.548  17.363   5.645  0.00  0.00    -0.292 OA
HETATM   10 Cl   UNK N   1      34.529  18.359   7.911  0.00  0.00    -0.056 Cl
BRANCH   7  11
HETATM   11  C   UNK N   1      35.242  14.863   7.775  0.00  0.00     0.087 A 
HETATM   12  N   UNK N   1      34.761  14.634   9.024  0.00  0.00    -0.294 N 
HETATM   13  C   UNK N   1      33.543  15.154   9.629  0.00  0.00     0.178 C 
HETATM   14  N   UNK N   1      35.584  13.844   9.688  0.00  0.00    -0.308 N 
HETATM   15  C   UNK N   1      36.619  13.529   8.891  0.00  0.00     0.133 A 
ATOM     16  HN  UNK N   1      35.455  13.525  10.649  1.00  0.00     0.186 HD
HETATM   17  C   UNK N   1      36.442  14.155   7.672  0.00  0.00     0.080 A 
HETATM   18 Cl   UNK N   1      37.573  13.942   6.356  0.00  0.00    -0.080 Cl
ENDBRANCH   7  11
ENDBRANCH   1   5
BRANCH   3  19
HETATM   19  C   UNK N   1      30.544  15.585   4.644  0.00  0.00     0.106 C 
BRANCH  19  20
HETATM   20  C   UNK N   1      29.458  16.641   4.877  0.00  0.00     0.065 C 
BRANCH  20  21
HETATM   21  C   UNK N   1      29.502  17.262   6.237  0.00  0.00    -0.053 A 
HETATM   22  C   UNK N   1      30.528  16.916   7.123  0.00  0.00     0.010 A 
HETATM   23  C   UNK N   1      30.568  17.480   8.402  0.00  0.00     0.046 A 
HETATM   24  C   UNK N   1      29.581  18.387   8.798  0.00  0.00     0.154 A 
HETATM   25  C   UNK N   1      28.555  18.736   7.910  0.00  0.00     0.155 A 
HETATM   26  F   UNK N   1      29.618  18.927  10.039  0.00  0.00    -0.203 F 
HETATM   27  C   UNK N   1      28.520  18.178   6.632  0.00  0.00     0.052 A 
HETATM   28  F   UNK N   1      27.592  19.612   8.288  0.00  0.00    -0.203 F 
ENDBRANCH  20  21
ENDBRANCH  19  20
BRANCH  19  29
HETATM   29  C   UNK N   1      30.025  14.149   4.544  0.00  0.00     0.136 C 
BRANCH  29  30
HETATM   30  N   UNK N   1      30.823  13.234   5.345  0.00  0.00    -0.428 N 
HETATM   31  H   UNK N   1      30.414  12.552   5.983  0.00  0.00     0.149 HD
HETATM   32  H   UNK N   1      31.838  13.277   5.265  0.00  0.00     0.149 HD
ENDBRANCH  29  30
ENDBRANCH  19  29
ENDBRANCH   3  19
TORSDOF 7
ENDMDL
