REMARK  14 active torsions:
REMARK  status: ('A' for Active; 'I' for Inactive)
REMARK    1  A    between atoms: C_3  and  C_37 
REMARK    2  A    between atoms: N_6  and  C_22 
REMARK    3  A    between atoms: N_9  and  C_10 
REMARK    4  A    between atoms: C_10  and  C_11 
REMARK    5  A    between atoms: C_12  and  C_18 
REMARK    6  A    between atoms: C_22  and  C_23 
REMARK    7  A    between atoms: C_23  and  C_24 
REMARK    8  A    between atoms: C_23  and  N_30 
REMARK    9  A    between atoms: N_30  and  C_31 
REMARK   10  A    between atoms: C_31  and  C_32 
REMARK   11  A    between atoms: C_32  and  C_33 
REMARK   12  A    between atoms: C_33  and  C_34 
REMARK   13  A    between atoms: C_34  and  O_36 
REMARK   14  A    between atoms: C_41  and  O_44 
ROOT
HETATM    1  C   UNK N   1      -4.692  -4.995  -1.514  0.00  0.00     0.069 C 
HETATM    2  C   UNK N   1      -3.578  -4.410  -0.691  0.00  0.00     0.029 A 
HETATM    3  C   UNK N   1      -2.673  -5.264   0.002  0.00  0.00     0.068 A 
HETATM    4  C   UNK N   1      -1.589  -4.656   0.668  0.00  0.00     0.264 A 
HETATM    5  O   UNK N   1      -0.807  -5.341   1.307  0.00  0.00    -0.267 OA
HETATM    6  N   UNK N   1      -1.421  -3.293   0.646  0.00  0.00    -0.263 N 
HETATM    7  C   UNK N   1      -2.342  -2.488   0.020  0.00  0.00     0.332 A 
HETATM    8  O   UNK N   1      -2.189  -1.281   0.073  0.00  0.00    -0.246 OA
HETATM    9  N   UNK N   1      -3.421  -3.039  -0.662  0.00  0.00    -0.298 N 
ENDROOT
BRANCH   6  10
HETATM   10  C   UNK N   1      -0.287  -2.675   1.359  0.00  0.00     0.166 C 
BRANCH  10  11
HETATM   11  C   UNK N   1       1.071  -2.791   0.633  0.00  0.00     0.128 C 
BRANCH  11  12
HETATM   12  C   UNK N   1       1.539  -4.175   0.302  0.00  0.00    -0.034 A 
HETATM   13  C   UNK N   1       1.371  -4.701  -0.988  0.00  0.00     0.009 A 
HETATM   14  C   UNK N   1       1.822  -5.991  -1.282  0.00  0.00     0.001 A 
HETATM   15  C   UNK N   1       2.442  -6.757  -0.291  0.00  0.00     0.000 A 
HETATM   16  C   UNK N   1       2.615  -6.233   0.993  0.00  0.00     0.001 A 
HETATM   17  C   UNK N   1       2.166  -4.943   1.289  0.00  0.00     0.009 A 
ENDBRANCH  11  12
BRANCH  11  18
HETATM   18  N   UNK N   1       1.244  -1.858  -0.476  0.00  0.00    -0.411 N 
HETATM   19  H   UNK N   1       0.592  -1.715  -1.247  0.00  0.00     0.153 HD
BRANCH  18  20
HETATM   20  C   UNK N   1       2.518  -1.166  -0.286  0.00  0.00     0.115 C 
BRANCH  20  21
HETATM   21  C   UNK N   1       3.688  -1.940  -0.892  0.00  0.00     0.029 C 
BRANCH  21  22
HETATM   22  C   UNK N   1       4.397  -2.750   0.184  0.00  0.00     0.111 C 
BRANCH  22  23
HETATM   23  C   UNK N   1       5.878  -2.720  -0.006  0.00  0.00     0.139 C 
HETATM   24  O   UNK N   1       6.490  -3.758  -0.198  0.00  0.00    -0.650 OA
BRANCH  23  25
HETATM   25  O   UNK N   1       6.545  -1.553   0.074  0.00  0.00    -0.776 OA
HETATM   26  H   UNK N   1       7.480  -1.549   0.130  0.00  0.00     0.167 HD
ENDBRANCH  23  25
ENDBRANCH  22  23
ENDBRANCH  21  22
ENDBRANCH  20  21
ENDBRANCH  18  20
ENDBRANCH  11  18
ENDBRANCH  10  11
ENDBRANCH   6  10
BRANCH   3  27
HETATM   27  C   UNK N   1      -2.801  -6.781   0.054  0.00  0.00     0.023 A 
HETATM   28  C   UNK N   1      -1.617  -7.543   0.062  0.00  0.00     0.016 A 
HETATM   29  C   UNK N   1      -1.638  -8.930   0.144  0.00  0.00     0.004 A 
HETATM   30  C   UNK N   1      -2.850  -9.600   0.231  0.00  0.00     0.040 A 
HETATM   31  C   UNK N   1      -4.056  -8.897   0.244  0.00  0.00     0.107 A 
HETATM   32  C   UNK N   1      -4.039  -7.476   0.156  0.00  0.00     0.160 A 
HETATM   33  F   UNK N   1      -5.205  -6.793   0.245  0.00  0.00    -0.202 F 
BRANCH  31  34
HETATM   34  O   UNK N   1      -5.198  -9.625   0.358  0.00  0.00    -0.353 OA
HETATM   35  C   UNK N   1      -6.473  -9.110   0.367  0.00  0.00     0.210 C 
ENDBRANCH  31  34
ENDBRANCH   3  27
BRANCH   9  36
HETATM   36  C   UNK N   1      -4.432  -2.230  -1.402  0.00  0.00     0.176 C 
BRANCH  36  37
HETATM   37  C   UNK N   1      -4.596  -0.753  -1.096  0.00  0.00     0.014 A 
HETATM   38  C   UNK N   1      -5.735  -0.277  -0.393  0.00  0.00     0.058 A 
HETATM   39  C   UNK N   1      -5.871   1.100  -0.160  0.00  0.00     0.017 A 
HETATM   40  C   UNK N   1      -4.906   2.000  -0.608  0.00  0.00     0.004 A 
HETATM   41  C   UNK N   1      -3.813   1.541  -1.338  0.00  0.00     0.043 A 
HETATM   42  C   UNK N   1      -3.662   0.178  -1.598  0.00  0.00     0.125 A 
HETATM   43  F   UNK N   1      -2.606  -0.239  -2.341  0.00  0.00    -0.205 F 
BRANCH  38  44
HETATM   44  C   UNK N   1      -6.826  -1.206   0.091  0.00  0.00     0.418 C 
HETATM   45  F   UNK N   1      -7.254  -2.018  -0.944  0.00  0.00    -0.166 F 
HETATM   46  F   UNK N   1      -7.920  -0.486   0.547  0.00  0.00    -0.166 F 
HETATM   47  F   UNK N   1      -6.352  -1.991   1.124  0.00  0.00    -0.166 F 
ENDBRANCH  38  44
ENDBRANCH  36  37
ENDBRANCH   9  36
TORSDOF 14
