REMARK  2 active torsions:
REMARK  status: ('A' for Active; 'I' for Inactive)
REMARK    1  A    between atoms: C_10  and  C_11 
REMARK    2  A    between atoms: C_12  and  C_18 
REMARK       I    between atoms: N_28  and  C_31 
REMARK       I    between atoms: C_31  and  N_33 
ROOT
HETATM    1  C   UNK N   1       1.148   3.151  -0.343  0.00  0.00     0.009 A 
HETATM    2  C   UNK N   1       2.374   3.274  -1.002  0.00  0.00     0.104 A 
HETATM    3  N   UNK N   1       2.896   2.050  -1.195  0.00  0.00    -0.353 N 
HETATM    4  C   UNK N   1       2.026   1.158  -0.705  0.00  0.00     0.053 A 
HETATM    5  C   UNK N   1       0.938   1.792  -0.170  0.00  0.00     0.007 A 
HETATM    6  C   UNK N   1      -0.087   1.073   0.442  0.00  0.00     0.057 A 
HETATM    7  C   UNK N   1       0.029  -0.332   0.489  0.00  0.00     0.117 A 
HETATM    8  C   UNK N   1       1.150  -0.980  -0.084  0.00  0.00     0.053 A 
HETATM    9  C   UNK N   1       2.167  -0.225  -0.693  0.00  0.00    -0.009 A 
HETATM   10  C   UNK N   1       3.357  -0.879  -1.332  0.00  0.00     0.168 C 
HETATM   11  N   UNK N   1       4.596  -0.467  -0.689  0.00  0.00    -0.328 N 
HETATM   12  C   UNK N   1       5.028   0.929  -0.785  0.00  0.00     0.148 C 
HETATM   13  C   UNK N   1       4.200   1.763  -1.772  0.00  0.00     0.148 C 
HETATM   14  C   UNK N   1       5.379  -1.354   0.021  0.00  0.00     0.320 C 
HETATM   15  O   UNK N   1       6.346  -0.914   0.637  0.00  0.00    -0.247 OA
HETATM   16  N   UNK N   1       5.142  -2.713   0.063  0.00  0.00    -0.334 N 
HETATM   17  C   UNK N   1       5.980  -3.566   0.880  0.00  0.00     0.127 C 
HETATM   18  C   UNK N   1       5.098  -4.377   1.830  0.00  0.00     0.020 C 
HETATM   19  C   UNK N   1       4.034  -5.139   1.038  0.00  0.00     0.003 C 
HETATM   20  C   UNK N   1       3.201  -4.172   0.202  0.00  0.00     0.020 C 
HETATM   21  C   UNK N   1       4.118  -3.381  -0.719  0.00  0.00     0.127 C 
HETATM   22  F   UNK N   1      -0.936  -1.065   1.093  0.00  0.00    -0.206 F 
ENDROOT
BRANCH   1  23
HETATM   23  C   UNK N   1       0.283   4.297   0.040  0.00  0.00     0.062 A 
HETATM   24  C   UNK N   1       0.666   5.582   0.192  0.00  0.00     0.077 A 
HETATM   25  C   UNK N   1      -0.568   6.352   0.401  0.00  0.00     0.261 A 
HETATM   26  N   UNK N   1      -1.638   5.537   0.414  0.00  0.00    -0.289 N 
HETATM   27  O   UNK N   1      -0.642   7.559   0.565  0.00  0.00    -0.267 OA
HETATM   28  C   UNK N   1      -1.181   4.288   0.210  0.00  0.00     0.260 A 
HETATM   29  H   UNK N   1      -2.576   5.803   0.547  0.00  0.00     0.172 HD
HETATM   30  O   UNK N   1      -1.912   3.316   0.120  0.00  0.00    -0.267 OA
BRANCH  24  31
HETATM   31  C   UNK N   1       2.043   6.142   0.149  0.00  0.00     0.072 A 
HETATM   32  C   UNK N   1       2.398   7.363  -0.405  0.00  0.00     0.121 A 
HETATM   33  N   UNK N   1       3.743   7.510  -0.285  0.00  0.00    -0.350 N 
HETATM   34  C   UNK N   1       4.162   6.403   0.358  0.00  0.00     0.111 A 
ATOM     35  HN  UNK N   1       4.313   8.290  -0.612  1.00  0.00     0.166 HD
HETATM   36  N   UNK N   1       3.156   5.569   0.652  0.00  0.00    -0.306 N 
HETATM   37  C   UNK N   1       5.476   6.110   0.717  0.00  0.00     0.049 A 
HETATM   38  C   UNK N   1       3.336   4.423   1.363  0.00  0.00     0.099 A 
HETATM   39  C   UNK N   1       4.635   4.070   1.751  0.00  0.00     0.018 A 
HETATM   40  C   UNK N   1       5.709   4.914   1.414  0.00  0.00     0.005 A 
ENDBRANCH  24  31
ENDBRANCH   1  23
TORSDOF 2
