MODEL 1
REMARK VINA RESULT:      -4.2      0.000      0.000
REMARK  5 active torsions:
REMARK  status: ('A' for Active; 'I' for Inactive)
REMARK    1  A    between atoms: C_1  and  C_2 
REMARK    2  A    between atoms: C_1  and  N_8 
REMARK    3  A    between atoms: C_2  and  C_3 
REMARK    4  A    between atoms: C_3  and  P_4 
REMARK    5  A    between atoms: P_4  and  O_6 
ROOT
HETATM    1  C   UNK N   1      23.177  12.299  11.567  0.00  0.00     0.195 C 
HETATM    2  F   UNK N   1      22.818  11.634  12.725  0.00  0.00    -0.247 F 
ENDROOT
BRANCH   1   3
HETATM    3  C   UNK N   1      24.606  11.939  11.202  0.00  0.00     0.148 C 
BRANCH   3   4
HETATM    4  N   UNK N   1      25.317  13.125  10.758  0.00  0.00    -0.427 N 
HETATM    5  H   UNK N   1      26.330  13.140  10.634  0.00  0.00     0.150 HD
HETATM    6  H   UNK N   1      24.785  13.974  10.563  0.00  0.00     0.150 HD
ENDBRANCH   3   4
ENDBRANCH   1   3
BRANCH   1   7
HETATM    7  C   UNK N   1      22.248  11.896  10.434  0.00  0.00     0.130 C 
BRANCH   7   8
HETATM    8  P   UNK N   1      21.357  13.385   9.753  0.00  0.00     0.092 P 
HETATM    9  O   UNK N   1      20.953  12.674   8.432  0.00  0.00    -0.676 OA
HETATM   10  H   UNK N   1      21.577  12.115   9.262  0.00  0.00     0.120 HD
BRANCH   8  11
HETATM   11  O   UNK N   1      19.853  13.030  10.542  0.00  0.00    -0.351 OA
HETATM   12  H   UNK N   1      18.980  13.435  10.422  0.00  0.00     0.217 HD
ENDBRANCH   8  11
ENDBRANCH   7   8
ENDBRANCH   1   7
TORSDOF 5
ENDMDL
MODEL 2
REMARK VINA RESULT:      -4.0     11.883     12.207
REMARK  5 active torsions:
REMARK  status: ('A' for Active; 'I' for Inactive)
REMARK    1  A    between atoms: C_1  and  C_2 
REMARK    2  A    between atoms: C_1  and  N_8 
REMARK    3  A    between atoms: C_2  and  C_3 
REMARK    4  A    between atoms: C_3  and  P_4 
REMARK    5  A    between atoms: P_4  and  O_6 
ROOT
HETATM    1  C   UNK N   1      31.697  16.795   8.024  0.00  0.00     0.195 C 
HETATM    2  F   UNK N   1      31.008  16.559   9.199  0.00  0.00    -0.247 F 
ENDROOT
BRANCH   1   3
HETATM    3  C   UNK N   1      30.706  17.017   6.895  0.00  0.00     0.148 C 
BRANCH   3   4
HETATM    4  N   UNK N   1      31.418  17.228   5.647  0.00  0.00    -0.427 N 
HETATM    5  H   UNK N   1      31.282  16.628   4.833  0.00  0.00     0.150 HD
HETATM    6  H   UNK N   1      32.079  18.003   5.582  0.00  0.00     0.150 HD
ENDBRANCH   3   4
ENDBRANCH   1   3
BRANCH   1   7
HETATM    7  C   UNK N   1      32.570  18.029   8.180  0.00  0.00     0.130 C 
BRANCH   7   8
HETATM    8  P   UNK N   1      34.370  17.591   7.970  0.00  0.00     0.092 P 
HETATM    9  O   UNK N   1      34.378  17.894   6.447  0.00  0.00    -0.676 OA
HETATM   10  H   UNK N   1      33.400  18.026   7.092  0.00  0.00     0.120 HD
BRANCH   8  11
HETATM   11  O   UNK N   1      34.956  19.166   8.406  0.00  0.00    -0.351 OA
HETATM   12  H   UNK N   1      35.799  19.422   8.813  0.00  0.00     0.217 HD
ENDBRANCH   8  11
ENDBRANCH   7   8
ENDBRANCH   1   7
TORSDOF 5
ENDMDL
MODEL 3
REMARK VINA RESULT:      -4.0     12.593     12.915
REMARK  5 active torsions:
REMARK  status: ('A' for Active; 'I' for Inactive)
REMARK    1  A    between atoms: C_1  and  C_2 
REMARK    2  A    between atoms: C_1  and  N_8 
REMARK    3  A    between atoms: C_2  and  C_3 
REMARK    4  A    between atoms: C_3  and  P_4 
REMARK    5  A    between atoms: P_4  and  O_6 
ROOT
HETATM    1  C   UNK N   1      33.826  15.766   9.457  0.00  0.00     0.195 C 
HETATM    2  F   UNK N   1      33.404  14.499   9.099  0.00  0.00    -0.247 F 
ENDROOT
BRANCH   1   3
HETATM    3  C   UNK N   1      34.778  15.667  10.635  0.00  0.00     0.148 C 
BRANCH   3   4
HETATM    4  N   UNK N   1      35.209  16.995  11.036  0.00  0.00    -0.427 N 
HETATM    5  H   UNK N   1      35.924  17.144  11.749  0.00  0.00     0.150 HD
HETATM    6  H   UNK N   1      34.781  17.807  10.591  0.00  0.00     0.150 HD
ENDBRANCH   3   4
ENDBRANCH   1   3
BRANCH   1   7
HETATM    7  C   UNK N   1      34.539  16.421   8.284  0.00  0.00     0.130 C 
BRANCH   7   8
HETATM    8  P   UNK N   1      33.738  18.048   7.853  0.00  0.00     0.092 P 
HETATM    9  O   UNK N   1      34.955  18.894   8.320  0.00  0.00    -0.676 OA
HETATM   10  H   UNK N   1      34.964  17.716   8.391  0.00  0.00     0.120 HD
BRANCH   8  11
HETATM   11  O   UNK N   1      34.243  18.024   6.193  0.00  0.00    -0.351 OA
HETATM   12  H   UNK N   1      33.782  18.343   5.401  0.00  0.00     0.217 HD
ENDBRANCH   8  11
ENDBRANCH   7   8
ENDBRANCH   1   7
TORSDOF 5
ENDMDL
MODEL 4
REMARK VINA RESULT:      -3.8     23.084     23.639
REMARK  5 active torsions:
REMARK  status: ('A' for Active; 'I' for Inactive)
REMARK    1  A    between atoms: C_1  and  C_2 
REMARK    2  A    between atoms: C_1  and  N_8 
REMARK    3  A    between atoms: C_2  and  C_3 
REMARK    4  A    between atoms: C_3  and  P_4 
REMARK    5  A    between atoms: P_4  and  O_6 
ROOT
HETATM    1  C   UNK N   1      42.408  20.430   2.978  0.00  0.00     0.195 C 
HETATM    2  F   UNK N   1      43.119  19.254   2.820  0.00  0.00    -0.247 F 
ENDROOT
BRANCH   1   3
HETATM    3  C   UNK N   1      41.006  20.110   3.462  0.00  0.00     0.148 C 
BRANCH   3   4
HETATM    4  N   UNK N   1      40.038  20.919   2.741  0.00  0.00    -0.427 N 
HETATM    5  H   UNK N   1      39.842  20.780   1.749  0.00  0.00     0.150 HD
HETATM    6  H   UNK N   1      39.538  21.653   3.244  0.00  0.00     0.150 HD
ENDBRANCH   3   4
ENDBRANCH   1   3
BRANCH   1   7
HETATM    7  C   UNK N   1      43.105  21.318   3.996  0.00  0.00     0.130 C 
BRANCH   7   8
HETATM    8  P   UNK N   1      44.119  22.628   3.141  0.00  0.00     0.092 P 
HETATM    9  O   UNK N   1      43.571  23.782   4.026  0.00  0.00    -0.676 OA
HETATM   10  H   UNK N   1      43.213  22.669   4.181  0.00  0.00     0.120 HD
BRANCH   8  11
HETATM   11  O   UNK N   1      45.529  22.387   4.124  0.00  0.00    -0.351 OA
HETATM   12  H   UNK N   1      46.451  22.638   3.957  0.00  0.00     0.217 HD
ENDBRANCH   8  11
ENDBRANCH   7   8
ENDBRANCH   1   7
TORSDOF 5
ENDMDL
MODEL 5
REMARK VINA RESULT:      -3.8     12.509     12.972
REMARK  5 active torsions:
REMARK  status: ('A' for Active; 'I' for Inactive)
REMARK    1  A    between atoms: C_1  and  C_2 
REMARK    2  A    between atoms: C_1  and  N_8 
REMARK    3  A    between atoms: C_2  and  C_3 
REMARK    4  A    between atoms: C_3  and  P_4 
REMARK    5  A    between atoms: P_4  and  O_6 
ROOT
HETATM    1  C   UNK N   1      34.286  16.508   7.731  0.00  0.00     0.195 C 
HETATM    2  F   UNK N   1      33.715  15.777   6.705  0.00  0.00    -0.247 F 
ENDROOT
BRANCH   1   3
HETATM    3  C   UNK N   1      34.131  17.990   7.441  0.00  0.00     0.148 C 
BRANCH   3   4
HETATM    4  N   UNK N   1      34.805  18.767   8.468  0.00  0.00    -0.427 N 
HETATM    5  H   UNK N   1      35.597  18.401   8.997  0.00  0.00     0.150 HD
HETATM    6  H   UNK N   1      34.473  19.711   8.668  0.00  0.00     0.150 HD
ENDBRANCH   3   4
ENDBRANCH   1   3
BRANCH   1   7
HETATM    7  C   UNK N   1      33.596  16.174   9.044  0.00  0.00     0.130 C 
BRANCH   7   8
HETATM    8  P   UNK N   1      34.827  15.529  10.288  0.00  0.00     0.092 P 
HETATM    9  O   UNK N   1      34.950  16.887  11.032  0.00  0.00    -0.676 OA
HETATM   10  H   UNK N   1      34.240  16.763  10.098  0.00  0.00     0.120 HD
BRANCH   8  11
HETATM   11  O   UNK N   1      33.625  14.909  11.375  0.00  0.00    -0.351 OA
HETATM   12  H   UNK N   1      33.657  14.134  11.958  0.00  0.00     0.217 HD
ENDBRANCH   8  11
ENDBRANCH   7   8
ENDBRANCH   1   7
TORSDOF 5
ENDMDL
MODEL 6
REMARK VINA RESULT:      -3.8      9.570      9.944
REMARK  5 active torsions:
REMARK  status: ('A' for Active; 'I' for Inactive)
REMARK    1  A    between atoms: C_1  and  C_2 
REMARK    2  A    between atoms: C_1  and  N_8 
REMARK    3  A    between atoms: C_2  and  C_3 
REMARK    4  A    between atoms: C_3  and  P_4 
REMARK    5  A    between atoms: P_4  and  O_6 
ROOT
HETATM    1  C   UNK N   1      30.924  17.032   7.596  0.00  0.00     0.195 C 
HETATM    2  F   UNK N   1      30.769  16.724   6.257  0.00  0.00    -0.247 F 
ENDROOT
BRANCH   1   3
HETATM    3  C   UNK N   1      32.295  17.646   7.815  0.00  0.00     0.148 C 
BRANCH   3   4
HETATM    4  N   UNK N   1      32.851  17.175   9.072  0.00  0.00    -0.427 N 
HETATM    5  H   UNK N   1      32.865  17.754   9.913  0.00  0.00     0.150 HD
HETATM    6  H   UNK N   1      33.242  16.234   9.116  0.00  0.00     0.150 HD
ENDBRANCH   3   4
ENDBRANCH   1   3
BRANCH   1   7
HETATM    7  C   UNK N   1      29.852  18.022   8.023  0.00  0.00     0.130 C 
BRANCH   7   8
HETATM    8  P   UNK N   1      29.080  17.499   9.637  0.00  0.00     0.092 P 
HETATM    9  O   UNK N   1      29.673  18.695  10.432  0.00  0.00    -0.676 OA
HETATM   10  H   UNK N   1      29.885  18.561   9.279  0.00  0.00     0.120 HD
BRANCH   8  11
HETATM   11  O   UNK N   1      27.567  18.295   9.340  0.00  0.00    -0.351 OA
HETATM   12  H   UNK N   1      27.055  18.366   8.520  0.00  0.00     0.217 HD
ENDBRANCH   8  11
ENDBRANCH   7   8
ENDBRANCH   1   7
TORSDOF 5
ENDMDL
MODEL 7
REMARK VINA RESULT:      -3.8     12.378     12.939
REMARK  5 active torsions:
REMARK  status: ('A' for Active; 'I' for Inactive)
REMARK    1  A    between atoms: C_1  and  C_2 
REMARK    2  A    between atoms: C_1  and  N_8 
REMARK    3  A    between atoms: C_2  and  C_3 
REMARK    4  A    between atoms: C_3  and  P_4 
REMARK    5  A    between atoms: P_4  and  O_6 
ROOT
HETATM    1  C   UNK N   1      34.954  15.423   9.166  0.00  0.00     0.195 C 
HETATM    2  F   UNK N   1      36.262  15.271   9.587  0.00  0.00    -0.247 F 
ENDROOT
BRANCH   1   3
HETATM    3  C   UNK N   1      34.072  14.422   9.889  0.00  0.00     0.148 C 
BRANCH   3   4
HETATM    4  N   UNK N   1      33.018  15.119  10.606  0.00  0.00    -0.427 N 
HETATM    5  H   UNK N   1      32.077  15.225  10.226  0.00  0.00     0.150 HD
HETATM    6  H   UNK N   1      33.226  15.518  11.522  0.00  0.00     0.150 HD
ENDBRANCH   3   4
ENDBRANCH   1   3
BRANCH   1   7
HETATM    7  C   UNK N   1      34.477  16.834   9.474  0.00  0.00     0.130 C 
BRANCH   7   8
HETATM    8  P   UNK N   1      34.299  17.825   7.906  0.00  0.00     0.092 P 
HETATM    9  O   UNK N   1      32.935  18.441   8.322  0.00  0.00    -0.676 OA
HETATM   10  H   UNK N   1      33.507  17.688   9.027  0.00  0.00     0.120 HD
BRANCH   8  11
HETATM   11  O   UNK N   1      35.219  19.179   8.483  0.00  0.00    -0.351 OA
HETATM   12  H   UNK N   1      35.388  19.470   9.393  0.00  0.00     0.217 HD
ENDBRANCH   8  11
ENDBRANCH   7   8
ENDBRANCH   1   7
TORSDOF 5
ENDMDL
MODEL 8
REMARK VINA RESULT:      -3.7     13.197     13.476
REMARK  5 active torsions:
REMARK  status: ('A' for Active; 'I' for Inactive)
REMARK    1  A    between atoms: C_1  and  C_2 
REMARK    2  A    between atoms: C_1  and  N_8 
REMARK    3  A    between atoms: C_2  and  C_3 
REMARK    4  A    between atoms: C_3  and  P_4 
REMARK    5  A    between atoms: P_4  and  O_6 
ROOT
HETATM    1  C   UNK N   1      36.138  13.849  12.280  0.00  0.00     0.195 C 
HETATM    2  F   UNK N   1      37.397  13.620  11.757  0.00  0.00    -0.247 F 
ENDROOT
BRANCH   1   3
HETATM    3  C   UNK N   1      36.183  13.695  13.789  0.00  0.00     0.148 C 
BRANCH   3   4
HETATM    4  N   UNK N   1      36.928  14.796  14.376  0.00  0.00    -0.427 N 
HETATM    5  H   UNK N   1      37.948  14.812  14.400  0.00  0.00     0.150 HD
HETATM    6  H   UNK N   1      36.414  15.579  14.778  0.00  0.00     0.150 HD
ENDBRANCH   3   4
ENDBRANCH   1   3
BRANCH   1   7
HETATM    7  C   UNK N   1      35.684  15.257  11.928  0.00  0.00     0.130 C 
BRANCH   7   8
HETATM    8  P   UNK N   1      34.638  15.244  10.385  0.00  0.00     0.092 P 
HETATM    9  O   UNK N   1      33.303  15.074  11.161  0.00  0.00    -0.676 OA
HETATM   10  H   UNK N   1      34.336  15.140  11.727  0.00  0.00     0.120 HD
BRANCH   8  11
HETATM   11  O   UNK N   1      34.498  16.971  10.288  0.00  0.00    -0.351 OA
HETATM   12  H   UNK N   1      34.825  17.582   9.609  0.00  0.00     0.217 HD
ENDBRANCH   8  11
ENDBRANCH   7   8
ENDBRANCH   1   7
TORSDOF 5
ENDMDL
MODEL 9
REMARK VINA RESULT:      -3.7     14.191     14.629
REMARK  5 active torsions:
REMARK  status: ('A' for Active; 'I' for Inactive)
REMARK    1  A    between atoms: C_1  and  C_2 
REMARK    2  A    between atoms: C_1  and  N_8 
REMARK    3  A    between atoms: C_2  and  C_3 
REMARK    4  A    between atoms: C_3  and  P_4 
REMARK    5  A    between atoms: P_4  and  O_6 
ROOT
HETATM    1  C   UNK N   1      35.423  13.741  18.174  0.00  0.00     0.195 C 
HETATM    2  F   UNK N   1      34.865  14.964  18.496  0.00  0.00    -0.247 F 
ENDROOT
BRANCH   1   3
HETATM    3  C   UNK N   1      35.176  12.761  19.306  0.00  0.00     0.148 C 
BRANCH   3   4
HETATM    4  N   UNK N   1      34.696  13.472  20.479  0.00  0.00    -0.427 N 
HETATM    5  H   UNK N   1      33.777  13.294  20.886  0.00  0.00     0.150 HD
HETATM    6  H   UNK N   1      35.297  14.174  20.909  0.00  0.00     0.150 HD
ENDBRANCH   3   4
ENDBRANCH   1   3
BRANCH   1   7
HETATM    7  C   UNK N   1      34.791  13.209  16.897  0.00  0.00     0.130 C 
BRANCH   7   8
HETATM    8  P   UNK N   1      36.026  13.216  15.500  0.00  0.00     0.092 P 
HETATM    9  O   UNK N   1      36.097  11.667  15.412  0.00  0.00    -0.676 OA
HETATM   10  H   UNK N   1      35.403  12.204  16.200  0.00  0.00     0.120 HD
BRANCH   8  11
HETATM   11  O   UNK N   1      34.830  13.349  14.249  0.00  0.00    -0.351 OA
HETATM   12  H   UNK N   1      34.601  14.108  13.689  0.00  0.00     0.217 HD
ENDBRANCH   8  11
ENDBRANCH   7   8
ENDBRANCH   1   7
TORSDOF 5
ENDMDL
