MODEL 1
REMARK VINA RESULT:      -7.5      0.000      0.000
REMARK  5 active torsions:
REMARK  status: ('A' for Active; 'I' for Inactive)
REMARK    1  A    between atoms: C_2  and  C_9 
REMARK    2  A    between atoms: C_9  and  S_10 
REMARK    3  A    between atoms: S_10  and  N_13 
REMARK    4  A    between atoms: C_16  and  O_19 
REMARK    5  A    between atoms: O_19  and  C_20 
ROOT
HETATM    1  N   UNK N   1      34.912  14.029  11.094  0.00  0.00    -0.210 NA
HETATM    2  C   UNK N   1      35.200  12.579  11.085  0.00  0.00     0.109 C 
HETATM    3  C   UNK N   1      34.978  11.926  12.464  0.00  0.00     0.048 C 
HETATM    4  C   UNK N   1      35.731  12.652  13.597  0.00  0.00     0.133 C 
HETATM    5  C   UNK N   1      36.412  13.916  13.061  0.00  0.00     0.048 C 
HETATM    6  C   UNK N   1      35.362  14.719  12.311  0.00  0.00     0.109 C 
ENDROOT
BRANCH   1   7
HETATM    7  S   UNK N   1      35.734  14.838   9.741  0.00  0.00     0.214 S 
HETATM    8  O   UNK N   1      37.123  14.185   9.726  0.00  0.00    -0.211 OA
HETATM    9  O   UNK N   1      36.080  16.263  10.204  0.00  0.00    -0.211 OA
BRANCH   7  10
HETATM   10  C   UNK N   1      34.971  14.709   8.077  0.00  0.00     0.198 C 
BRANCH  10  11
HETATM   11  C   UNK N   1      34.003  15.825   7.676  0.00  0.00     0.126 A 
HETATM   12  C   UNK N   1      33.179  15.469   6.449  0.00  0.00     0.050 C 
HETATM   13  C   UNK N   1      33.142  16.303   8.823  0.00  0.00     0.254 A 
HETATM   14  O   UNK N   1      32.294  15.642   9.401  0.00  0.00    -0.270 OA
HETATM   15  N   UNK N   1      33.412  17.575   9.148  0.00  0.00    -0.277 N 
HETATM   16  C   UNK N   1      34.369  17.985   8.315  0.00  0.00     0.323 A 
HETATM   17  H   UNK N   1      32.987  18.104   9.861  0.00  0.00     0.173 HD
HETATM   18  O   UNK N   1      34.850  19.107   8.349  0.00  0.00    -0.247 OA
HETATM   19  N   UNK N   1      34.756  17.043   7.436  0.00  0.00    -0.324 N 
HETATM   20  H   UNK N   1      35.441  17.162   6.739  0.00  0.00     0.165 HD
ENDBRANCH  10  11
ENDBRANCH   7  10
ENDBRANCH   1   7
BRANCH   4  21
HETATM   21  O   UNK N   1      34.817  12.977  14.588  0.00  0.00    -0.330 OA
BRANCH  21  22
HETATM   22  C   UNK N   1      34.913  12.567  15.879  0.00  0.00     0.142 A 
HETATM   23  C   UNK N   1      34.934  13.521  16.900  0.00  0.00     0.058 A 
HETATM   24  C   UNK N   1      35.128  13.108  18.220  0.00  0.00     0.029 A 
HETATM   25  C   UNK N   1      35.299  11.752  18.503  0.00  0.00     0.049 A 
HETATM   26  C   UNK N   1      35.250  10.824  17.465  0.00  0.00     0.114 A 
HETATM   27 Cl   UNK N   1      35.589  11.219  20.144  0.00  0.00    -0.083 Cl
HETATM   28  N   UNK N   1      35.058  11.245  16.187  0.00  0.00    -0.345 N 
ATOM     29  HN  UNK N   1      35.020  10.554  15.438  1.00  0.00     0.167 HD
ENDBRANCH  21  22
ENDBRANCH   4  21
TORSDOF 5
ENDMDL
MODEL 2
REMARK VINA RESULT:      -7.3      1.301      2.139
REMARK  5 active torsions:
REMARK  status: ('A' for Active; 'I' for Inactive)
REMARK    1  A    between atoms: C_2  and  C_9 
REMARK    2  A    between atoms: C_9  and  S_10 
REMARK    3  A    between atoms: S_10  and  N_13 
REMARK    4  A    between atoms: C_16  and  O_19 
REMARK    5  A    between atoms: O_19  and  C_20 
ROOT
HETATM    1  N   UNK N   1      34.761  14.471  11.003  0.00  0.00    -0.210 NA
HETATM    2  C   UNK N   1      35.109  13.075  10.661  0.00  0.00     0.109 C 
HETATM    3  C   UNK N   1      34.839  12.098  11.823  0.00  0.00     0.048 C 
HETATM    4  C   UNK N   1      35.497  12.544  13.144  0.00  0.00     0.133 C 
HETATM    5  C   UNK N   1      36.154  13.919  12.976  0.00  0.00     0.048 C 
HETATM    6  C   UNK N   1      35.114  14.853  12.378  0.00  0.00     0.109 C 
ENDROOT
BRANCH   1   7
HETATM    7  S   UNK N   1      35.622  15.608   9.943  0.00  0.00     0.214 S 
HETATM    8  O   UNK N   1      36.096  14.723   8.781  0.00  0.00    -0.211 OA
HETATM    9  O   UNK N   1      36.959  15.944  10.624  0.00  0.00    -0.211 OA
BRANCH   7  10
HETATM   10  C   UNK N   1      34.685  17.042   9.286  0.00  0.00     0.198 C 
BRANCH  10  11
HETATM   11  C   UNK N   1      33.512  16.727   8.353  0.00  0.00     0.126 A 
HETATM   12  C   UNK N   1      32.502  17.862   8.283  0.00  0.00     0.050 C 
HETATM   13  C   UNK N   1      33.952  16.269   6.981  0.00  0.00     0.254 A 
HETATM   14  O   UNK N   1      34.549  16.948   6.161  0.00  0.00    -0.270 OA
HETATM   15  N   UNK N   1      33.602  14.997   6.748  0.00  0.00    -0.277 N 
HETATM   16  C   UNK N   1      32.964  14.572   7.839  0.00  0.00     0.323 A 
HETATM   17  H   UNK N   1      33.781  14.477   5.932  0.00  0.00     0.173 HD
HETATM   18  O   UNK N   1      32.516  13.443   7.955  0.00  0.00    -0.247 OA
HETATM   19  N   UNK N   1      32.863  15.508   8.801  0.00  0.00    -0.324 N 
HETATM   20  H   UNK N   1      32.419  15.385   9.671  0.00  0.00     0.165 HD
ENDBRANCH  10  11
ENDBRANCH   7  10
ENDBRANCH   1   7
BRANCH   4  21
HETATM   21  O   UNK N   1      34.518  12.592  14.124  0.00  0.00    -0.330 OA
BRANCH  21  22
HETATM   22  C   UNK N   1      34.721  12.255  15.424  0.00  0.00     0.142 A 
HETATM   23  C   UNK N   1      34.788  13.262  16.390  0.00  0.00     0.058 A 
HETATM   24  C   UNK N   1      35.091  12.925  17.711  0.00  0.00     0.029 A 
HETATM   25  C   UNK N   1      35.323  11.591  18.049  0.00  0.00     0.049 A 
HETATM   26  C   UNK N   1      35.226  10.608  17.067  0.00  0.00     0.114 A 
HETATM   27 Cl   UNK N   1      35.749  11.154  19.689  0.00  0.00    -0.083 Cl
HETATM   28  N   UNK N   1      34.928  10.954  15.787  0.00  0.00    -0.345 N 
ATOM     29  HN  UNK N   1      34.856  10.224  15.079  1.00  0.00     0.167 HD
ENDBRANCH  21  22
ENDBRANCH   4  21
TORSDOF 5
ENDMDL
MODEL 3
REMARK VINA RESULT:      -7.2      6.454     10.106
REMARK  5 active torsions:
REMARK  status: ('A' for Active; 'I' for Inactive)
REMARK    1  A    between atoms: C_2  and  C_9 
REMARK    2  A    between atoms: C_9  and  S_10 
REMARK    3  A    between atoms: S_10  and  N_13 
REMARK    4  A    between atoms: C_16  and  O_19 
REMARK    5  A    between atoms: O_19  and  C_20 
ROOT
HETATM    1  N   UNK N   1      31.875  15.946   6.200  0.00  0.00    -0.210 NA
HETATM    2  C   UNK N   1      32.283  16.769   5.042  0.00  0.00     0.109 C 
HETATM    3  C   UNK N   1      31.078  17.285   4.231  0.00  0.00     0.048 C 
HETATM    4  C   UNK N   1      30.109  16.159   3.819  0.00  0.00     0.133 C 
HETATM    5  C   UNK N   1      30.547  14.826   4.436  0.00  0.00     0.048 C 
HETATM    6  C   UNK N   1      30.741  15.052   5.927  0.00  0.00     0.109 C 
ENDROOT
BRANCH   1   7
HETATM    7  S   UNK N   1      33.211  14.897   6.724  0.00  0.00     0.214 S 
HETATM    8  O   UNK N   1      33.783  14.362   5.403  0.00  0.00    -0.211 OA
HETATM    9  O   UNK N   1      32.584  13.622   7.313  0.00  0.00    -0.211 OA
BRANCH   7  10
HETATM   10  C   UNK N   1      34.553  15.653   7.719  0.00  0.00     0.198 C 
BRANCH  10  11
HETATM   11  C   UNK N   1      34.134  16.694   8.761  0.00  0.00     0.126 A 
HETATM   12  C   UNK N   1      34.981  16.630  10.022  0.00  0.00     0.050 C 
HETATM   13  C   UNK N   1      34.050  18.094   8.199  0.00  0.00     0.254 A 
HETATM   14  O   UNK N   1      34.989  18.751   7.780  0.00  0.00    -0.270 OA
HETATM   15  N   UNK N   1      32.793  18.560   8.215  0.00  0.00    -0.277 N 
HETATM   16  C   UNK N   1      32.038  17.596   8.743  0.00  0.00     0.323 A 
HETATM   17  H   UNK N   1      32.487  19.440   7.899  0.00  0.00     0.173 HD
HETATM   18  O   UNK N   1      30.831  17.700   8.896  0.00  0.00    -0.247 OA
HETATM   19  N   UNK N   1      32.734  16.498   9.090  0.00  0.00    -0.324 N 
HETATM   20  H   UNK N   1      32.352  15.689   9.502  0.00  0.00     0.165 HD
ENDBRANCH  10  11
ENDBRANCH   7  10
ENDBRANCH   1   7
BRANCH   4  21
HETATM   21  O   UNK N   1      28.837  16.499   4.254  0.00  0.00    -0.330 OA
BRANCH  21  22
HETATM   22  C   UNK N   1      28.495  17.723   4.733  0.00  0.00     0.142 A 
HETATM   23  C   UNK N   1      28.430  17.923   6.115  0.00  0.00     0.058 A 
HETATM   24  C   UNK N   1      27.987  19.151   6.609  0.00  0.00     0.029 A 
HETATM   25  C   UNK N   1      27.615  20.162   5.721  0.00  0.00     0.049 A 
HETATM   26  C   UNK N   1      27.713  19.938   4.349  0.00  0.00     0.114 A 
HETATM   27 Cl   UNK N   1      27.015  21.691   6.321  0.00  0.00    -0.083 Cl
HETATM   28  N   UNK N   1      28.149  18.737   3.887  0.00  0.00    -0.345 N 
ATOM     29  HN  UNK N   1      28.219  18.589   2.880  1.00  0.00     0.167 HD
ENDBRANCH  21  22
ENDBRANCH   4  21
TORSDOF 5
ENDMDL
MODEL 4
REMARK VINA RESULT:      -7.2      4.862      9.254
REMARK  5 active torsions:
REMARK  status: ('A' for Active; 'I' for Inactive)
REMARK    1  A    between atoms: C_2  and  C_9 
REMARK    2  A    between atoms: C_9  and  S_10 
REMARK    3  A    between atoms: S_10  and  N_13 
REMARK    4  A    between atoms: C_16  and  O_19 
REMARK    5  A    between atoms: O_19  and  C_20 
ROOT
HETATM    1  N   UNK N   1      33.679  16.314   9.570  0.00  0.00    -0.210 NA
HETATM    2  C   UNK N   1      33.993  17.178   8.411  0.00  0.00     0.109 C 
HETATM    3  C   UNK N   1      32.738  17.547   7.595  0.00  0.00     0.048 C 
HETATM    4  C   UNK N   1      31.909  16.314   7.182  0.00  0.00     0.133 C 
HETATM    5  C   UNK N   1      32.498  15.043   7.804  0.00  0.00     0.048 C 
HETATM    6  C   UNK N   1      32.659  15.293   9.294  0.00  0.00     0.109 C 
ENDROOT
BRANCH   1   7
HETATM    7  S   UNK N   1      35.127  15.430  10.101  0.00  0.00     0.214 S 
HETATM    8  O   UNK N   1      36.080  16.545  10.553  0.00  0.00    -0.211 OA
HETATM    9  O   UNK N   1      35.840  14.924   8.836  0.00  0.00    -0.211 OA
BRANCH   7  10
HETATM   10  C   UNK N   1      34.931  14.199  11.447  0.00  0.00     0.198 C 
BRANCH  10  11
HETATM   11  C   UNK N   1      36.209  13.758  12.166  0.00  0.00     0.126 A 
HETATM   12  C   UNK N   1      36.334  14.363  13.556  0.00  0.00     0.050 C 
HETATM   13  C   UNK N   1      36.396  12.258  12.178  0.00  0.00     0.254 A 
HETATM   14  O   UNK N   1      35.679  11.456  12.754  0.00  0.00    -0.270 OA
HETATM   15  N   UNK N   1      37.471  11.888  11.469  0.00  0.00    -0.277 N 
HETATM   16  C   UNK N   1      38.018  13.008  10.995  0.00  0.00     0.323 A 
HETATM   17  H   UNK N   1      37.795  10.969  11.327  0.00  0.00     0.173 HD
HETATM   18  O   UNK N   1      39.020  13.019  10.297  0.00  0.00    -0.247 OA
HETATM   19  N   UNK N   1      37.358  14.123  11.358  0.00  0.00    -0.324 N 
HETATM   20  H   UNK N   1      37.616  15.041  11.113  0.00  0.00     0.165 HD
ENDBRANCH  10  11
ENDBRANCH   7  10
ENDBRANCH   1   7
BRANCH   4  21
HETATM   21  O   UNK N   1      30.605  16.503   7.611  0.00  0.00    -0.330 OA
BRANCH  21  22
HETATM   22  C   UNK N   1      29.764  17.443   7.107  0.00  0.00     0.142 A 
HETATM   23  C   UNK N   1      29.063  18.276   7.984  0.00  0.00     0.058 A 
HETATM   24  C   UNK N   1      28.128  19.177   7.471  0.00  0.00     0.029 A 
HETATM   25  C   UNK N   1      27.903  19.236   6.095  0.00  0.00     0.049 A 
HETATM   26  C   UNK N   1      28.634  18.407   5.246  0.00  0.00     0.114 A 
HETATM   27 Cl   UNK N   1      26.703  20.326   5.439  0.00  0.00    -0.083 Cl
HETATM   28  N   UNK N   1      29.542  17.538   5.763  0.00  0.00    -0.345 N 
ATOM     29  HN  UNK N   1      30.073  16.940   5.129  1.00  0.00     0.167 HD
ENDBRANCH  21  22
ENDBRANCH   4  21
TORSDOF 5
ENDMDL
MODEL 5
REMARK VINA RESULT:      -7.0      2.390      3.232
REMARK  5 active torsions:
REMARK  status: ('A' for Active; 'I' for Inactive)
REMARK    1  A    between atoms: C_2  and  C_9 
REMARK    2  A    between atoms: C_9  and  S_10 
REMARK    3  A    between atoms: S_10  and  N_13 
REMARK    4  A    between atoms: C_16  and  O_19 
REMARK    5  A    between atoms: O_19  and  C_20 
ROOT
HETATM    1  N   UNK N   1      35.182  13.440   7.614  0.00  0.00    -0.210 NA
HETATM    2  C   UNK N   1      36.585  13.733   7.977  0.00  0.00     0.109 C 
HETATM    3  C   UNK N   1      36.913  13.334   9.430  0.00  0.00     0.048 C 
HETATM    4  C   UNK N   1      35.922  13.927  10.451  0.00  0.00     0.133 C 
HETATM    5  C   UNK N   1      34.790  14.668   9.729  0.00  0.00     0.048 C 
HETATM    6  C   UNK N   1      34.217  13.722   8.686  0.00  0.00     0.109 C 
ENDROOT
BRANCH   1   7
HETATM    7  S   UNK N   1      34.676  14.430   6.226  0.00  0.00     0.214 S 
HETATM    8  O   UNK N   1      34.584  13.414   5.079  0.00  0.00    -0.211 OA
HETATM    9  O   UNK N   1      35.894  15.261   5.791  0.00  0.00    -0.211 OA
BRANCH   7  10
HETATM   10  C   UNK N   1      33.096  15.352   6.365  0.00  0.00     0.198 C 
BRANCH  10  11
HETATM   11  C   UNK N   1      33.192  16.880   6.395  0.00  0.00     0.126 A 
HETATM   12  C   UNK N   1      33.085  17.498   5.010  0.00  0.00     0.050 C 
HETATM   13  C   UNK N   1      32.236  17.515   7.379  0.00  0.00     0.254 A 
HETATM   14  O   UNK N   1      31.019  17.496   7.302  0.00  0.00    -0.270 OA
HETATM   15  N   UNK N   1      32.888  18.126   8.378  0.00  0.00    -0.277 N 
HETATM   16  C   UNK N   1      34.190  17.960   8.140  0.00  0.00     0.323 A 
HETATM   17  H   UNK N   1      32.485  18.605   9.138  0.00  0.00     0.173 HD
HETATM   18  O   UNK N   1      35.064  18.396   8.872  0.00  0.00    -0.247 OA
HETATM   19  N   UNK N   1      34.446  17.264   7.018  0.00  0.00    -0.324 N 
HETATM   20  H   UNK N   1      35.343  17.049   6.675  0.00  0.00     0.165 HD
ENDBRANCH  10  11
ENDBRANCH   7  10
ENDBRANCH   1   7
BRANCH   4  21
HETATM   21  O   UNK N   1      35.411  12.889  11.215  0.00  0.00    -0.330 OA
BRANCH  21  22
HETATM   22  C   UNK N   1      35.296  12.921  12.568  0.00  0.00     0.142 A 
HETATM   23  C   UNK N   1      36.091  13.805  13.302  0.00  0.00     0.058 A 
HETATM   24  C   UNK N   1      36.044  13.773  14.697  0.00  0.00     0.029 A 
HETATM   25  C   UNK N   1      35.207  12.860  15.340  0.00  0.00     0.049 A 
HETATM   26  C   UNK N   1      34.410  12.007  14.580  0.00  0.00     0.114 A 
HETATM   27 Cl   UNK N   1      35.168  12.772  17.087  0.00  0.00    -0.083 Cl
HETATM   28  N   UNK N   1      34.468  12.054  13.223  0.00  0.00    -0.345 N 
ATOM     29  HN  UNK N   1      33.877  11.427  12.679  1.00  0.00     0.167 HD
ENDBRANCH  21  22
ENDBRANCH   4  21
TORSDOF 5
ENDMDL
MODEL 6
REMARK VINA RESULT:      -7.0      2.687      4.041
REMARK  5 active torsions:
REMARK  status: ('A' for Active; 'I' for Inactive)
REMARK    1  A    between atoms: C_2  and  C_9 
REMARK    2  A    between atoms: C_9  and  S_10 
REMARK    3  A    between atoms: S_10  and  N_13 
REMARK    4  A    between atoms: C_16  and  O_19 
REMARK    5  A    between atoms: O_19  and  C_20 
ROOT
HETATM    1  N   UNK N   1      34.805  15.846   8.317  0.00  0.00    -0.210 NA
HETATM    2  C   UNK N   1      33.596  15.615   9.137  0.00  0.00     0.109 C 
HETATM    3  C   UNK N   1      33.904  14.849  10.438  0.00  0.00     0.048 C 
HETATM    4  C   UNK N   1      34.686  13.543  10.193  0.00  0.00     0.133 C 
HETATM    5  C   UNK N   1      35.057  13.414   8.711  0.00  0.00     0.048 C 
HETATM    6  C   UNK N   1      35.736  14.709   8.294  0.00  0.00     0.109 C 
ENDROOT
BRANCH   1   7
HETATM    7  S   UNK N   1      34.363  16.152   6.623  0.00  0.00     0.214 S 
HETATM    8  O   UNK N   1      35.576  15.632   5.839  0.00  0.00    -0.211 OA
HETATM    9  O   UNK N   1      34.483  17.666   6.387  0.00  0.00    -0.211 OA
BRANCH   7  10
HETATM   10  C   UNK N   1      32.832  15.369   5.984  0.00  0.00     0.198 C 
BRANCH  10  11
HETATM   11  C   UNK N   1      31.694  16.311   5.581  0.00  0.00     0.126 A 
HETATM   12  C   UNK N   1      31.913  16.937   4.213  0.00  0.00     0.050 C 
HETATM   13  C   UNK N   1      30.327  15.679   5.708  0.00  0.00     0.254 A 
HETATM   14  O   UNK N   1      29.913  14.740   5.047  0.00  0.00    -0.270 OA
HETATM   15  N   UNK N   1      29.589  16.281   6.650  0.00  0.00    -0.277 N 
HETATM   16  C   UNK N   1      30.341  17.260   7.155  0.00  0.00     0.323 A 
HETATM   17  H   UNK N   1      28.671  16.047   6.918  0.00  0.00     0.173 HD
HETATM   18  O   UNK N   1      29.962  18.003   8.046  0.00  0.00    -0.247 OA
HETATM   19  N   UNK N   1      31.558  17.348   6.588  0.00  0.00    -0.324 N 
HETATM   20  H   UNK N   1      32.247  18.011   6.821  0.00  0.00     0.165 HD
ENDBRANCH  10  11
ENDBRANCH   7  10
ENDBRANCH   1   7
BRANCH   4  21
HETATM   21  O   UNK N   1      35.828  13.566  10.978  0.00  0.00    -0.330 OA
BRANCH  21  22
HETATM   22  C   UNK N   1      35.829  13.437  12.330  0.00  0.00     0.142 A 
HETATM   23  C   UNK N   1      34.950  12.532  12.932  0.00  0.00     0.058 A 
HETATM   24  C   UNK N   1      34.882  12.467  14.325  0.00  0.00     0.029 A 
HETATM   25  C   UNK N   1      35.688  13.305  15.098  0.00  0.00     0.049 A 
HETATM   26  C   UNK N   1      36.570  14.180  14.467  0.00  0.00     0.114 A 
HETATM   27 Cl   UNK N   1      35.584  13.270  16.844  0.00  0.00    -0.083 Cl
HETATM   28  N   UNK N   1      36.624  14.228  13.110  0.00  0.00    -0.345 N 
ATOM     29  HN  UNK N   1      37.276  14.871  12.662  1.00  0.00     0.167 HD
ENDBRANCH  21  22
ENDBRANCH   4  21
TORSDOF 5
ENDMDL
MODEL 7
REMARK VINA RESULT:      -7.0      2.995      4.523
REMARK  5 active torsions:
REMARK  status: ('A' for Active; 'I' for Inactive)
REMARK    1  A    between atoms: C_2  and  C_9 
REMARK    2  A    between atoms: C_9  and  S_10 
REMARK    3  A    between atoms: S_10  and  N_13 
REMARK    4  A    between atoms: C_16  and  O_19 
REMARK    5  A    between atoms: O_19  and  C_20 
ROOT
HETATM    1  N   UNK N   1      33.821  15.798   8.010  0.00  0.00    -0.210 NA
HETATM    2  C   UNK N   1      34.968  14.876   7.865  0.00  0.00     0.109 C 
HETATM    3  C   UNK N   1      35.333  14.177   9.189  0.00  0.00     0.048 C 
HETATM    4  C   UNK N   1      35.539  15.167  10.352  0.00  0.00     0.133 C 
HETATM    5  C   UNK N   1      35.205  16.594   9.903  0.00  0.00     0.048 C 
HETATM    6  C   UNK N   1      33.826  16.563   9.265  0.00  0.00     0.109 C 
ENDROOT
BRANCH   1   7
HETATM    7  S   UNK N   1      33.816  17.002   6.703  0.00  0.00     0.214 S 
HETATM    8  O   UNK N   1      34.796  16.417   5.676  0.00  0.00    -0.211 OA
HETATM    9  O   UNK N   1      34.605  18.222   7.205  0.00  0.00    -0.211 OA
BRANCH   7  10
HETATM   10  C   UNK N   1      32.215  17.374   5.888  0.00  0.00     0.198 C 
BRANCH  10  11
HETATM   11  C   UNK N   1      31.000  16.571   6.361  0.00  0.00     0.126 A 
HETATM   12  C   UNK N   1      30.467  17.056   7.699  0.00  0.00     0.050 C 
HETATM   13  C   UNK N   1      29.913  16.469   5.316  0.00  0.00     0.254 A 
HETATM   14  O   UNK N   1      29.252  17.399   4.883  0.00  0.00    -0.270 OA
HETATM   15  N   UNK N   1      29.740  15.206   4.903  0.00  0.00    -0.277 N 
HETATM   16  C   UNK N   1      30.610  14.461   5.585  0.00  0.00     0.323 A 
HETATM   17  H   UNK N   1      29.097  14.890   4.228  0.00  0.00     0.173 HD
HETATM   18  O   UNK N   1      30.715  13.253   5.439  0.00  0.00    -0.247 OA
HETATM   19  N   UNK N   1      31.363  15.168   6.447  0.00  0.00    -0.324 N 
HETATM   20  H   UNK N   1      32.051  14.792   7.043  0.00  0.00     0.165 HD
ENDBRANCH  10  11
ENDBRANCH   7  10
ENDBRANCH   1   7
BRANCH   4  21
HETATM   21  O   UNK N   1      34.717  14.785  11.401  0.00  0.00    -0.330 OA
BRANCH  21  22
HETATM   22  C   UNK N   1      35.107  13.979  12.422  0.00  0.00     0.142 A 
HETATM   23  C   UNK N   1      36.086  14.427  13.313  0.00  0.00     0.058 A 
HETATM   24  C   UNK N   1      36.556  13.564  14.305  0.00  0.00     0.029 A 
HETATM   25  C   UNK N   1      36.045  12.268  14.395  0.00  0.00     0.049 A 
HETATM   26  C   UNK N   1      35.053  11.860  13.505  0.00  0.00     0.114 A 
HETATM   27 Cl   UNK N   1      36.653  11.158  15.602  0.00  0.00    -0.083 Cl
HETATM   28  N   UNK N   1      34.607  12.714  12.548  0.00  0.00    -0.345 N 
ATOM     29  HN  UNK N   1      33.878  12.403  11.906  1.00  0.00     0.167 HD
ENDBRANCH  21  22
ENDBRANCH   4  21
TORSDOF 5
ENDMDL
MODEL 8
REMARK VINA RESULT:      -6.9      5.652      9.406
REMARK  5 active torsions:
REMARK  status: ('A' for Active; 'I' for Inactive)
REMARK    1  A    between atoms: C_2  and  C_9 
REMARK    2  A    between atoms: C_9  and  S_10 
REMARK    3  A    between atoms: S_10  and  N_13 
REMARK    4  A    between atoms: C_16  and  O_19 
REMARK    5  A    between atoms: O_19  and  C_20 
ROOT
HETATM    1  N   UNK N   1      33.789  15.530   6.939  0.00  0.00    -0.210 NA
HETATM    2  C   UNK N   1      33.894  16.709   6.053  0.00  0.00     0.109 C 
HETATM    3  C   UNK N   1      32.539  17.415   5.848  0.00  0.00     0.048 C 
HETATM    4  C   UNK N   1      31.425  16.452   5.390  0.00  0.00     0.133 C 
HETATM    5  C   UNK N   1      31.942  15.009   5.374  0.00  0.00     0.048 C 
HETATM    6  C   UNK N   1      32.572  14.733   6.730  0.00  0.00     0.109 C 
ENDROOT
BRANCH   1   7
HETATM    7  S   UNK N   1      35.153  14.422   6.671  0.00  0.00     0.214 S 
HETATM    8  O   UNK N   1      35.984  15.134   5.593  0.00  0.00    -0.211 OA
HETATM    9  O   UNK N   1      34.613  13.218   5.882  0.00  0.00    -0.211 OA
BRANCH   7  10
HETATM   10  C   UNK N   1      36.220  14.015   8.107  0.00  0.00     0.198 C 
BRANCH  10  11
HETATM   11  C   UNK N   1      35.627  14.266   9.496  0.00  0.00     0.126 A 
HETATM   12  C   UNK N   1      34.569  13.241   9.872  0.00  0.00     0.050 C 
HETATM   13  C   UNK N   1      36.680  14.421  10.570  0.00  0.00     0.254 A 
HETATM   14  O   UNK N   1      37.446  13.550  10.947  0.00  0.00    -0.270 OA
HETATM   15  N   UNK N   1      36.681  15.658  11.087  0.00  0.00    -0.277 N 
HETATM   16  C   UNK N   1      35.720  16.334  10.457  0.00  0.00     0.323 A 
HETATM   17  H   UNK N   1      37.275  16.000  11.793  0.00  0.00     0.173 HD
HETATM   18  O   UNK N   1      35.461  17.504  10.691  0.00  0.00    -0.247 OA
HETATM   19  N   UNK N   1      35.064  15.604   9.537  0.00  0.00    -0.324 N 
HETATM   20  H   UNK N   1      34.319  15.926   8.980  0.00  0.00     0.165 HD
ENDBRANCH  10  11
ENDBRANCH   7  10
ENDBRANCH   1   7
BRANCH   4  21
HETATM   21  O   UNK N   1      30.357  16.575   6.264  0.00  0.00    -0.330 OA
BRANCH  21  22
HETATM   22  C   UNK N   1      29.430  17.566   6.204  0.00  0.00     0.142 A 
HETATM   23  C   UNK N   1      29.019  18.044   4.958  0.00  0.00     0.058 A 
HETATM   24  C   UNK N   1      28.139  19.126   4.895  0.00  0.00     0.029 A 
HETATM   25  C   UNK N   1      27.683  19.717   6.075  0.00  0.00     0.049 A 
HETATM   26  C   UNK N   1      28.095  19.202   7.302  0.00  0.00     0.114 A 
HETATM   27 Cl   UNK N   1      26.617  21.103   6.017  0.00  0.00    -0.083 Cl
HETATM   28  N   UNK N   1      28.950  18.147   7.343  0.00  0.00    -0.345 N 
ATOM     29  HN  UNK N   1      29.240  17.779   8.249  1.00  0.00     0.167 HD
ENDBRANCH  21  22
ENDBRANCH   4  21
TORSDOF 5
ENDMDL
MODEL 9
REMARK VINA RESULT:      -6.8      1.626      2.019
REMARK  5 active torsions:
REMARK  status: ('A' for Active; 'I' for Inactive)
REMARK    1  A    between atoms: C_2  and  C_9 
REMARK    2  A    between atoms: C_9  and  S_10 
REMARK    3  A    between atoms: S_10  and  N_13 
REMARK    4  A    between atoms: C_16  and  O_19 
REMARK    5  A    between atoms: O_19  and  C_20 
ROOT
HETATM    1  N   UNK N   1      36.557  13.962  11.843  0.00  0.00    -0.210 NA
HETATM    2  C   UNK N   1      36.107  14.571  13.113  0.00  0.00     0.109 C 
HETATM    3  C   UNK N   1      36.023  13.546  14.261  0.00  0.00     0.048 C 
HETATM    4  C   UNK N   1      35.187  12.304  13.895  0.00  0.00     0.133 C 
HETATM    5  C   UNK N   1      34.755  12.366  12.425  0.00  0.00     0.048 C 
HETATM    6  C   UNK N   1      35.999  12.625  11.592  0.00  0.00     0.109 C 
ENDROOT
BRANCH   1   7
HETATM    7  S   UNK N   1      36.067  14.965  10.460  0.00  0.00     0.214 S 
HETATM    8  O   UNK N   1      36.990  14.489   9.329  0.00  0.00    -0.211 OA
HETATM    9  O   UNK N   1      36.609  16.382  10.710  0.00  0.00    -0.211 OA
BRANCH   7  10
HETATM   10  C   UNK N   1      34.318  14.870   9.912  0.00  0.00     0.198 C 
BRANCH  10  11
HETATM   11  C   UNK N   1      33.957  15.630   8.633  0.00  0.00     0.126 A 
HETATM   12  C   UNK N   1      33.890  14.723   7.415  0.00  0.00     0.050 C 
HETATM   13  C   UNK N   1      32.717  16.482   8.780  0.00  0.00     0.254 A 
HETATM   14  O   UNK N   1      31.585  16.065   8.967  0.00  0.00    -0.270 OA
HETATM   15  N   UNK N   1      32.998  17.788   8.673  0.00  0.00    -0.277 N 
HETATM   16  C   UNK N   1      34.311  17.878   8.462  0.00  0.00     0.323 A 
HETATM   17  H   UNK N   1      32.360  18.535   8.737  0.00  0.00     0.173 HD
HETATM   18  O   UNK N   1      34.895  18.942   8.325  0.00  0.00    -0.247 OA
HETATM   19  N   UNK N   1      34.931  16.685   8.417  0.00  0.00    -0.324 N 
HETATM   20  H   UNK N   1      35.894  16.549   8.261  0.00  0.00     0.165 HD
ENDBRANCH  10  11
ENDBRANCH   7  10
ENDBRANCH   1   7
BRANCH   4  21
HETATM   21  O   UNK N   1      35.959  11.175  14.125  0.00  0.00    -0.330 OA
BRANCH  21  22
HETATM   22  C   UNK N   1      35.908  10.434  15.261  0.00  0.00     0.142 A 
HETATM   23  C   UNK N   1      34.718  10.380  15.991  0.00  0.00     0.058 A 
HETATM   24  C   UNK N   1      34.691   9.696  17.209  0.00  0.00     0.029 A 
HETATM   25  C   UNK N   1      35.850   9.078  17.681  0.00  0.00     0.049 A 
HETATM   26  C   UNK N   1      37.014   9.131  16.919  0.00  0.00     0.114 A 
HETATM   27 Cl   UNK N   1      35.848   8.256  19.226  0.00  0.00    -0.083 Cl
HETATM   28  N   UNK N   1      37.021   9.799  15.735  0.00  0.00    -0.345 N 
ATOM     29  HN  UNK N   1      37.880   9.827  15.186  1.00  0.00     0.167 HD
ENDBRANCH  21  22
ENDBRANCH   4  21
TORSDOF 5
ENDMDL
