REMARK  11 active torsions:
REMARK  status: ('A' for Active; 'I' for Inactive)
REMARK    1  A    between atoms: N_37  and  C_5 
REMARK    2  A    between atoms: N_33  and  C_17 
REMARK    3  A    between atoms: N_38  and  C_18 
REMARK    4  A    between atoms: O_40  and  C_19 
REMARK    5  A    between atoms: O_41  and  C_20 
REMARK    6  A    between atoms: N_33  and  C_21 
REMARK    7  A    between atoms: N_36  and  C_22 
REMARK    8  A    between atoms: N_34  and  C_25 
REMARK    9  A    between atoms: N_34  and  C_26 
REMARK   10  A    between atoms: N_36  and  C_26 
REMARK   11  A    between atoms: O_39  and  C_26 
ROOT
HETATM    1  C   UNK N   1       2.882  -5.458   0.238  0.00  0.00     0.097 A 
HETATM    2  C   UNK N   1       0.726  -4.705   1.767  0.00  0.00     0.183 A 
HETATM    3  C   UNK N   1       3.007  -4.465   1.195  0.00  0.00     0.110 A 
HETATM    4  C   UNK N   1       1.650  -6.085   0.075  0.00  0.00     0.114 A 
HETATM    5  N   UNK N   1       1.918  -4.080   1.917  0.00  0.00    -0.338 N 
ATOM      6  HN  UNK N   1       2.002  -3.310   2.581  1.00  0.00     0.168 HD
HETATM    7  N   UNK N   1       0.597  -5.691   0.847  0.00  0.00    -0.338 N 
ATOM      8  HN  UNK N   1      -0.307  -6.149   0.729  1.00  0.00     0.168 HD
ENDROOT
BRANCH   4   9
HETATM    9  N   UNK N   1       1.485  -7.079  -0.938  0.00  0.00    -0.303 N 
HETATM   10  C   UNK N   1       2.540  -7.303  -1.900  0.00  0.00     0.161 C 
BRANCH   9  11
HETATM   11  C   UNK N   1       0.320  -7.896  -1.002  0.00  0.00     0.225 C 
BRANCH  11  12
HETATM   12  N   UNK N   1      -0.559  -7.850  -0.059  0.00  0.00    -0.319 N 
ATOM     13  HN  UNK N   1      -0.443  -7.149   0.673  1.00  0.00     0.169 HD
BRANCH  12  14
HETATM   14  C   UNK N   1      -1.678  -8.716   0.018  0.00  0.00     0.084 A 
HETATM   15  C   UNK N   1      -1.494 -10.120   0.055  0.00  0.00     0.096 A 
HETATM   16  C   UNK N   1      -2.631 -10.966   0.114  0.00  0.00     0.095 A 
HETATM   17 Cl   UNK N   1       0.162 -10.760   0.089  0.00  0.00    -0.079 Cl
HETATM   18  C   UNK N   1      -3.899 -10.387   0.155  0.00  0.00     0.077 A 
HETATM   19  C   UNK N   1      -4.097  -9.007   0.147  0.00  0.00     0.095 A 
HETATM   20  C   UNK N   1      -2.964  -8.153   0.085  0.00  0.00     0.096 A 
HETATM   21 Cl   UNK N   1      -3.083  -6.385   0.081  0.00  0.00    -0.079 Cl
BRANCH  16  22
HETATM   22  O   UNK N   1      -2.581 -12.326   0.138  0.00  0.00    -0.354 OA
HETATM   23  C   UNK N   1      -1.466 -13.119   0.003  0.00  0.00     0.210 C 
ENDBRANCH  16  22
BRANCH  19  24
HETATM   24  O   UNK N   1      -5.387  -8.577   0.194  0.00  0.00    -0.354 OA
HETATM   25  C   UNK N   1      -5.830  -7.278   0.130  0.00  0.00     0.210 C 
ENDBRANCH  19  24
ENDBRANCH  12  14
ENDBRANCH  11  12
BRANCH  11  26
HETATM   26  O   UNK N   1       0.159  -8.742  -2.047  0.00  0.00    -0.332 OA
HETATM   27  H   UNK N   1      -0.404  -8.938  -2.770  0.00  0.00     0.221 HD
ENDBRANCH  11  26
ENDBRANCH   9  11
ENDBRANCH   4   9
BRANCH   3  28
HETATM   28  N   UNK N   1       4.123  -3.611   1.130  0.00  0.00    -0.342 N 
HETATM   29  H   UNK N   1       5.002  -3.880   1.483  0.00  0.00     0.167 HD
BRANCH  28  30
HETATM   30  C   UNK N   1       3.917  -2.346   0.532  0.00  0.00     0.033 A 
HETATM   31  C   UNK N   1       4.847  -1.318   0.685  0.00  0.00     0.032 A 
HETATM   32  C   UNK N   1       4.556  -0.050   0.169  0.00  0.00     0.031 A 
HETATM   33  C   UNK N   1       3.335   0.188  -0.495  0.00  0.00     0.030 A 
HETATM   34  C   UNK N   1       2.439  -0.862  -0.682  0.00  0.00     0.031 A 
HETATM   35  C   UNK N   1       2.730  -2.110  -0.181  0.00  0.00     0.032 A 
BRANCH  33  36
HETATM   36  N   UNK N   1       2.969   1.495  -0.907  0.00  0.00    -0.378 N 
HETATM   37  C   UNK N   1       1.602   1.784  -1.294  0.00  0.00     0.153 C 
HETATM   38  C   UNK N   1       1.035   2.797  -0.301  0.00  0.00     0.292 C 
HETATM   39  N   UNK N   1       1.909   3.971  -0.272  0.00  0.00     0.091 N 
HETATM   40  C   UNK N   1       3.227   3.584   0.240  0.00  0.00     0.292 C 
HETATM   41  C   UNK N   1       3.875   2.603  -0.725  0.00  0.00     0.153 C 
BRANCH  39  42
HETATM   42  C   UNK N   1       1.339   4.947   0.639  0.00  0.00     0.268 C 
HETATM   43  C   UNK N   1       1.914   6.319   0.335  0.00  0.00     0.037 C 
ENDBRANCH  39  42
ENDBRANCH  33  36
ENDBRANCH  28  30
ENDBRANCH   3  28
TORSDOF 11
