MODEL 1
REMARK VINA RESULT:      -6.7      0.000      0.000
REMARK  3 active torsions:
REMARK  status: ('A' for Active; 'I' for Inactive)
REMARK    1  A    between atoms: C_4  and  C_8 
REMARK    2  A    between atoms: C_21  and  C_16 
REMARK    3  A    between atoms: C_18  and  N_19 
ROOT
HETATM    1  C   UNK N   1      29.090  17.579   8.344  0.00  0.00     0.040 A 
HETATM    2  C   UNK N   1      28.958  17.475   9.729  0.00  0.00     0.124 A 
HETATM    3  N   UNK N   1      30.027  16.770  10.201  0.00  0.00    -0.301 N 
ATOM      4  HN  UNK N   1      30.208  16.534  11.177  1.00  0.00     0.186 HD
HETATM    5  N   UNK N   1      30.786  16.445   9.166  0.00  0.00    -0.222 N 
HETATM    6  C   UNK N   1      30.248  16.923   8.055  0.00  0.00     0.142 A 
HETATM    7  N   UNK N   1      30.807  16.737   6.848  0.00  0.00    -0.342 N 
ATOM      8  HN  UNK N   1      30.365  17.134   6.020  1.00  0.00     0.167 HD
HETATM    9  C   UNK N   1      31.959  16.023   6.719  0.00  0.00     0.037 A 
HETATM   10  C   UNK N   1      32.575  15.491   7.907  0.00  0.00     0.079 A 
HETATM   11  C   UNK N   1      31.939  15.731   9.154  0.00  0.00     0.142 A 
HETATM   12 Br   UNK N   1      34.220  14.493   7.906  0.00  0.00    -0.045 Br
ENDROOT
BRANCH   1  13
HETATM   13  C   UNK N   1      28.207  18.209   7.351  0.00  0.00     0.013 A 
HETATM   14  C   UNK N   1      28.005  19.568   7.216  0.00  0.00     0.123 A 
HETATM   15  N   UNK N   1      27.159  19.743   6.194  0.00  0.00    -0.307 N 
HETATM   16  C   UNK N   1      26.682  21.026   5.713  0.00  0.00     0.177 C 
HETATM   17  N   UNK N   1      26.818  18.575   5.675  0.00  0.00    -0.310 N 
HETATM   18  C   UNK N   1      27.449  17.601   6.368  0.00  0.00     0.121 A 
ATOM     19  HN  UNK N   1      26.187  18.433   4.887  1.00  0.00     0.186 HD
ENDBRANCH   1  13
BRANCH  11  20
HETATM   20  N   UNK N   1      32.485  15.238  10.359  0.00  0.00    -0.383 N 
HETATM   21  H   UNK N   1      32.112  14.426  10.774  0.00  0.00     0.157 HD
HETATM   22  H   UNK N   1      33.239  15.706  10.786  0.00  0.00     0.157 HD
ENDBRANCH  11  20
BRANCH   9  23
HETATM   23  C   UNK N   1      32.485  15.890   5.301  0.00  0.00     0.054 C 
HETATM   24  C   UNK N   1      31.934  17.000   4.397  0.00  0.00     0.014 C 
HETATM   25  C   UNK N   1      32.722  17.084   3.090  0.00  0.00     0.020 C 
HETATM   26  C   UNK N   1      33.378  15.747   2.733  0.00  0.00     0.113 C 
HETATM   27  N   UNK N   1      32.510  14.634   3.120  0.00  0.00    -0.420 N 
HETATM   28  C   UNK N   1      32.374  14.536   4.584  0.00  0.00     0.124 C 
HETATM   29  H   UNK N   1      32.056  14.005   2.458  0.00  0.00     0.153 HD
ENDBRANCH   9  23
TORSDOF 3
ENDMDL
MODEL 2
REMARK VINA RESULT:      -6.4      2.350      6.000
REMARK  3 active torsions:
REMARK  status: ('A' for Active; 'I' for Inactive)
REMARK    1  A    between atoms: C_4  and  C_8 
REMARK    2  A    between atoms: C_21  and  C_16 
REMARK    3  A    between atoms: C_18  and  N_19 
ROOT
HETATM    1  C   UNK N   1      30.503  16.277   4.005  0.00  0.00     0.040 A 
HETATM    2  C   UNK N   1      29.218  16.521   3.519  0.00  0.00     0.124 A 
HETATM    3  N   UNK N   1      28.491  17.091   4.523  0.00  0.00    -0.301 N 
ATOM      4  HN  UNK N   1      27.516  17.385   4.467  1.00  0.00     0.186 HD
HETATM    5  N   UNK N   1      29.277  17.193   5.584  0.00  0.00    -0.222 N 
HETATM    6  C   UNK N   1      30.479  16.720   5.292  0.00  0.00     0.142 A 
HETATM    7  N   UNK N   1      31.478  16.696   6.189  0.00  0.00    -0.342 N 
ATOM      8  HN  UNK N   1      32.392  16.334   5.917  1.00  0.00     0.167 HD
HETATM    9  C   UNK N   1      31.284  17.149   7.457  0.00  0.00     0.037 A 
HETATM   10  C   UNK N   1      29.991  17.675   7.809  0.00  0.00     0.079 A 
HETATM   11  C   UNK N   1      28.979  17.682   6.813  0.00  0.00     0.142 A 
HETATM   12 Br   UNK N   1      29.560  18.388   9.544  0.00  0.00    -0.045 Br
ENDROOT
BRANCH   1  13
HETATM   13  C   UNK N   1      31.664  15.656   3.349  0.00  0.00     0.013 A 
HETATM   14  C   UNK N   1      31.773  14.317   3.028  0.00  0.00     0.123 A 
HETATM   15  N   UNK N   1      32.956  14.150   2.426  0.00  0.00    -0.307 N 
HETATM   16  C   UNK N   1      33.468  12.888   1.924  0.00  0.00     0.177 C 
HETATM   17  N   UNK N   1      33.598  15.304   2.346  0.00  0.00    -0.310 N 
HETATM   18  C   UNK N   1      32.827  16.260   2.909  0.00  0.00     0.121 A 
ATOM     19  HN  UNK N   1      34.518  15.448   1.930  1.00  0.00     0.186 HD
ENDBRANCH   1  13
BRANCH  11  20
HETATM   20  N   UNK N   1      27.686  18.181   7.088  0.00  0.00    -0.383 N 
HETATM   21  H   UNK N   1      27.285  18.860   6.498  0.00  0.00     0.157 HD
HETATM   22  H   UNK N   1      27.187  17.850   7.869  0.00  0.00     0.157 HD
ENDBRANCH  11  20
BRANCH   9  23
HETATM   23  C   UNK N   1      32.497  17.067   8.368  0.00  0.00     0.054 C 
HETATM   24  C   UNK N   1      33.725  17.715   7.719  0.00  0.00     0.014 C 
HETATM   25  C   UNK N   1      34.828  17.953   8.750  0.00  0.00     0.020 C 
HETATM   26  C   UNK N   1      34.726  16.981   9.929  0.00  0.00     0.113 C 
HETATM   27  N   UNK N   1      34.275  15.667   9.468  0.00  0.00    -0.420 N 
HETATM   28  C   UNK N   1      32.887  15.711   8.975  0.00  0.00     0.124 C 
HETATM   29  H   UNK N   1      34.851  14.825   9.486  0.00  0.00     0.153 HD
ENDBRANCH   9  23
TORSDOF 3
ENDMDL
MODEL 3
REMARK VINA RESULT:      -6.3      1.763      2.324
REMARK  3 active torsions:
REMARK  status: ('A' for Active; 'I' for Inactive)
REMARK    1  A    between atoms: C_4  and  C_8 
REMARK    2  A    between atoms: C_21  and  C_16 
REMARK    3  A    between atoms: C_18  and  N_19 
ROOT
HETATM    1  C   UNK N   1      27.785  19.087   6.722  0.00  0.00     0.040 A 
HETATM    2  C   UNK N   1      27.281  19.358   7.995  0.00  0.00     0.124 A 
HETATM    3  N   UNK N   1      28.048  18.686   8.902  0.00  0.00    -0.301 N 
ATOM      4  HN  UNK N   1      27.924  18.692   9.915  1.00  0.00     0.186 HD
HETATM    5  N   UNK N   1      28.980  18.026   8.233  0.00  0.00    -0.222 N 
HETATM    6  C   UNK N   1      28.843  18.257   6.936  0.00  0.00     0.142 A 
HETATM    7  N   UNK N   1      29.655  17.707   6.019  0.00  0.00    -0.342 N 
ATOM      8  HN  UNK N   1      29.520  17.923   5.032  1.00  0.00     0.167 HD
HETATM    9  C   UNK N   1      30.655  16.864   6.393  0.00  0.00     0.037 A 
HETATM   10  C   UNK N   1      30.837  16.592   7.795  0.00  0.00     0.079 A 
HETATM   11  C   UNK N   1      29.951  17.212   8.716  0.00  0.00     0.142 A 
HETATM   12 Br   UNK N   1      32.222  15.455   8.496  0.00  0.00    -0.045 Br
ENDROOT
BRANCH   1  13
HETATM   13  C   UNK N   1      27.316  19.532   5.401  0.00  0.00     0.013 A 
HETATM   14  C   UNK N   1      25.992  19.637   5.021  0.00  0.00     0.123 A 
HETATM   15  N   UNK N   1      25.976  20.094   3.764  0.00  0.00    -0.307 N 
HETATM   16  C   UNK N   1      24.780  20.351   2.983  0.00  0.00     0.177 C 
HETATM   17  N   UNK N   1      27.210  20.286   3.330  0.00  0.00    -0.310 N 
HETATM   18  C   UNK N   1      28.067  19.948   4.318  0.00  0.00     0.121 A 
ATOM     19  HN  UNK N   1      27.471  20.632   2.407  1.00  0.00     0.186 HD
ENDBRANCH   1  13
BRANCH  11  20
HETATM   20  N   UNK N   1      30.069  16.990  10.106  0.00  0.00    -0.383 N 
HETATM   21  H   UNK N   1      29.819  16.118  10.488  0.00  0.00     0.157 HD
HETATM   22  H   UNK N   1      30.401  17.708  10.693  0.00  0.00     0.157 HD
ENDBRANCH  11  20
BRANCH   9  23
HETATM   23  C   UNK N   1      31.500  16.315   5.257  0.00  0.00     0.054 C 
HETATM   24  C   UNK N   1      31.638  17.336   4.122  0.00  0.00     0.014 C 
HETATM   25  C   UNK N   1      32.758  16.938   3.161  0.00  0.00     0.020 C 
HETATM   26  C   UNK N   1      33.009  15.427   3.171  0.00  0.00     0.113 C 
HETATM   27  N   UNK N   1      31.748  14.703   3.340  0.00  0.00    -0.420 N 
HETATM   28  C   UNK N   1      31.162  14.934   4.672  0.00  0.00     0.124 C 
HETATM   29  H   UNK N   1      31.327  14.112   2.623  0.00  0.00     0.153 HD
ENDBRANCH   9  23
TORSDOF 3
ENDMDL
MODEL 4
REMARK VINA RESULT:      -6.1      5.423      9.455
REMARK  3 active torsions:
REMARK  status: ('A' for Active; 'I' for Inactive)
REMARK    1  A    between atoms: C_4  and  C_8 
REMARK    2  A    between atoms: C_21  and  C_16 
REMARK    3  A    between atoms: C_18  and  N_19 
ROOT
HETATM    1  C   UNK N   1      25.935  19.407   4.444  0.00  0.00     0.040 A 
HETATM    2  C   UNK N   1      26.178  20.364   3.459  0.00  0.00     0.124 A 
HETATM    3  N   UNK N   1      24.998  20.623   2.824  0.00  0.00    -0.301 N 
ATOM      4  HN  UNK N   1      24.859  21.283   2.059  1.00  0.00     0.186 HD
HETATM    5  N   UNK N   1      24.066  19.863   3.379  0.00  0.00    -0.222 N 
HETATM    6  C   UNK N   1      24.604  19.139   4.348  0.00  0.00     0.142 A 
HETATM    7  N   UNK N   1      23.885  18.272   5.080  0.00  0.00    -0.342 N 
ATOM      8  HN  UNK N   1      24.338  17.744   5.825  1.00  0.00     0.167 HD
HETATM    9  C   UNK N   1      22.559  18.091   4.838  0.00  0.00     0.037 A 
HETATM   10  C   UNK N   1      21.939  18.866   3.794  0.00  0.00     0.079 A 
HETATM   11  C   UNK N   1      22.751  19.772   3.063  0.00  0.00     0.142 A 
HETATM   12 Br   UNK N   1      20.070  18.759   3.346  0.00  0.00    -0.045 Br
ENDROOT
BRANCH   1  13
HETATM   13  C   UNK N   1      26.860  18.761   5.388  0.00  0.00     0.013 A 
HETATM   14  C   UNK N   1      27.434  19.375   6.484  0.00  0.00     0.123 A 
HETATM   15  N   UNK N   1      28.188  18.458   7.101  0.00  0.00    -0.307 N 
HETATM   16  C   UNK N   1      28.966  18.687   8.304  0.00  0.00     0.177 C 
HETATM   17  N   UNK N   1      28.120  17.302   6.462  0.00  0.00    -0.310 N 
HETATM   18  C   UNK N   1      27.306  17.453   5.394  0.00  0.00     0.121 A 
ATOM     19  HN  UNK N   1      28.601  16.443   6.729  1.00  0.00     0.186 HD
ENDBRANCH   1  13
BRANCH  11  20
HETATM   20  N   UNK N   1      22.211  20.562   2.024  0.00  0.00    -0.383 N 
HETATM   21  H   UNK N   1      21.714  21.385   2.238  0.00  0.00     0.157 HD
HETATM   22  H   UNK N   1      22.332  20.291   1.085  0.00  0.00     0.157 HD
ENDBRANCH  11  20
BRANCH   9  23
HETATM   23  C   UNK N   1      21.866  17.084   5.739  0.00  0.00     0.054 C 
HETATM   24  C   UNK N   1      21.062  17.785   6.841  0.00  0.00     0.014 C 
HETATM   25  C   UNK N   1      20.094  16.813   7.515  0.00  0.00     0.020 C 
HETATM   26  C   UNK N   1      20.574  15.362   7.406  0.00  0.00     0.113 C 
HETATM   27  N   UNK N   1      22.033  15.300   7.506  0.00  0.00    -0.420 N 
HETATM   28  C   UNK N   1      22.684  15.934   6.346  0.00  0.00     0.124 C 
HETATM   29  H   UNK N   1      22.536  14.870   8.282  0.00  0.00     0.153 HD
ENDBRANCH   9  23
TORSDOF 3
ENDMDL
MODEL 5
REMARK VINA RESULT:      -6.1     12.379     15.237
REMARK  3 active torsions:
REMARK  status: ('A' for Active; 'I' for Inactive)
REMARK    1  A    between atoms: C_4  and  C_8 
REMARK    2  A    between atoms: C_21  and  C_16 
REMARK    3  A    between atoms: C_18  and  N_19 
ROOT
HETATM    1  C   UNK N   1      26.435  26.427  -5.650  0.00  0.00     0.040 A 
HETATM    2  C   UNK N   1      25.550  26.585  -6.717  0.00  0.00     0.124 A 
HETATM    3  N   UNK N   1      25.704  25.516  -7.551  0.00  0.00    -0.301 N 
ATOM      4  HN  UNK N   1      25.190  25.351  -8.417  1.00  0.00     0.186 HD
HETATM    5  N   UNK N   1      26.639  24.732  -7.037  0.00  0.00    -0.222 N 
HETATM    6  C   UNK N   1      27.080  25.255  -5.903  0.00  0.00     0.142 A 
HETATM    7  N   UNK N   1      28.039  24.669  -5.168  0.00  0.00    -0.342 N 
ATOM      8  HN  UNK N   1      28.339  25.101  -4.294  1.00  0.00     0.167 HD
HETATM    9  C   UNK N   1      28.614  23.506  -5.576  0.00  0.00     0.037 A 
HETATM   10  C   UNK N   1      28.156  22.906  -6.802  0.00  0.00     0.079 A 
HETATM   11  C   UNK N   1      27.132  23.569  -7.529  0.00  0.00     0.142 A 
HETATM   12 Br   UNK N   1      28.834  21.247  -7.503  0.00  0.00    -0.045 Br
ENDROOT
BRANCH   1  13
HETATM   13  C   UNK N   1      26.694  27.300  -4.494  0.00  0.00     0.013 A 
HETATM   14  C   UNK N   1      27.747  28.186  -4.388  0.00  0.00     0.123 A 
HETATM   15  N   UNK N   1      27.624  28.807  -3.209  0.00  0.00    -0.307 N 
HETATM   16  C   UNK N   1      28.527  29.823  -2.701  0.00  0.00     0.177 C 
HETATM   17  N   UNK N   1      26.554  28.367  -2.568  0.00  0.00    -0.310 N 
HETATM   18  C   UNK N   1      25.953  27.431  -3.335  0.00  0.00     0.121 A 
ATOM     19  HN  UNK N   1      26.237  28.681  -1.651  1.00  0.00     0.186 HD
ENDBRANCH   1  13
BRANCH  11  20
HETATM   20  N   UNK N   1      26.636  23.041  -8.741  0.00  0.00    -0.383 N 
HETATM   21  H   UNK N   1      27.219  22.992  -9.533  0.00  0.00     0.157 HD
HETATM   22  H   UNK N   1      25.706  22.720  -8.794  0.00  0.00     0.157 HD
ENDBRANCH  11  20
BRANCH   9  23
HETATM   23  C   UNK N   1      29.682  22.950  -4.651  0.00  0.00     0.054 C 
HETATM   24  C   UNK N   1      29.573  23.556  -3.247  0.00  0.00     0.014 C 
HETATM   25  C   UNK N   1      30.394  22.753  -2.239  0.00  0.00     0.020 C 
HETATM   26  C   UNK N   1      31.551  22.008  -2.910  0.00  0.00     0.113 C 
HETATM   27  N   UNK N   1      32.109  22.810  -4.000  0.00  0.00    -0.420 N 
HETATM   28  C   UNK N   1      31.149  22.963  -5.108  0.00  0.00     0.124 C 
HETATM   29  H   UNK N   1      33.046  23.213  -3.993  0.00  0.00     0.153 HD
ENDBRANCH   9  23
TORSDOF 3
ENDMDL
MODEL 6
REMARK VINA RESULT:      -6.0     10.114     13.292
REMARK  3 active torsions:
REMARK  status: ('A' for Active; 'I' for Inactive)
REMARK    1  A    between atoms: C_4  and  C_8 
REMARK    2  A    between atoms: C_21  and  C_16 
REMARK    3  A    between atoms: C_18  and  N_19 
ROOT
HETATM    1  C   UNK N   1      35.583  13.205  17.140  0.00  0.00     0.040 A 
HETATM    2  C   UNK N   1      35.238  14.036  18.206  0.00  0.00     0.124 A 
HETATM    3  N   UNK N   1      35.040  13.249  19.304  0.00  0.00    -0.301 N 
ATOM      4  HN  UNK N   1      34.780  13.573  20.236  1.00  0.00     0.186 HD
HETATM    5  N   UNK N   1      35.246  11.992  18.943  0.00  0.00    -0.222 N 
HETATM    6  C   UNK N   1      35.576  11.947  17.662  0.00  0.00     0.142 A 
HETATM    7  N   UNK N   1      35.837  10.793  17.027  0.00  0.00    -0.342 N 
ATOM      8  HN  UNK N   1      36.100  10.806  16.043  1.00  0.00     0.167 HD
HETATM    9  C   UNK N   1      35.753   9.605  17.685  0.00  0.00     0.037 A 
HETATM   10  C   UNK N   1      35.402   9.615  19.082  0.00  0.00     0.079 A 
HETATM   11  C   UNK N   1      35.147  10.869  19.697  0.00  0.00     0.142 A 
HETATM   12 Br   UNK N   1      35.275   8.031  20.167  0.00  0.00    -0.045 Br
ENDROOT
BRANCH   1  13
HETATM   13  C   UNK N   1      35.872  13.533  15.736  0.00  0.00     0.013 A 
HETATM   14  C   UNK N   1      35.092  13.166  14.657  0.00  0.00     0.123 A 
HETATM   15  N   UNK N   1      35.670  13.670  13.561  0.00  0.00    -0.307 N 
HETATM   16  C   UNK N   1      35.170  13.519  12.207  0.00  0.00     0.177 C 
HETATM   17  N   UNK N   1      36.767  14.335  13.885  0.00  0.00    -0.310 N 
HETATM   18  C   UNK N   1      36.923  14.271  15.225  0.00  0.00     0.121 A 
ATOM     19  HN  UNK N   1      37.388  14.815  13.234  1.00  0.00     0.186 HD
ENDBRANCH   1  13
BRANCH  11  20
HETATM   20  N   UNK N   1      34.795  10.955  21.062  0.00  0.00    -0.383 N 
HETATM   21  H   UNK N   1      34.920  10.178  21.653  0.00  0.00     0.157 HD
HETATM   22  H   UNK N   1      34.424  11.793  21.423  0.00  0.00     0.157 HD
ENDBRANCH  11  20
BRANCH   9  23
HETATM   23  C   UNK N   1      36.076   8.377  16.852  0.00  0.00     0.054 C 
HETATM   24  C   UNK N   1      37.534   7.943  17.041  0.00  0.00     0.014 C 
HETATM   25  C   UNK N   1      37.759   6.531  16.499  0.00  0.00     0.020 C 
HETATM   26  C   UNK N   1      36.752   6.173  15.403  0.00  0.00     0.113 C 
HETATM   27  N   UNK N   1      36.450   7.349  14.585  0.00  0.00    -0.420 N 
HETATM   28  C   UNK N   1      35.725   8.374  15.356  0.00  0.00     0.124 C 
HETATM   29  H   UNK N   1      36.709   7.445  13.604  0.00  0.00     0.153 HD
ENDBRANCH   9  23
TORSDOF 3
ENDMDL
MODEL 7
REMARK VINA RESULT:      -6.0      5.618      9.495
REMARK  3 active torsions:
REMARK  status: ('A' for Active; 'I' for Inactive)
REMARK    1  A    between atoms: C_4  and  C_8 
REMARK    2  A    between atoms: C_21  and  C_16 
REMARK    3  A    between atoms: C_18  and  N_19 
ROOT
HETATM    1  C   UNK N   1      24.561  19.670   3.954  0.00  0.00     0.040 A 
HETATM    2  C   UNK N   1      24.080  20.631   3.064  0.00  0.00     0.124 A 
HETATM    3  N   UNK N   1      22.781  20.326   2.778  0.00  0.00    -0.301 N 
ATOM      4  HN  UNK N   1      22.164  20.850   2.157  1.00  0.00     0.186 HD
HETATM    5  N   UNK N   1      22.466  19.229   3.450  0.00  0.00    -0.222 N 
HETATM    6  C   UNK N   1      23.510  18.829   4.159  0.00  0.00     0.142 A 
HETATM    7  N   UNK N   1      23.473  17.733   4.935  0.00  0.00    -0.342 N 
ATOM      8  HN  UNK N   1      24.296  17.469   5.474  1.00  0.00     0.167 HD
HETATM    9  C   UNK N   1      22.347  16.972   5.008  0.00  0.00     0.037 A 
HETATM   10  C   UNK N   1      21.191  17.380   4.253  0.00  0.00     0.079 A 
HETATM   11  C   UNK N   1      21.290  18.553   3.460  0.00  0.00     0.142 A 
HETATM   12 Br   UNK N   1      19.512  16.440   4.273  0.00  0.00    -0.045 Br
ENDROOT
BRANCH   1  13
HETATM   13  C   UNK N   1      25.895  19.514   4.554  0.00  0.00     0.013 A 
HETATM   14  C   UNK N   1      26.847  18.601   4.146  0.00  0.00     0.123 A 
HETATM   15  N   UNK N   1      27.926  18.784   4.916  0.00  0.00    -0.307 N 
HETATM   16  C   UNK N   1      29.161  18.030   4.818  0.00  0.00     0.177 C 
HETATM   17  N   UNK N   1      27.711  19.761   5.782  0.00  0.00    -0.310 N 
HETATM   18  C   UNK N   1      26.462  20.236   5.587  0.00  0.00     0.121 A 
ATOM     19  HN  UNK N   1      28.375  20.098   6.478  1.00  0.00     0.186 HD
ENDBRANCH   1  13
BRANCH  11  20
HETATM   20  N   UNK N   1      20.198  19.011   2.691  0.00  0.00    -0.383 N 
HETATM   21  H   UNK N   1      19.283  18.949   3.051  0.00  0.00     0.157 HD
HETATM   22  H   UNK N   1      20.350  19.392   1.796  0.00  0.00     0.157 HD
ENDBRANCH  11  20
BRANCH   9  23
HETATM   23  C   UNK N   1      22.440  15.764   5.923  0.00  0.00     0.054 C 
HETATM   24  C   UNK N   1      21.672  15.995   7.230  0.00  0.00     0.014 C 
HETATM   25  C   UNK N   1      21.463  14.681   7.982  0.00  0.00     0.020 C 
HETATM   26  C   UNK N   1      22.536  13.646   7.632  0.00  0.00     0.113 C 
HETATM   27  N   UNK N   1      23.829  14.302   7.429  0.00  0.00    -0.420 N 
HETATM   28  C   UNK N   1      23.820  15.163   6.233  0.00  0.00     0.124 C 
HETATM   29  H   UNK N   1      24.636  14.178   8.041  0.00  0.00     0.153 HD
ENDBRANCH   9  23
TORSDOF 3
ENDMDL
MODEL 8
REMARK VINA RESULT:      -6.0      2.867      5.213
REMARK  3 active torsions:
REMARK  status: ('A' for Active; 'I' for Inactive)
REMARK    1  A    between atoms: C_4  and  C_8 
REMARK    2  A    between atoms: C_21  and  C_16 
REMARK    3  A    between atoms: C_18  and  N_19 
ROOT
HETATM    1  C   UNK N   1      29.765  17.704   7.940  0.00  0.00     0.040 A 
HETATM    2  C   UNK N   1      28.905  18.645   8.507  0.00  0.00     0.124 A 
HETATM    3  N   UNK N   1      27.797  18.732   7.715  0.00  0.00    -0.301 N 
ATOM      4  HN  UNK N   1      26.991  19.336   7.875  1.00  0.00     0.186 HD
HETATM    5  N   UNK N   1      27.957  17.894   6.703  0.00  0.00    -0.222 N 
HETATM    6  C   UNK N   1      29.118  17.269   6.824  0.00  0.00     0.142 A 
HETATM    7  N   UNK N   1      29.542  16.362   5.928  0.00  0.00    -0.342 N 
ATOM      8  HN  UNK N   1      30.438  15.896   6.068  1.00  0.00     0.167 HD
HETATM    9  C   UNK N   1      28.788  16.058   4.837  0.00  0.00     0.037 A 
HETATM   10  C   UNK N   1      27.517  16.715   4.676  0.00  0.00     0.079 A 
HETATM   11  C   UNK N   1      27.121  17.657   5.661  0.00  0.00     0.142 A 
HETATM   12 Br   UNK N   1      26.314  16.375   3.213  0.00  0.00    -0.045 Br
ENDROOT
BRANCH   1  13
HETATM   13  C   UNK N   1      31.097  17.254   8.372  0.00  0.00     0.013 A 
HETATM   14  C   UNK N   1      32.270  17.963   8.201  0.00  0.00     0.123 A 
HETATM   15  N   UNK N   1      33.254  17.237   8.743  0.00  0.00    -0.307 N 
HETATM   16  C   UNK N   1      34.653  17.621   8.782  0.00  0.00     0.177 C 
HETATM   17  N   UNK N   1      32.771  16.114   9.249  0.00  0.00    -0.310 N 
HETATM   18  C   UNK N   1      31.437  16.090   9.036  0.00  0.00     0.121 A 
ATOM     19  HN  UNK N   1      33.313  15.390   9.719  1.00  0.00     0.186 HD
ENDBRANCH   1  13
BRANCH  11  20
HETATM   20  N   UNK N   1      25.889  18.340   5.566  0.00  0.00    -0.383 N 
HETATM   21  H   UNK N   1      25.854  19.239   5.167  0.00  0.00     0.157 HD
HETATM   22  H   UNK N   1      25.064  17.917   5.900  0.00  0.00     0.157 HD
ENDBRANCH  11  20
BRANCH   9  23
HETATM   23  C   UNK N   1      29.383  15.015   3.908  0.00  0.00     0.054 C 
HETATM   24  C   UNK N   1      29.235  13.603   4.488  0.00  0.00     0.014 C 
HETATM   25  C   UNK N   1      29.499  12.542   3.420  0.00  0.00     0.020 C 
HETATM   26  C   UNK N   1      30.412  13.067   2.308  0.00  0.00     0.113 C 
HETATM   27  N   UNK N   1      31.420  13.972   2.861  0.00  0.00    -0.420 N 
HETATM   28  C   UNK N   1      30.813  15.211   3.380  0.00  0.00     0.124 C 
HETATM   29  H   UNK N   1      32.420  13.770   2.884  0.00  0.00     0.153 HD
ENDBRANCH   9  23
TORSDOF 3
ENDMDL
MODEL 9
REMARK VINA RESULT:      -6.0      2.135      4.445
REMARK  3 active torsions:
REMARK  status: ('A' for Active; 'I' for Inactive)
REMARK    1  A    between atoms: C_4  and  C_8 
REMARK    2  A    between atoms: C_21  and  C_16 
REMARK    3  A    between atoms: C_18  and  N_19 
ROOT
HETATM    1  C   UNK N   1      29.091  17.170   4.525  0.00  0.00     0.040 A 
HETATM    2  C   UNK N   1      28.626  16.619   3.330  0.00  0.00     0.124 A 
HETATM    3  N   UNK N   1      29.570  15.744   2.877  0.00  0.00    -0.301 N 
ATOM      4  HN  UNK N   1      29.512  15.185   2.026  1.00  0.00     0.186 HD
HETATM    5  N   UNK N   1      30.575  15.750   3.740  0.00  0.00    -0.222 N 
HETATM    6  C   UNK N   1      30.304  16.588   4.729  0.00  0.00     0.142 A 
HETATM    7  N   UNK N   1      31.156  16.797   5.745  0.00  0.00    -0.342 N 
ATOM      8  HN  UNK N   1      30.901  17.442   6.493  1.00  0.00     0.167 HD
HETATM    9  C   UNK N   1      32.356  16.158   5.789  0.00  0.00     0.037 A 
HETATM   10  C   UNK N   1      32.683  15.235   4.732  0.00  0.00     0.079 A 
HETATM   11  C   UNK N   1      31.736  15.051   3.690  0.00  0.00     0.142 A 
HETATM   12 Br   UNK N   1      34.318  14.224   4.659  0.00  0.00    -0.045 Br
ENDROOT
BRANCH   1  13
HETATM   13  C   UNK N   1      28.482  18.180   5.404  0.00  0.00     0.013 A 
HETATM   14  C   UNK N   1      28.216  19.488   5.048  0.00  0.00     0.123 A 
HETATM   15  N   UNK N   1      27.644  20.077   6.104  0.00  0.00    -0.307 N 
HETATM   16  C   UNK N   1      27.202  21.458   6.154  0.00  0.00     0.177 C 
HETATM   17  N   UNK N   1      27.530  19.218   7.103  0.00  0.00    -0.310 N 
HETATM   18  C   UNK N   1      28.040  18.031   6.705  0.00  0.00     0.121 A 
ATOM     19  HN  UNK N   1      27.127  19.417   8.019  1.00  0.00     0.186 HD
ENDBRANCH   1  13
BRANCH  11  20
HETATM   20  N   UNK N   1      31.989  14.164   2.620  0.00  0.00    -0.383 N 
HETATM   21  H   UNK N   1      31.878  13.194   2.748  0.00  0.00     0.157 HD
HETATM   22  H   UNK N   1      32.277  14.516   1.747  0.00  0.00     0.157 HD
ENDBRANCH  11  20
BRANCH   9  23
HETATM   23  C   UNK N   1      33.222  16.483   6.993  0.00  0.00     0.054 C 
HETATM   24  C   UNK N   1      32.633  15.888   8.278  0.00  0.00     0.014 C 
HETATM   25  C   UNK N   1      33.662  15.902   9.409  0.00  0.00     0.020 C 
HETATM   26  C   UNK N   1      34.709  17.002   9.214  0.00  0.00     0.113 C 
HETATM   27  N   UNK N   1      34.094  18.191   8.622  0.00  0.00    -0.420 N 
HETATM   28  C   UNK N   1      33.642  17.939   7.242  0.00  0.00     0.124 C 
HETATM   29  H   UNK N   1      33.992  19.083   9.106  0.00  0.00     0.153 HD
ENDBRANCH   9  23
TORSDOF 3
ENDMDL
