REMARK  6 active torsions:
REMARK  status: ('A' for Active; 'I' for Inactive)
REMARK    1  A    between atoms: C_3  and  N_2 
REMARK    2  A    between atoms: N_5  and  C_10 
REMARK    3  A    between atoms: C_7  and  O_8 
REMARK    4  A    between atoms: C_16  and  C_28 
REMARK    5  A    between atoms: N_18  and  C_22 
REMARK    6  A    between atoms: C_28  and  O_30 
ROOT
HETATM    1  C   UNK N   1       0.058  -1.014   0.032  0.00  0.00     0.104 A 
HETATM    2  C   UNK N   1       0.061   0.353  -0.269  0.00  0.00     0.049 A 
HETATM    3  C   UNK N   1       1.282   1.030  -0.349  0.00  0.00     0.023 A 
HETATM    4  C   UNK N   1       2.487   0.331  -0.174  0.00  0.00     0.060 A 
HETATM    5  C   UNK N   1       3.727   0.980  -0.262  0.00  0.00     0.204 A 
HETATM    6  O   UNK N   1       3.774   2.181  -0.473  0.00  0.00    -0.286 OA
HETATM    7  C   UNK N   1       4.910   0.230  -0.108  0.00  0.00     0.104 A 
HETATM    8  C   UNK N   1       4.811  -1.148   0.109  0.00  0.00     0.123 A 
HETATM    9  N   UNK N   1       3.607  -1.784   0.196  0.00  0.00    -0.286 N 
HETATM   10  C   UNK N   1       2.444  -1.057   0.080  0.00  0.00     0.129 A 
HETATM   11  N   UNK N   1       1.237  -1.665   0.194  0.00  0.00    -0.327 N 
ATOM     12  HN  UNK N   1       1.214  -2.661   0.413  1.00  0.00     0.169 HD
ENDROOT
BRANCH   1  13
HETATM   13  N   UNK N   1      -1.150  -1.747   0.144  0.00  0.00    -0.363 N 
HETATM   14  C   UNK N   1      -2.376  -1.341  -0.474  0.00  0.00     0.151 C 
HETATM   15  C   UNK N   1      -3.346  -2.486  -0.188  0.00  0.00     0.124 C 
HETATM   16  C   UNK N   1      -2.483  -3.655   0.307  0.00  0.00     0.162 C 
HETATM   17  C   UNK N   1      -1.177  -3.039   0.759  0.00  0.00     0.158 C 
BRANCH  15  18
HETATM   18  N   UNK N   1      -4.268  -2.081   0.860  0.00  0.00    -0.417 N 
HETATM   19  C   UNK N   1      -5.346  -1.343   0.221  0.00  0.00     0.140 C 
HETATM   20  H   UNK N   1      -4.176  -2.278   1.857  0.00  0.00     0.153 HD
ENDBRANCH  15  18
BRANCH  16  21
HETATM   21  O   UNK N   1      -2.208  -4.526  -0.749  0.00  0.00    -0.387 OA
HETATM   22  C   UNK N   1      -2.223  -5.800  -0.175  0.00  0.00     0.202 C 
ENDBRANCH  16  21
ENDBRANCH   1  13
BRANCH   9  23
HETATM   23  C   UNK N   1       3.628  -3.226   0.363  0.00  0.00     0.156 A 
HETATM   24  N   UNK N   1       4.771  -3.949   0.467  0.00  0.00    -0.346 N 
HETATM   25  C   UNK N   1       4.535  -5.306   0.556  0.00  0.00     0.097 A 
ATOM     26  HN  UNK N   1       5.703  -3.534   0.479  1.00  0.00     0.167 HD
HETATM   27  C   UNK N   1       3.181  -5.689   0.513  0.00  0.00     0.070 A 
HETATM   28  S   UNK N   1       2.341  -4.271   0.366  0.00  0.00    -0.064 SA
ENDBRANCH   9  23
BRANCH   7  29
HETATM   29  C   UNK N   1       6.263   0.840  -0.183  0.00  0.00     0.181 C 
HETATM   30  O   UNK N   1       6.401   2.039  -0.368  0.00  0.00    -0.646 OA
BRANCH  29  31
HETATM   31  O   UNK N   1       7.357   0.065  -0.045  0.00  0.00    -0.772 OA
HETATM   32  H   UNK N   1       7.271  -0.863   0.051  0.00  0.00     0.167 HD
ENDBRANCH  29  31
ENDBRANCH   7  29
TORSDOF 6
