MODEL 1
REMARK VINA RESULT:      -8.2      0.000      0.000
REMARK  6 active torsions:
REMARK  status: ('A' for Active; 'I' for Inactive)
REMARK    1  A    between atoms: C_6  and  N_8 
REMARK    2  A    between atoms: C_10  and  C_30 
REMARK    3  A    between atoms: C_12  and  C_15 
REMARK       I    between atoms: C_15  and  N_17 
REMARK    4  A    between atoms: N_17  and  C_18 
REMARK    5  A    between atoms: C_18  and  C_19 
REMARK    6  A    between atoms: C_22  and  S_26 
ROOT
HETATM    1  N   UNK N   1      37.114  13.153  10.549  0.00  0.00    -0.281 N 
HETATM    2  C   UNK N   1      37.025  12.972  11.935  0.00  0.00     0.029 A 
HETATM    3  C   UNK N   1      36.322  13.910  12.751  0.00  0.00     0.016 A 
HETATM    4  C   UNK N   1      35.738  14.999  12.145  0.00  0.00     0.038 A 
HETATM    5  C   UNK N   1      35.779  15.196  10.790  0.00  0.00     0.101 A 
HETATM    6  C   UNK N   1      36.466  14.264   9.983  0.00  0.00     0.268 A 
HETATM    7  O   UNK N   1      36.507  14.461   8.779  0.00  0.00    -0.267 OA
HETATM    8  C   UNK N   1      37.664  11.800  12.618  0.00  0.00     0.070 C 
ENDROOT
BRANCH   5   9
HETATM    9  C   UNK N   1      35.121  16.415  10.250  0.00  0.00     0.257 C 
HETATM   10  O   UNK N   1      35.642  17.513  10.395  0.00  0.00    -0.267 OA
HETATM   11  N   UNK N   1      33.968  16.301   9.565  0.00  0.00    -0.351 N 
HETATM   12  H   UNK N   1      33.517  15.425   9.565  0.00  0.00     0.163 HD
BRANCH  11  13
HETATM   13  C   UNK N   1      33.353  17.374   8.834  0.00  0.00     0.179 C 
BRANCH  13  14
HETATM   14  C   UNK N   1      33.297  16.906   7.428  0.00  0.00     0.026 A 
HETATM   15  C   UNK N   1      32.089  16.880   6.734  0.00  0.00     0.028 A 
HETATM   16  C   UNK N   1      32.046  16.306   5.462  0.00  0.00     0.027 A 
HETATM   17  C   UNK N   1      33.205  15.755   4.884  0.00  0.00     0.074 A 
HETATM   18  C   UNK N   1      34.404  15.796   5.644  0.00  0.00     0.111 A 
HETATM   19  N   UNK N   1      34.418  16.372   6.869  0.00  0.00    -0.366 N 
ATOM     20  HN  UNK N   1      35.295  16.408   7.389  1.00  0.00     0.165 HD
BRANCH  17  21
HETATM   21  S   UNK N   1      33.026  14.875   3.265  0.00  0.00     0.173 S 
HETATM   22  O   UNK N   1      33.834  15.405   2.073  0.00  0.00    -0.223 OA
HETATM   23  O   UNK N   1      34.398  14.304   3.663  0.00  0.00    -0.223 OA
HETATM   24  C   UNK N   1      33.082  16.693   3.080  0.00  0.00     0.167 C 
ENDBRANCH  17  21
ENDBRANCH  13  14
ENDBRANCH  11  13
ENDBRANCH   5   9
BRANCH   3  25
HETATM   25  C   UNK N   1      36.172  13.800  14.245  0.00  0.00     0.064 A 
HETATM   26  C   UNK N   1      36.879  14.515  15.197  0.00  0.00     0.050 A 
HETATM   27  C   UNK N   1      36.397  14.065  16.416  0.00  0.00     0.109 A 
HETATM   28  N   UNK N   1      35.454  13.131  16.196  0.00  0.00    -0.310 N 
HETATM   29  N   UNK N   1      35.317  12.971  14.894  0.00  0.00    -0.296 N 
ATOM     30  HN  UNK N   1      34.932  12.630  16.915  1.00  0.00     0.186 HD
HETATM   31  C   UNK N   1      34.371  12.019  14.330  0.00  0.00     0.178 C 
ENDBRANCH   3  25
BRANCH   1  32
HETATM   32  C   UNK N   1      37.888  12.226   9.675  0.00  0.00     0.043 A 
HETATM   33  C   UNK N   1      37.288  11.124   9.030  0.00  0.00     0.030 A 
HETATM   34  C   UNK N   1      38.024  10.233   8.245  0.00  0.00     0.003 A 
HETATM   35  C   UNK N   1      39.395  10.414   8.083  0.00  0.00     0.007 A 
HETATM   36  C   UNK N   1      40.025  11.489   8.703  0.00  0.00    -0.060 A 
HETATM   37  C   UNK N   1      41.489  11.685   8.539  0.00  0.00     0.048 C 
HETATM   38  C   UNK N   1      39.281  12.379   9.486  0.00  0.00     0.037 A 
ENDBRANCH   1  32
TORSDOF 6
ENDMDL
MODEL 2
REMARK VINA RESULT:      -7.9      9.667     14.796
REMARK  6 active torsions:
REMARK  status: ('A' for Active; 'I' for Inactive)
REMARK    1  A    between atoms: C_6  and  N_8 
REMARK    2  A    between atoms: C_10  and  C_30 
REMARK    3  A    between atoms: C_12  and  C_15 
REMARK       I    between atoms: C_15  and  N_17 
REMARK    4  A    between atoms: N_17  and  C_18 
REMARK    5  A    between atoms: C_18  and  C_19 
REMARK    6  A    between atoms: C_22  and  S_26 
ROOT
HETATM    1  N   UNK N   1      22.776  15.281   5.351  0.00  0.00    -0.281 N 
HETATM    2  C   UNK N   1      21.789  15.356   4.359  0.00  0.00     0.029 A 
HETATM    3  C   UNK N   1      21.864  16.341   3.327  0.00  0.00     0.016 A 
HETATM    4  C   UNK N   1      22.924  17.218   3.332  0.00  0.00     0.038 A 
HETATM    5  C   UNK N   1      23.923  17.159   4.268  0.00  0.00     0.101 A 
HETATM    6  C   UNK N   1      23.854  16.179   5.283  0.00  0.00     0.268 A 
HETATM    7  O   UNK N   1      24.742  16.148   6.118  0.00  0.00    -0.267 OA
HETATM    8  C   UNK N   1      20.619  14.420   4.341  0.00  0.00     0.070 C 
ENDROOT
BRANCH   5   9
HETATM    9  C   UNK N   1      25.013  18.165   4.179  0.00  0.00     0.257 C 
HETATM   10  O   UNK N   1      24.817  19.321   4.533  0.00  0.00    -0.267 OA
HETATM   11  N   UNK N   1      26.231  17.792   3.743  0.00  0.00    -0.351 N 
HETATM   12  H   UNK N   1      26.325  16.890   3.358  0.00  0.00     0.163 HD
BRANCH  11  13
HETATM   13  C   UNK N   1      27.400  18.624   3.804  0.00  0.00     0.179 C 
BRANCH  13  14
HETATM   14  C   UNK N   1      27.984  18.377   5.145  0.00  0.00     0.026 A 
HETATM   15  C   UNK N   1      28.729  17.226   5.396  0.00  0.00     0.028 A 
HETATM   16  C   UNK N   1      29.147  16.957   6.700  0.00  0.00     0.027 A 
HETATM   17  C   UNK N   1      28.821  17.832   7.754  0.00  0.00     0.074 A 
HETATM   18  C   UNK N   1      28.047  18.980   7.441  0.00  0.00     0.111 A 
HETATM   19  N   UNK N   1      27.668  19.223   6.164  0.00  0.00    -0.366 N 
ATOM     20  HN  UNK N   1      27.130  20.065   5.959  1.00  0.00     0.165 HD
BRANCH  17  21
HETATM   21  S   UNK N   1      29.278  17.319   9.473  0.00  0.00     0.173 S 
HETATM   22  O   UNK N   1      29.511  18.427  10.509  0.00  0.00    -0.223 OA
HETATM   23  O   UNK N   1      27.806  17.674   9.745  0.00  0.00    -0.223 OA
HETATM   24  C   UNK N   1      30.224  18.772   8.892  0.00  0.00     0.167 C 
ENDBRANCH  17  21
ENDBRANCH  13  14
ENDBRANCH  11  13
ENDBRANCH   5   9
BRANCH   3  25
HETATM   25  C   UNK N   1      20.855  16.499   2.221  0.00  0.00     0.064 A 
HETATM   26  C   UNK N   1      20.690  15.660   1.131  0.00  0.00     0.050 A 
HETATM   27  C   UNK N   1      19.655  16.219   0.400  0.00  0.00     0.109 A 
HETATM   28  N   UNK N   1      19.229  17.333   1.025  0.00  0.00    -0.310 N 
HETATM   29  N   UNK N   1      19.948  17.502   2.117  0.00  0.00    -0.296 N 
ATOM     30  HN  UNK N   1      18.477  17.944   0.706  1.00  0.00     0.186 HD
HETATM   31  C   UNK N   1      19.734  18.629   3.013  0.00  0.00     0.178 C 
ENDBRANCH   3  25
BRANCH   1  32
HETATM   32  C   UNK N   1      22.698  14.304   6.474  0.00  0.00     0.043 A 
HETATM   33  C   UNK N   1      23.362  13.060   6.436  0.00  0.00     0.030 A 
HETATM   34  C   UNK N   1      23.254  12.129   7.472  0.00  0.00     0.003 A 
HETATM   35  C   UNK N   1      22.470  12.414   8.587  0.00  0.00     0.007 A 
HETATM   36  C   UNK N   1      21.799  13.632   8.663  0.00  0.00    -0.060 A 
HETATM   37  C   UNK N   1      20.955  13.939   9.848  0.00  0.00     0.048 C 
HETATM   38  C   UNK N   1      21.912  14.559   7.623  0.00  0.00     0.037 A 
ENDBRANCH   1  32
TORSDOF 6
ENDMDL
MODEL 3
REMARK VINA RESULT:      -7.8      9.478     14.533
REMARK  6 active torsions:
REMARK  status: ('A' for Active; 'I' for Inactive)
REMARK    1  A    between atoms: C_6  and  N_8 
REMARK    2  A    between atoms: C_10  and  C_30 
REMARK    3  A    between atoms: C_12  and  C_15 
REMARK       I    between atoms: C_15  and  N_17 
REMARK    4  A    between atoms: N_17  and  C_18 
REMARK    5  A    between atoms: C_18  and  C_19 
REMARK    6  A    between atoms: C_22  and  S_26 
ROOT
HETATM    1  N   UNK N   1      22.410  15.422   5.823  0.00  0.00    -0.281 N 
HETATM    2  C   UNK N   1      21.482  15.520   4.777  0.00  0.00     0.029 A 
HETATM    3  C   UNK N   1      21.794  16.252   3.591  0.00  0.00     0.016 A 
HETATM    4  C   UNK N   1      23.024  16.864   3.500  0.00  0.00     0.038 A 
HETATM    5  C   UNK N   1      23.967  16.768   4.489  0.00  0.00     0.101 A 
HETATM    6  C   UNK N   1      23.662  16.037   5.658  0.00  0.00     0.268 A 
HETATM    7  O   UNK N   1      24.506  15.973   6.536  0.00  0.00    -0.267 OA
HETATM    8  C   UNK N   1      20.133  14.873   4.859  0.00  0.00     0.070 C 
ENDROOT
BRANCH   5   9
HETATM    9  C   UNK N   1      25.256  17.480   4.285  0.00  0.00     0.257 C 
HETATM   10  O   UNK N   1      25.918  17.279   3.275  0.00  0.00    -0.267 OA
HETATM   11  N   UNK N   1      25.673  18.377   5.197  0.00  0.00    -0.351 N 
HETATM   12  H   UNK N   1      25.182  18.430   6.049  0.00  0.00     0.163 HD
BRANCH  11  13
HETATM   13  C   UNK N   1      26.790  19.260   5.009  0.00  0.00     0.179 C 
BRANCH  13  14
HETATM   14  C   UNK N   1      27.983  18.470   5.402  0.00  0.00     0.026 A 
HETATM   15  C   UNK N   1      28.243  18.194   6.743  0.00  0.00     0.028 A 
HETATM   16  C   UNK N   1      29.442  17.569   7.089  0.00  0.00     0.027 A 
HETATM   17  C   UNK N   1      30.382  17.221   6.101  0.00  0.00     0.074 A 
HETATM   18  C   UNK N   1      30.070  17.542   4.753  0.00  0.00     0.111 A 
HETATM   19  N   UNK N   1      28.892  18.135   4.446  0.00  0.00    -0.366 N 
ATOM     20  HN  UNK N   1      28.680  18.338   3.469  1.00  0.00     0.165 HD
BRANCH  17  21
HETATM   21  S   UNK N   1      32.010  16.541   6.660  0.00  0.00     0.173 S 
HETATM   22  O   UNK N   1      32.632  15.410   5.831  0.00  0.00    -0.223 OA
HETATM   23  O   UNK N   1      32.531  17.393   5.489  0.00  0.00    -0.223 OA
HETATM   24  C   UNK N   1      30.859  15.242   6.087  0.00  0.00     0.167 C 
ENDBRANCH  17  21
ENDBRANCH  13  14
ENDBRANCH  11  13
ENDBRANCH   5   9
BRANCH   3  25
HETATM   25  C   UNK N   1      20.866  16.413   2.416  0.00  0.00     0.064 A 
HETATM   26  C   UNK N   1      20.748  15.553   1.338  0.00  0.00     0.050 A 
HETATM   27  C   UNK N   1      19.781  16.123   0.526  0.00  0.00     0.109 A 
HETATM   28  N   UNK N   1      19.349  17.264   1.096  0.00  0.00    -0.310 N 
HETATM   29  N   UNK N   1      19.999  17.439   2.230  0.00  0.00    -0.296 N 
ATOM     30  HN  UNK N   1      18.639  17.889   0.714  1.00  0.00     0.186 HD
HETATM   31  C   UNK N   1      19.761  18.593   3.084  0.00  0.00     0.178 C 
ENDBRANCH   3  25
BRANCH   1  32
HETATM   32  C   UNK N   1      22.096  14.716   7.098  0.00  0.00     0.043 A 
HETATM   33  C   UNK N   1      21.264  15.283   8.087  0.00  0.00     0.030 A 
HETATM   34  C   UNK N   1      21.005  14.637   9.298  0.00  0.00     0.003 A 
HETATM   35  C   UNK N   1      21.579  13.396   9.563  0.00  0.00     0.007 A 
HETATM   36  C   UNK N   1      22.406  12.803   8.613  0.00  0.00    -0.060 A 
HETATM   37  C   UNK N   1      23.025  11.481   8.893  0.00  0.00     0.048 C 
HETATM   38  C   UNK N   1      22.659  13.455   7.402  0.00  0.00     0.037 A 
ENDBRANCH   1  32
TORSDOF 6
ENDMDL
MODEL 4
REMARK VINA RESULT:      -7.7      2.799      5.588
REMARK  6 active torsions:
REMARK  status: ('A' for Active; 'I' for Inactive)
REMARK    1  A    between atoms: C_6  and  N_8 
REMARK    2  A    between atoms: C_10  and  C_30 
REMARK    3  A    between atoms: C_12  and  C_15 
REMARK       I    between atoms: C_15  and  N_17 
REMARK    4  A    between atoms: N_17  and  C_18 
REMARK    5  A    between atoms: C_18  and  C_19 
REMARK    6  A    between atoms: C_22  and  S_26 
ROOT
HETATM    1  N   UNK N   1      35.824  12.904  11.864  0.00  0.00    -0.281 N 
HETATM    2  C   UNK N   1      36.822  12.339  11.059  0.00  0.00     0.029 A 
HETATM    3  C   UNK N   1      37.302  13.025   9.901  0.00  0.00     0.016 A 
HETATM    4  C   UNK N   1      36.758  14.250   9.591  0.00  0.00     0.038 A 
HETATM    5  C   UNK N   1      35.800  14.848  10.368  0.00  0.00     0.101 A 
HETATM    6  C   UNK N   1      35.333  14.174  11.517  0.00  0.00     0.268 A 
HETATM    7  O   UNK N   1      34.470  14.712  12.191  0.00  0.00    -0.267 OA
HETATM    8  C   UNK N   1      37.419  11.000  11.370  0.00  0.00     0.070 C 
ENDROOT
BRANCH   5   9
HETATM    9  C   UNK N   1      35.280  16.169   9.927  0.00  0.00     0.257 C 
HETATM   10  O   UNK N   1      35.715  17.200  10.423  0.00  0.00    -0.267 OA
HETATM   11  N   UNK N   1      34.355  16.228   8.951  0.00  0.00    -0.351 N 
HETATM   12  H   UNK N   1      33.942  15.383   8.656  0.00  0.00     0.163 HD
BRANCH  11  13
HETATM   13  C   UNK N   1      33.931  17.443   8.314  0.00  0.00     0.179 C 
BRANCH  13  14
HETATM   14  C   UNK N   1      32.493  17.241   8.007  0.00  0.00     0.026 A 
HETATM   15  C   UNK N   1      32.045  17.204   6.688  0.00  0.00     0.028 A 
HETATM   16  C   UNK N   1      30.674  17.150   6.436  0.00  0.00     0.027 A 
HETATM   17  C   UNK N   1      29.749  17.138   7.497  0.00  0.00     0.074 A 
HETATM   18  C   UNK N   1      30.263  17.194   8.820  0.00  0.00     0.111 A 
HETATM   19  N   UNK N   1      31.599  17.230   9.033  0.00  0.00    -0.366 N 
ATOM     20  HN  UNK N   1      31.946  17.249   9.992  1.00  0.00     0.165 HD
BRANCH  17  21
HETATM   21  S   UNK N   1      27.949  17.226   7.073  0.00  0.00     0.173 S 
HETATM   22  O   UNK N   1      27.449  18.484   6.351  0.00  0.00    -0.223 OA
HETATM   23  O   UNK N   1      28.479  16.895   5.667  0.00  0.00    -0.223 OA
HETATM   24  C   UNK N   1      28.612  18.817   7.684  0.00  0.00     0.167 C 
ENDBRANCH  17  21
ENDBRANCH  13  14
ENDBRANCH  11  13
ENDBRANCH   5   9
BRANCH   3  25
HETATM   25  C   UNK N   1      38.369  12.500   8.978  0.00  0.00     0.064 A 
HETATM   26  C   UNK N   1      39.735  12.685   9.110  0.00  0.00     0.050 A 
HETATM   27  C   UNK N   1      40.294  12.027   8.026  0.00  0.00     0.109 A 
HETATM   28  N   UNK N   1      39.308  11.481   7.290  0.00  0.00    -0.310 N 
HETATM   29  N   UNK N   1      38.153  11.764   7.859  0.00  0.00    -0.296 N 
ATOM     30  HN  UNK N   1      39.433  10.940   6.434  1.00  0.00     0.186 HD
HETATM   31  C   UNK N   1      36.887  11.317   7.296  0.00  0.00     0.178 C 
ENDBRANCH   3  25
BRANCH   1  32
HETATM   32  C   UNK N   1      35.259  12.192  13.045  0.00  0.00     0.043 A 
HETATM   33  C   UNK N   1      34.314  11.152  12.915  0.00  0.00     0.030 A 
HETATM   34  C   UNK N   1      33.756  10.514  14.025  0.00  0.00     0.003 A 
HETATM   35  C   UNK N   1      34.124  10.902  15.311  0.00  0.00     0.007 A 
HETATM   36  C   UNK N   1      35.054  11.923  15.482  0.00  0.00    -0.060 A 
HETATM   37  C   UNK N   1      35.447  12.346  16.852  0.00  0.00     0.048 C 
HETATM   38  C   UNK N   1      35.610  12.557  14.366  0.00  0.00     0.037 A 
ENDBRANCH   1  32
TORSDOF 6
ENDMDL
MODEL 5
REMARK VINA RESULT:      -7.7      2.111      5.118
REMARK  6 active torsions:
REMARK  status: ('A' for Active; 'I' for Inactive)
REMARK    1  A    between atoms: C_6  and  N_8 
REMARK    2  A    between atoms: C_10  and  C_30 
REMARK    3  A    between atoms: C_12  and  C_15 
REMARK       I    between atoms: C_15  and  N_17 
REMARK    4  A    between atoms: N_17  and  C_18 
REMARK    5  A    between atoms: C_18  and  C_19 
REMARK    6  A    between atoms: C_22  and  S_26 
ROOT
HETATM    1  N   UNK N   1      35.584  13.106  11.610  0.00  0.00    -0.281 N 
HETATM    2  C   UNK N   1      36.553  12.591  10.738  0.00  0.00     0.029 A 
HETATM    3  C   UNK N   1      36.947  13.318   9.574  0.00  0.00     0.016 A 
HETATM    4  C   UNK N   1      36.351  14.533   9.324  0.00  0.00     0.038 A 
HETATM    5  C   UNK N   1      35.421  15.083  10.167  0.00  0.00     0.101 A 
HETATM    6  C   UNK N   1      35.038  14.368  11.323  0.00  0.00     0.268 A 
HETATM    7  O   UNK N   1      34.198  14.864  12.056  0.00  0.00    -0.267 OA
HETATM    8  C   UNK N   1      37.206  11.265  10.983  0.00  0.00     0.070 C 
ENDROOT
BRANCH   5   9
HETATM    9  C   UNK N   1      34.838  16.397   9.788  0.00  0.00     0.257 C 
HETATM   10  O   UNK N   1      35.497  17.421   9.907  0.00  0.00    -0.267 OA
HETATM   11  N   UNK N   1      33.594  16.450   9.276  0.00  0.00    -0.351 N 
HETATM   12  H   UNK N   1      33.050  15.630   9.302  0.00  0.00     0.163 HD
BRANCH  11  13
HETATM   13  C   UNK N   1      33.010  17.628   8.696  0.00  0.00     0.179 C 
BRANCH  13  14
HETATM   14  C   UNK N   1      32.563  17.214   7.344  0.00  0.00     0.026 A 
HETATM   15  C   UNK N   1      33.349  17.479   6.223  0.00  0.00     0.028 A 
HETATM   16  C   UNK N   1      32.839  17.202   4.954  0.00  0.00     0.027 A 
HETATM   17  C   UNK N   1      31.547  16.665   4.800  0.00  0.00     0.074 A 
HETATM   18  C   UNK N   1      30.786  16.432   5.977  0.00  0.00     0.111 A 
HETATM   19  N   UNK N   1      31.313  16.696   7.195  0.00  0.00    -0.366 N 
ATOM     20  HN  UNK N   1      30.756  16.502   8.028  1.00  0.00     0.165 HD
BRANCH  17  21
HETATM   21  S   UNK N   1      30.890  16.477   3.079  0.00  0.00     0.173 S 
HETATM   22  O   UNK N   1      30.118  15.193   2.748  0.00  0.00    -0.223 OA
HETATM   23  O   UNK N   1      29.563  16.837   3.771  0.00  0.00    -0.223 OA
HETATM   24  C   UNK N   1      31.595  14.926   3.742  0.00  0.00     0.167 C 
ENDBRANCH  17  21
ENDBRANCH  13  14
ENDBRANCH  11  13
ENDBRANCH   5   9
BRANCH   3  25
HETATM   25  C   UNK N   1      37.977  12.848   8.580  0.00  0.00     0.064 A 
HETATM   26  C   UNK N   1      39.333  13.125   8.608  0.00  0.00     0.050 A 
HETATM   27  C   UNK N   1      39.854  12.486   7.495  0.00  0.00     0.109 A 
HETATM   28  N   UNK N   1      38.856  11.863   6.841  0.00  0.00    -0.310 N 
HETATM   29  N   UNK N   1      37.729  12.080   7.491  0.00  0.00    -0.296 N 
ATOM     30  HN  UNK N   1      38.955  11.316   5.986  1.00  0.00     0.186 HD
HETATM   31  C   UNK N   1      36.459  11.540   7.030  0.00  0.00     0.178 C 
ENDBRANCH   3  25
BRANCH   1  32
HETATM   32  C   UNK N   1      35.107  12.350  12.802  0.00  0.00     0.043 A 
HETATM   33  C   UNK N   1      34.328  11.179  12.687  0.00  0.00     0.030 A 
HETATM   34  C   UNK N   1      33.847  10.495  13.806  0.00  0.00     0.003 A 
HETATM   35  C   UNK N   1      34.129  10.966  15.086  0.00  0.00     0.007 A 
HETATM   36  C   UNK N   1      34.896  12.118  15.243  0.00  0.00    -0.060 A 
HETATM   37  C   UNK N   1      35.195  12.629  16.606  0.00  0.00     0.048 C 
HETATM   38  C   UNK N   1      35.375  12.797  14.118  0.00  0.00     0.037 A 
ENDBRANCH   1  32
TORSDOF 6
ENDMDL
MODEL 6
REMARK VINA RESULT:      -7.5      3.146      6.013
REMARK  6 active torsions:
REMARK  status: ('A' for Active; 'I' for Inactive)
REMARK    1  A    between atoms: C_6  and  N_8 
REMARK    2  A    between atoms: C_10  and  C_30 
REMARK    3  A    between atoms: C_12  and  C_15 
REMARK       I    between atoms: C_15  and  N_17 
REMARK    4  A    between atoms: N_17  and  C_18 
REMARK    5  A    between atoms: C_18  and  C_19 
REMARK    6  A    between atoms: C_22  and  S_26 
ROOT
HETATM    1  N   UNK N   1      35.279  12.206  14.275  0.00  0.00    -0.281 N 
HETATM    2  C   UNK N   1      34.833  11.094  13.548  0.00  0.00     0.029 A 
HETATM    3  C   UNK N   1      34.769  11.132  12.122  0.00  0.00     0.016 A 
HETATM    4  C   UNK N   1      35.148  12.286  11.477  0.00  0.00     0.038 A 
HETATM    5  C   UNK N   1      35.616  13.385  12.150  0.00  0.00     0.101 A 
HETATM    6  C   UNK N   1      35.689  13.344  13.560  0.00  0.00     0.268 A 
HETATM    7  O   UNK N   1      36.093  14.334  14.146  0.00  0.00    -0.267 OA
HETATM    8  C   UNK N   1      34.403   9.830  14.229  0.00  0.00     0.070 C 
ENDROOT
BRANCH   5   9
HETATM    9  C   UNK N   1      35.987  14.580  11.348  0.00  0.00     0.257 C 
HETATM   10  O   UNK N   1      36.988  14.563  10.644  0.00  0.00    -0.267 OA
HETATM   11  N   UNK N   1      35.195  15.668  11.368  0.00  0.00    -0.351 N 
HETATM   12  H   UNK N   1      34.466  15.694  12.030  0.00  0.00     0.163 HD
BRANCH  11  13
HETATM   13  C   UNK N   1      35.346  16.793  10.488  0.00  0.00     0.179 C 
BRANCH  13  14
HETATM   14  C   UNK N   1      34.232  16.679   9.516  0.00  0.00     0.026 A 
HETATM   15  C   UNK N   1      34.044  17.649   8.532  0.00  0.00     0.028 A 
HETATM   16  C   UNK N   1      32.910  17.586   7.722  0.00  0.00     0.027 A 
HETATM   17  C   UNK N   1      31.961  16.560   7.894  0.00  0.00     0.074 A 
HETATM   18  C   UNK N   1      32.197  15.610   8.922  0.00  0.00     0.111 A 
HETATM   19  N   UNK N   1      33.314  15.688   9.682  0.00  0.00    -0.366 N 
ATOM     20  HN  UNK N   1      33.473  14.983  10.402  1.00  0.00     0.165 HD
BRANCH  17  21
HETATM   21  S   UNK N   1      30.410  16.642   6.885  0.00  0.00     0.173 S 
HETATM   22  O   UNK N   1      29.632  17.964   6.883  0.00  0.00    -0.223 OA
HETATM   23  O   UNK N   1      31.323  17.429   5.929  0.00  0.00    -0.223 OA
HETATM   24  C   UNK N   1      30.249  17.480   8.503  0.00  0.00     0.167 C 
ENDBRANCH  17  21
ENDBRANCH  13  14
ENDBRANCH  11  13
ENDBRANCH   5   9
BRANCH   3  25
HETATM   25  C   UNK N   1      34.305   9.990  11.256  0.00  0.00     0.064 A 
HETATM   26  C   UNK N   1      33.019   9.782  10.788  0.00  0.00     0.050 A 
HETATM   27  C   UNK N   1      33.089   8.612  10.049  0.00  0.00     0.109 A 
HETATM   28  N   UNK N   1      34.353   8.150  10.080  0.00  0.00    -0.310 N 
HETATM   29  N   UNK N   1      35.084   8.976  10.803  0.00  0.00    -0.296 N 
ATOM     30  HN  UNK N   1      34.689   7.304   9.621  1.00  0.00     0.186 HD
HETATM   31  C   UNK N   1      36.503   8.749  11.033  0.00  0.00     0.178 C 
ENDBRANCH   3  25
BRANCH   1  32
HETATM   32  C   UNK N   1      35.305  12.221  15.765  0.00  0.00     0.043 A 
HETATM   33  C   UNK N   1      34.835  13.321  16.513  0.00  0.00     0.030 A 
HETATM   34  C   UNK N   1      34.898  13.351  17.908  0.00  0.00     0.003 A 
HETATM   35  C   UNK N   1      35.443  12.274  18.605  0.00  0.00     0.007 A 
HETATM   36  C   UNK N   1      35.917  11.170  17.903  0.00  0.00    -0.060 A 
HETATM   37  C   UNK N   1      36.505  10.020  18.640  0.00  0.00     0.048 C 
HETATM   38  C   UNK N   1      35.850  11.147  16.506  0.00  0.00     0.037 A 
ENDBRANCH   1  32
TORSDOF 6
ENDMDL
MODEL 7
REMARK VINA RESULT:      -7.5      5.266     11.164
REMARK  6 active torsions:
REMARK  status: ('A' for Active; 'I' for Inactive)
REMARK    1  A    between atoms: C_6  and  N_8 
REMARK    2  A    between atoms: C_10  and  C_30 
REMARK    3  A    between atoms: C_12  and  C_15 
REMARK       I    between atoms: C_15  and  N_17 
REMARK    4  A    between atoms: N_17  and  C_18 
REMARK    5  A    between atoms: C_18  and  C_19 
REMARK    6  A    between atoms: C_22  and  S_26 
ROOT
HETATM    1  N   UNK N   1      27.579  16.094   3.379  0.00  0.00    -0.281 N 
HETATM    2  C   UNK N   1      27.165  17.227   4.092  0.00  0.00     0.029 A 
HETATM    3  C   UNK N   1      28.122  18.106   4.685  0.00  0.00     0.016 A 
HETATM    4  C   UNK N   1      29.459  17.812   4.547  0.00  0.00     0.038 A 
HETATM    5  C   UNK N   1      29.904  16.729   3.834  0.00  0.00     0.101 A 
HETATM    6  C   UNK N   1      28.958  15.866   3.240  0.00  0.00     0.268 A 
HETATM    7  O   UNK N   1      29.368  14.897   2.621  0.00  0.00    -0.267 OA
HETATM    8  C   UNK N   1      25.714  17.560   4.266  0.00  0.00     0.070 C 
ENDROOT
BRANCH   5   9
HETATM    9  C   UNK N   1      31.372  16.506   3.762  0.00  0.00     0.257 C 
HETATM   10  O   UNK N   1      32.069  17.218   3.050  0.00  0.00    -0.267 OA
HETATM   11  N   UNK N   1      31.937  15.544   4.513  0.00  0.00    -0.351 N 
HETATM   12  H   UNK N   1      31.340  14.916   4.983  0.00  0.00     0.163 HD
BRANCH  11  13
HETATM   13  C   UNK N   1      33.354  15.372   4.673  0.00  0.00     0.179 C 
BRANCH  13  14
HETATM   14  C   UNK N   1      33.624  15.673   6.100  0.00  0.00     0.026 A 
HETATM   15  C   UNK N   1      34.162  16.902   6.479  0.00  0.00     0.028 A 
HETATM   16  C   UNK N   1      34.532  17.102   7.810  0.00  0.00     0.027 A 
HETATM   17  C   UNK N   1      34.370  16.077   8.762  0.00  0.00     0.074 A 
HETATM   18  C   UNK N   1      33.832  14.841   8.314  0.00  0.00     0.111 A 
HETATM   19  N   UNK N   1      33.469  14.682   7.020  0.00  0.00    -0.366 N 
ATOM     20  HN  UNK N   1      33.066  13.792   6.725  1.00  0.00     0.165 HD
BRANCH  17  21
HETATM   21  S   UNK N   1      35.031  16.371  10.466  0.00  0.00     0.173 S 
HETATM   22  O   UNK N   1      36.555  16.366  10.648  0.00  0.00    -0.223 OA
HETATM   23  O   UNK N   1      35.324  17.765   9.884  0.00  0.00    -0.223 OA
HETATM   24  C   UNK N   1      35.941  15.064   9.568  0.00  0.00     0.167 C 
ENDBRANCH  17  21
ENDBRANCH  13  14
ENDBRANCH  11  13
ENDBRANCH   5   9
BRANCH   3  25
HETATM   25  C   UNK N   1      27.775  19.345   5.467  0.00  0.00     0.064 A 
HETATM   26  C   UNK N   1      27.422  20.577   4.942  0.00  0.00     0.050 A 
HETATM   27  C   UNK N   1      27.205  21.389   6.044  0.00  0.00     0.109 A 
HETATM   28  N   UNK N   1      27.420  20.674   7.163  0.00  0.00    -0.310 N 
HETATM   29  N   UNK N   1      27.762  19.447   6.819  0.00  0.00    -0.296 N 
ATOM     30  HN  UNK N   1      27.334  21.022   8.118  1.00  0.00     0.186 HD
HETATM   31  C   UNK N   1      28.068  18.426   7.810  0.00  0.00     0.178 C 
ENDBRANCH   3  25
BRANCH   1  32
HETATM   32  C   UNK N   1      26.608  15.124   2.797  0.00  0.00     0.043 A 
HETATM   33  C   UNK N   1      25.894  15.396   1.610  0.00  0.00     0.030 A 
HETATM   34  C   UNK N   1      24.954  14.504   1.089  0.00  0.00     0.003 A 
HETATM   35  C   UNK N   1      24.692  13.304   1.745  0.00  0.00     0.007 A 
HETATM   36  C   UNK N   1      25.376  12.998   2.919  0.00  0.00    -0.060 A 
HETATM   37  C   UNK N   1      25.097  11.722   3.628  0.00  0.00     0.048 C 
HETATM   38  C   UNK N   1      26.317  13.896   3.435  0.00  0.00     0.037 A 
ENDBRANCH   1  32
TORSDOF 6
ENDMDL
MODEL 8
REMARK VINA RESULT:      -7.5      8.981     13.913
REMARK  6 active torsions:
REMARK  status: ('A' for Active; 'I' for Inactive)
REMARK    1  A    between atoms: C_6  and  N_8 
REMARK    2  A    between atoms: C_10  and  C_30 
REMARK    3  A    between atoms: C_12  and  C_15 
REMARK       I    between atoms: C_15  and  N_17 
REMARK    4  A    between atoms: N_17  and  C_18 
REMARK    5  A    between atoms: C_18  and  C_19 
REMARK    6  A    between atoms: C_22  and  S_26 
ROOT
HETATM    1  N   UNK N   1      23.390  14.506   5.831  0.00  0.00    -0.281 N 
HETATM    2  C   UNK N   1      22.396  14.604   4.849  0.00  0.00     0.029 A 
HETATM    3  C   UNK N   1      22.486  15.584   3.813  0.00  0.00     0.016 A 
HETATM    4  C   UNK N   1      23.568  16.434   3.806  0.00  0.00     0.038 A 
HETATM    5  C   UNK N   1      24.574  16.353   4.733  0.00  0.00     0.101 A 
HETATM    6  C   UNK N   1      24.489  15.377   5.751  0.00  0.00     0.268 A 
HETATM    7  O   UNK N   1      25.385  15.326   6.578  0.00  0.00    -0.267 OA
HETATM    8  C   UNK N   1      21.203  13.697   4.844  0.00  0.00     0.070 C 
ENDROOT
BRANCH   5   9
HETATM    9  C   UNK N   1      25.688  17.332   4.631  0.00  0.00     0.257 C 
HETATM   10  O   UNK N   1      26.111  17.672   3.534  0.00  0.00    -0.267 OA
HETATM   11  N   UNK N   1      26.203  17.873   5.750  0.00  0.00    -0.351 N 
HETATM   12  H   UNK N   1      25.923  17.495   6.615  0.00  0.00     0.163 HD
BRANCH  11  13
HETATM   13  C   UNK N   1      27.135  18.966   5.763  0.00  0.00     0.179 C 
BRANCH  13  14
HETATM   14  C   UNK N   1      28.408  18.386   6.256  0.00  0.00     0.026 A 
HETATM   15  C   UNK N   1      29.270  17.720   5.387  0.00  0.00     0.028 A 
HETATM   16  C   UNK N   1      30.390  17.068   5.907  0.00  0.00     0.027 A 
HETATM   17  C   UNK N   1      30.649  17.076   7.290  0.00  0.00     0.074 A 
HETATM   18  C   UNK N   1      29.726  17.757   8.128  0.00  0.00     0.111 A 
HETATM   19  N   UNK N   1      28.658  18.394   7.595  0.00  0.00    -0.366 N 
ATOM     20  HN  UNK N   1      28.019  18.893   8.214  1.00  0.00     0.165 HD
BRANCH  17  21
HETATM   21  S   UNK N   1      32.064  16.056   7.909  0.00  0.00     0.173 S 
HETATM   22  O   UNK N   1      33.070  16.731   8.850  0.00  0.00    -0.223 OA
HETATM   23  O   UNK N   1      31.212  16.032   9.191  0.00  0.00    -0.223 OA
HETATM   24  C   UNK N   1      32.560  17.759   7.464  0.00  0.00     0.167 C 
ENDBRANCH  17  21
ENDBRANCH  13  14
ENDBRANCH  11  13
ENDBRANCH   5   9
BRANCH   3  25
HETATM   25  C   UNK N   1      21.471  15.764   2.716  0.00  0.00     0.064 A 
HETATM   26  C   UNK N   1      21.520  15.206   1.450  0.00  0.00     0.050 A 
HETATM   27  C   UNK N   1      20.380  15.663   0.809  0.00  0.00     0.109 A 
HETATM   28  N   UNK N   1      19.692  16.454   1.654  0.00  0.00    -0.310 N 
HETATM   29  N   UNK N   1      20.345  16.515   2.798  0.00  0.00    -0.296 N 
ATOM     30  HN  UNK N   1      18.813  16.926   1.445  1.00  0.00     0.186 HD
HETATM   31  C   UNK N   1      19.858  17.301   3.922  0.00  0.00     0.178 C 
ENDBRANCH   3  25
BRANCH   1  32
HETATM   32  C   UNK N   1      23.299  13.535   6.958  0.00  0.00     0.043 A 
HETATM   33  C   UNK N   1      23.952  12.284   6.927  0.00  0.00     0.030 A 
HETATM   34  C   UNK N   1      23.831  11.359   7.967  0.00  0.00     0.003 A 
HETATM   35  C   UNK N   1      23.044  11.655   9.077  0.00  0.00     0.007 A 
HETATM   36  C   UNK N   1      22.384  12.879   9.146  0.00  0.00    -0.060 A 
HETATM   37  C   UNK N   1      21.538  13.199  10.325  0.00  0.00     0.048 C 
HETATM   38  C   UNK N   1      22.510  13.802   8.102  0.00  0.00     0.037 A 
ENDBRANCH   1  32
TORSDOF 6
ENDMDL
MODEL 9
REMARK VINA RESULT:      -7.5     15.272     20.169
REMARK  6 active torsions:
REMARK  status: ('A' for Active; 'I' for Inactive)
REMARK    1  A    between atoms: C_6  and  N_8 
REMARK    2  A    between atoms: C_10  and  C_30 
REMARK    3  A    between atoms: C_12  and  C_15 
REMARK       I    between atoms: C_15  and  N_17 
REMARK    4  A    between atoms: N_17  and  C_18 
REMARK    5  A    between atoms: C_18  and  C_19 
REMARK    6  A    between atoms: C_22  and  S_26 
ROOT
HETATM    1  N   UNK N   1      27.312  24.078  -6.155  0.00  0.00    -0.281 N 
HETATM    2  C   UNK N   1      26.853  25.385  -5.952  0.00  0.00     0.029 A 
HETATM    3  C   UNK N   1      27.461  26.230  -4.974  0.00  0.00     0.016 A 
HETATM    4  C   UNK N   1      28.505  25.729  -4.231  0.00  0.00     0.038 A 
HETATM    5  C   UNK N   1      29.001  24.465  -4.418  0.00  0.00     0.101 A 
HETATM    6  C   UNK N   1      28.405  23.634  -5.392  0.00  0.00     0.268 A 
HETATM    7  O   UNK N   1      28.848  22.506  -5.538  0.00  0.00    -0.267 OA
HETATM    8  C   UNK N   1      25.710  25.949  -6.741  0.00  0.00     0.070 C 
ENDROOT
BRANCH   5   9
HETATM    9  C   UNK N   1      30.125  24.028  -3.549  0.00  0.00     0.257 C 
HETATM   10  O   UNK N   1      30.865  24.857  -3.036  0.00  0.00    -0.267 OA
HETATM   11  N   UNK N   1      30.301  22.718  -3.296  0.00  0.00    -0.351 N 
HETATM   12  H   UNK N   1      29.765  22.073  -3.813  0.00  0.00     0.163 HD
BRANCH  11  13
HETATM   13  C   UNK N   1      31.220  22.201  -2.321  0.00  0.00     0.179 C 
BRANCH  13  14
HETATM   14  C   UNK N   1      32.118  21.293  -3.077  0.00  0.00     0.026 A 
HETATM   15  C   UNK N   1      33.493  21.298  -2.847  0.00  0.00     0.028 A 
HETATM   16  C   UNK N   1      34.324  20.534  -3.668  0.00  0.00     0.027 A 
HETATM   17  C   UNK N   1      33.786  19.769  -4.720  0.00  0.00     0.074 A 
HETATM   18  C   UNK N   1      32.381  19.816  -4.917  0.00  0.00     0.111 A 
HETATM   19  N   UNK N   1      31.599  20.554  -4.095  0.00  0.00    -0.366 N 
ATOM     20  HN  UNK N   1      30.589  20.557  -4.243  1.00  0.00     0.165 HD
BRANCH  17  21
HETATM   21  S   UNK N   1      34.971  18.914  -5.857  0.00  0.00     0.173 S 
HETATM   22  O   UNK N   1      34.772  17.411  -6.093  0.00  0.00    -0.223 OA
HETATM   23  O   UNK N   1      33.779  19.003  -6.826  0.00  0.00    -0.223 OA
HETATM   24  C   UNK N   1      34.563  17.918  -4.378  0.00  0.00     0.167 C 
ENDBRANCH  17  21
ENDBRANCH  13  14
ENDBRANCH  11  13
ENDBRANCH   5   9
BRANCH   3  25
HETATM   25  C   UNK N   1      27.039  27.646  -4.685  0.00  0.00     0.064 A 
HETATM   26  C   UNK N   1      26.211  28.064  -3.657  0.00  0.00     0.050 A 
HETATM   27  C   UNK N   1      26.115  29.438  -3.808  0.00  0.00     0.109 A 
HETATM   28  N   UNK N   1      26.847  29.813  -4.873  0.00  0.00    -0.310 N 
HETATM   29  N   UNK N   1      27.402  28.739  -5.400  0.00  0.00    -0.296 N 
ATOM     30  HN  UNK N   1      26.955  30.768  -5.216  1.00  0.00     0.186 HD
HETATM   31  C   UNK N   1      28.256  28.813  -6.577  0.00  0.00     0.178 C 
ENDBRANCH   3  25
BRANCH   1  32
HETATM   32  C   UNK N   1      26.665  23.151  -7.126  0.00  0.00     0.043 A 
HETATM   33  C   UNK N   1      25.515  22.401  -6.797  0.00  0.00     0.030 A 
HETATM   34  C   UNK N   1      24.934  21.502  -7.695  0.00  0.00     0.003 A 
HETATM   35  C   UNK N   1      25.492  21.318  -8.958  0.00  0.00     0.007 A 
HETATM   36  C   UNK N   1      26.626  22.039  -9.321  0.00  0.00    -0.060 A 
HETATM   37  C   UNK N   1      27.230  21.844 -10.665  0.00  0.00     0.048 C 
HETATM   38  C   UNK N   1      27.202  22.939  -8.417  0.00  0.00     0.037 A 
ENDBRANCH   1  32
TORSDOF 6
ENDMDL
