MODEL 1
REMARK VINA RESULT:      -7.9      0.000      0.000
REMARK  8 active torsions:
REMARK  status: ('A' for Active; 'I' for Inactive)
REMARK    1  A    between atoms: C_5  and  C_8 
REMARK       I    between atoms: C_8  and  N_10 
REMARK    2  A    between atoms: C_11  and  N_10 
REMARK    3  A    between atoms: N_10  and  C_18 
REMARK    4  A    between atoms: C_14  and  O_17 
REMARK    5  A    between atoms: C_19  and  C_29 
REMARK    6  A    between atoms: C_21  and  C_23 
REMARK    7  A    between atoms: C_24  and  C_25 
REMARK    8  A    between atoms: C_29  and  O_31 
ROOT
HETATM    1  C   UNK N   1      32.226  15.049   7.087  0.00  0.00     0.229 C 
HETATM    2  O   UNK N   1      31.315  14.891   6.283  0.00  0.00    -0.273 OA
HETATM    3  N   UNK N   1      32.096  15.994   8.106  0.00  0.00    -0.311 N 
ENDROOT
BRANCH   3   4
HETATM    4  C   UNK N   1      30.931  16.864   8.114  0.00  0.00     0.093 C 
HETATM    5  C   UNK N   1      30.207  17.143   9.431  0.00  0.00     0.028 C 
HETATM    6  C   UNK N   1      29.637  18.561   9.391  0.00  0.00     0.034 C 
HETATM    7  C   UNK N   1      28.743  18.835   8.168  0.00  0.00     0.118 C 
HETATM    8  C   UNK N   1      28.982  17.903   6.973  0.00  0.00     0.034 C 
HETATM    9  C   UNK N   1      30.454  17.513   6.816  0.00  0.00     0.028 C 
BRANCH   7  10
HETATM   10  O   UNK N   1      27.398  18.791   8.535  0.00  0.00    -0.396 OA
HETATM   11  H   UNK N   1      26.581  19.031   8.070  0.00  0.00     0.210 HD
ENDBRANCH   7  10
ENDBRANCH   3   4
BRANCH   3  12
HETATM   12  C   UNK N   1      33.131  16.167   9.104  0.00  0.00     0.063 A 
HETATM   13  C   UNK N   1      34.227  17.093   9.051  0.00  0.00     0.106 A 
HETATM   14  S   UNK N   1      35.298  16.598  10.201  0.00  0.00    -0.072 SA
HETATM   15  C   UNK N   1      34.475  15.342  10.832  0.00  0.00     0.061 A 
HETATM   16  C   UNK N   1      33.285  15.217  10.160  0.00  0.00     0.059 A 
BRANCH  13  17
HETATM   17  C   UNK N   1      34.611  18.198   8.155  0.00  0.00     0.185 C 
HETATM   18  O   UNK N   1      34.397  18.095   6.956  0.00  0.00    -0.646 OA
BRANCH  17  19
HETATM   19  O   UNK N   1      35.350  19.222   8.588  0.00  0.00    -0.772 OA
HETATM   20  H   UNK N   1      35.933  19.159   9.317  0.00  0.00     0.167 HD
ENDBRANCH  17  19
ENDBRANCH  13  17
BRANCH  15  21
HETATM   21  C   UNK N   1      35.118  14.276  11.490  0.00  0.00    -0.059 C 
HETATM   22  C   UNK N   1      35.559  13.490  12.272  0.00  0.00    -0.092 C 
BRANCH  22  23
HETATM   23  C   UNK N   1      35.963  12.763  13.455  0.00  0.00     0.013 C 
HETATM   24  C   UNK N   1      37.131  11.858  13.154  0.00  0.00     0.028 C 
HETATM   25  C   UNK N   1      36.487  13.784  14.442  0.00  0.00     0.028 C 
HETATM   26  C   UNK N   1      34.766  12.016  14.008  0.00  0.00     0.028 C 
ENDBRANCH  22  23
ENDBRANCH  15  21
ENDBRANCH   3  12
BRANCH   1  27
HETATM   27  C   UNK N   1      33.502  14.223   6.895  0.00  0.00     0.078 C 
HETATM   28  C   UNK N   1      33.346  12.723   6.662  0.00  0.00     0.014 C 
HETATM   29  C   UNK N   1      34.725  12.068   6.820  0.00  0.00     0.005 C 
HETATM   30  C   UNK N   1      35.752  12.656   5.844  0.00  0.00    -0.019 C 
HETATM   31  C   UNK N   1      37.127  12.100   6.168  0.00  0.00     0.010 C 
HETATM   32  C   UNK N   1      35.803  14.180   5.937  0.00  0.00     0.005 C 
HETATM   33  C   UNK N   1      34.407  14.787   5.793  0.00  0.00     0.014 C 
ENDBRANCH   1  27
TORSDOF 8
ENDMDL
MODEL 2
REMARK VINA RESULT:      -7.6     16.728     19.581
REMARK  8 active torsions:
REMARK  status: ('A' for Active; 'I' for Inactive)
REMARK    1  A    between atoms: C_5  and  C_8 
REMARK       I    between atoms: C_8  and  N_10 
REMARK    2  A    between atoms: C_11  and  N_10 
REMARK    3  A    between atoms: N_10  and  C_18 
REMARK    4  A    between atoms: C_14  and  O_17 
REMARK    5  A    between atoms: C_19  and  C_29 
REMARK    6  A    between atoms: C_21  and  C_23 
REMARK    7  A    between atoms: C_24  and  C_25 
REMARK    8  A    between atoms: C_29  and  O_31 
ROOT
HETATM    1  C   UNK N   1      26.405  25.967  -6.692  0.00  0.00     0.229 C 
HETATM    2  O   UNK N   1      25.483  26.074  -7.492  0.00  0.00    -0.273 OA
HETATM    3  N   UNK N   1      27.100  24.760  -6.592  0.00  0.00    -0.311 N 
ENDROOT
BRANCH   3   4
HETATM    4  C   UNK N   1      26.630  23.612  -7.351  0.00  0.00     0.093 C 
HETATM    5  C   UNK N   1      27.127  23.400  -8.780  0.00  0.00     0.028 C 
HETATM    6  C   UNK N   1      27.206  21.898  -9.058  0.00  0.00     0.034 C 
HETATM    7  C   UNK N   1      25.890  21.148  -8.784  0.00  0.00     0.118 C 
HETATM    8  C   UNK N   1      24.932  21.857  -7.818  0.00  0.00     0.034 C 
HETATM    9  C   UNK N   1      25.669  22.615  -6.709  0.00  0.00     0.028 C 
BRANCH   7  10
HETATM   10  O   UNK N   1      25.231  20.876  -9.982  0.00  0.00    -0.396 OA
HETATM   11  H   UNK N   1      24.780  21.442 -10.628  0.00  0.00     0.210 HD
ENDBRANCH   7  10
ENDBRANCH   3   4
BRANCH   3  12
HETATM   12  C   UNK N   1      28.229  24.619  -5.696  0.00  0.00     0.063 A 
HETATM   13  C   UNK N   1      28.175  24.385  -4.279  0.00  0.00     0.106 A 
HETATM   14  S   UNK N   1      29.684  24.714  -3.706  0.00  0.00    -0.072 SA
HETATM   15  C   UNK N   1      30.447  25.063  -5.102  0.00  0.00     0.061 A 
HETATM   16  C   UNK N   1      29.547  24.954  -6.131  0.00  0.00     0.059 A 
BRANCH  13  17
HETATM   17  C   UNK N   1      27.100  24.086  -3.316  0.00  0.00     0.185 C 
HETATM   18  O   UNK N   1      25.957  24.432  -3.573  0.00  0.00    -0.646 OA
BRANCH  17  19
HETATM   19  O   UNK N   1      27.369  23.617  -2.095  0.00  0.00    -0.772 OA
HETATM   20  H   UNK N   1      27.940  22.891  -1.941  0.00  0.00     0.167 HD
ENDBRANCH  17  19
ENDBRANCH  13  17
BRANCH  15  21
HETATM   21  C   UNK N   1      31.595  25.878  -5.147  0.00  0.00    -0.059 C 
HETATM   22  C   UNK N   1      32.389  26.767  -5.123  0.00  0.00    -0.092 C 
BRANCH  22  23
HETATM   23  C   UNK N   1      33.066  28.044  -5.054  0.00  0.00     0.013 C 
HETATM   24  C   UNK N   1      32.688  28.913  -6.228  0.00  0.00     0.028 C 
HETATM   25  C   UNK N   1      32.531  28.760  -3.832  0.00  0.00     0.028 C 
HETATM   26  C   UNK N   1      34.559  27.806  -4.953  0.00  0.00     0.028 C 
ENDBRANCH  22  23
ENDBRANCH  15  21
ENDBRANCH   3  12
BRANCH   1  27
HETATM   27  C   UNK N   1      26.715  27.167  -5.792  0.00  0.00     0.078 C 
HETATM   28  C   UNK N   1      27.391  28.375  -6.433  0.00  0.00     0.014 C 
HETATM   29  C   UNK N   1      27.888  29.297  -5.310  0.00  0.00     0.005 C 
HETATM   30  C   UNK N   1      26.744  29.748  -4.393  0.00  0.00    -0.019 C 
HETATM   31  C   UNK N   1      27.319  30.504  -3.209  0.00  0.00     0.010 C 
HETATM   32  C   UNK N   1      25.940  28.558  -3.873  0.00  0.00     0.005 C 
HETATM   33  C   UNK N   1      25.483  27.658  -5.023  0.00  0.00     0.014 C 
ENDBRANCH   1  27
TORSDOF 8
ENDMDL
MODEL 3
REMARK VINA RESULT:      -7.1      8.700     12.763
REMARK  8 active torsions:
REMARK  status: ('A' for Active; 'I' for Inactive)
REMARK    1  A    between atoms: C_5  and  C_8 
REMARK       I    between atoms: C_8  and  N_10 
REMARK    2  A    between atoms: C_11  and  N_10 
REMARK    3  A    between atoms: N_10  and  C_18 
REMARK    4  A    between atoms: C_14  and  O_17 
REMARK    5  A    between atoms: C_19  and  C_29 
REMARK    6  A    between atoms: C_21  and  C_23 
REMARK    7  A    between atoms: C_24  and  C_25 
REMARK    8  A    between atoms: C_29  and  O_31 
ROOT
HETATM    1  C   UNK N   1      20.276  14.669   5.517  0.00  0.00     0.229 C 
HETATM    2  O   UNK N   1      19.123  14.344   5.262  0.00  0.00    -0.273 OA
HETATM    3  N   UNK N   1      21.025  15.370   4.570  0.00  0.00    -0.311 N 
ENDROOT
BRANCH   3   4
HETATM    4  C   UNK N   1      20.460  15.589   3.248  0.00  0.00     0.093 C 
HETATM    5  C   UNK N   1      19.839  16.944   2.909  0.00  0.00     0.028 C 
HETATM    6  C   UNK N   1      20.065  17.234   1.425  0.00  0.00     0.034 C 
HETATM    7  C   UNK N   1      19.565  16.115   0.492  0.00  0.00     0.118 C 
HETATM    8  C   UNK N   1      19.430  14.737   1.152  0.00  0.00     0.034 C 
HETATM    9  C   UNK N   1      20.515  14.478   2.202  0.00  0.00     0.028 C 
BRANCH   7  10
HETATM   10  O   UNK N   1      18.350  16.479  -0.087  0.00  0.00    -0.396 OA
HETATM   11  H   UNK N   1      17.439  16.494   0.249  0.00  0.00     0.210 HD
ENDBRANCH   7  10
ENDBRANCH   3   4
BRANCH   3  12
HETATM   12  C   UNK N   1      22.372  15.817   4.862  0.00  0.00     0.063 A 
HETATM   13  C   UNK N   1      22.775  17.149   5.219  0.00  0.00     0.106 A 
HETATM   14  S   UNK N   1      24.411  17.193   5.036  0.00  0.00    -0.072 SA
HETATM   15  C   UNK N   1      24.691  15.646   4.610  0.00  0.00     0.061 A 
HETATM   16  C   UNK N   1      23.492  14.980   4.569  0.00  0.00     0.059 A 
BRANCH  13  17
HETATM   17  C   UNK N   1      22.063  18.399   5.538  0.00  0.00     0.185 C 
HETATM   18  O   UNK N   1      21.551  18.528   6.639  0.00  0.00    -0.646 OA
BRANCH  17  19
HETATM   19  O   UNK N   1      21.804  19.312   4.600  0.00  0.00    -0.772 OA
HETATM   20  H   UNK N   1      21.390  19.106   3.785  0.00  0.00     0.167 HD
ENDBRANCH  17  19
ENDBRANCH  13  17
BRANCH  15  21
HETATM   21  C   UNK N   1      25.825  15.265   3.866  0.00  0.00    -0.059 C 
HETATM   22  C   UNK N   1      26.919  15.079   3.431  0.00  0.00    -0.092 C 
BRANCH  22  23
HETATM   23  C   UNK N   1      28.340  15.075   3.160  0.00  0.00     0.013 C 
HETATM   24  C   UNK N   1      28.617  14.565   1.767  0.00  0.00     0.028 C 
HETATM   25  C   UNK N   1      28.793  16.519   3.158  0.00  0.00     0.028 C 
HETATM   26  C   UNK N   1      29.045  14.269   4.233  0.00  0.00     0.028 C 
ENDBRANCH  22  23
ENDBRANCH  15  21
ENDBRANCH   3  12
BRANCH   1  27
HETATM   27  C   UNK N   1      20.862  14.233   6.864  0.00  0.00     0.078 C 
HETATM   28  C   UNK N   1      20.225  14.800   8.129  0.00  0.00     0.014 C 
HETATM   29  C   UNK N   1      21.155  14.494   9.312  0.00  0.00     0.005 C 
HETATM   30  C   UNK N   1      21.405  12.989   9.468  0.00  0.00    -0.019 C 
HETATM   31  C   UNK N   1      22.464  12.764  10.531  0.00  0.00     0.010 C 
HETATM   32  C   UNK N   1      21.882  12.362   8.158  0.00  0.00     0.005 C 
HETATM   33  C   UNK N   1      20.937  12.708   7.006  0.00  0.00     0.014 C 
ENDBRANCH   1  27
TORSDOF 8
ENDMDL
MODEL 4
REMARK VINA RESULT:      -7.0      5.787     10.989
REMARK  8 active torsions:
REMARK  status: ('A' for Active; 'I' for Inactive)
REMARK    1  A    between atoms: C_5  and  C_8 
REMARK       I    between atoms: C_8  and  N_10 
REMARK    2  A    between atoms: C_11  and  N_10 
REMARK    3  A    between atoms: N_10  and  C_18 
REMARK    4  A    between atoms: C_14  and  O_17 
REMARK    5  A    between atoms: C_19  and  C_29 
REMARK    6  A    between atoms: C_21  and  C_23 
REMARK    7  A    between atoms: C_24  and  C_25 
REMARK    8  A    between atoms: C_29  and  O_31 
ROOT
HETATM    1  C   UNK N   1      27.516  18.749   4.464  0.00  0.00     0.229 C 
HETATM    2  O   UNK N   1      28.338  19.655   4.526  0.00  0.00    -0.273 OA
HETATM    3  N   UNK N   1      27.881  17.454   4.836  0.00  0.00    -0.311 N 
ENDROOT
BRANCH   3   4
HETATM    4  C   UNK N   1      29.271  17.183   5.168  0.00  0.00     0.093 C 
HETATM    5  C   UNK N   1      30.268  16.879   4.051  0.00  0.00     0.028 C 
HETATM    6  C   UNK N   1      31.641  17.415   4.453  0.00  0.00     0.034 C 
HETATM    7  C   UNK N   1      32.129  16.905   5.822  0.00  0.00     0.118 C 
HETATM    8  C   UNK N   1      31.019  16.416   6.761  0.00  0.00     0.034 C 
HETATM    9  C   UNK N   1      29.731  17.232   6.624  0.00  0.00     0.028 C 
BRANCH   7  10
HETATM   10  O   UNK N   1      33.076  15.896   5.650  0.00  0.00    -0.396 OA
HETATM   11  H   UNK N   1      33.856  15.631   6.163  0.00  0.00     0.210 HD
ENDBRANCH   7  10
ENDBRANCH   3   4
BRANCH   3  12
HETATM   12  C   UNK N   1      26.919  16.372   4.826  0.00  0.00     0.063 A 
HETATM   13  C   UNK N   1      26.522  15.588   3.690  0.00  0.00     0.106 A 
HETATM   14  S   UNK N   1      25.143  14.805   4.137  0.00  0.00    -0.072 SA
HETATM   15  C   UNK N   1      25.022  15.304   5.682  0.00  0.00     0.061 A 
HETATM   16  C   UNK N   1      26.070  16.147   5.953  0.00  0.00     0.059 A 
BRANCH  13  17
HETATM   17  C   UNK N   1      26.978  15.479   2.293  0.00  0.00     0.185 C 
HETATM   18  O   UNK N   1      26.168  15.622   1.389  0.00  0.00    -0.646 OA
BRANCH  17  19
HETATM   19  O   UNK N   1      28.205  15.047   1.992  0.00  0.00    -0.772 OA
HETATM   20  H   UNK N   1      28.556  15.068   1.124  0.00  0.00     0.167 HD
ENDBRANCH  17  19
ENDBRANCH  13  17
BRANCH  15  21
HETATM   21  C   UNK N   1      23.791  15.340   6.366  0.00  0.00    -0.059 C 
HETATM   22  C   UNK N   1      22.681  15.547   6.748  0.00  0.00    -0.092 C 
BRANCH  22  23
HETATM   23  C   UNK N   1      21.337  16.040   6.955  0.00  0.00     0.013 C 
HETATM   24  C   UNK N   1      21.244  17.505   6.607  0.00  0.00     0.028 C 
HETATM   25  C   UNK N   1      20.448  15.331   5.956  0.00  0.00     0.028 C 
HETATM   26  C   UNK N   1      20.918  15.746   8.382  0.00  0.00     0.028 C 
ENDBRANCH  22  23
ENDBRANCH  15  21
ENDBRANCH   3  12
BRANCH   1  27
HETATM   27  C   UNK N   1      26.122  19.082   3.922  0.00  0.00     0.078 C 
HETATM   28  C   UNK N   1      24.957  19.060   4.906  0.00  0.00     0.014 C 
HETATM   29  C   UNK N   1      23.650  19.100   4.101  0.00  0.00     0.005 C 
HETATM   30  C   UNK N   1      23.569  20.342   3.204  0.00  0.00    -0.019 C 
HETATM   31  C   UNK N   1      22.349  20.235   2.309  0.00  0.00     0.010 C 
HETATM   32  C   UNK N   1      24.812  20.481   2.328  0.00  0.00     0.005 C 
HETATM   33  C   UNK N   1      26.088  20.417   3.168  0.00  0.00     0.014 C 
ENDBRANCH   1  27
TORSDOF 8
ENDMDL
MODEL 5
REMARK VINA RESULT:      -7.0     10.814     13.668
REMARK  8 active torsions:
REMARK  status: ('A' for Active; 'I' for Inactive)
REMARK    1  A    between atoms: C_5  and  C_8 
REMARK       I    between atoms: C_8  and  N_10 
REMARK    2  A    between atoms: C_11  and  N_10 
REMARK    3  A    between atoms: N_10  and  C_18 
REMARK    4  A    between atoms: C_14  and  O_17 
REMARK    5  A    between atoms: C_19  and  C_29 
REMARK    6  A    between atoms: C_21  and  C_23 
REMARK    7  A    between atoms: C_24  and  C_25 
REMARK    8  A    between atoms: C_29  and  O_31 
ROOT
HETATM    1  C   UNK N   1      21.358  17.276   5.933  0.00  0.00     0.229 C 
HETATM    2  O   UNK N   1      21.436  18.402   6.408  0.00  0.00    -0.273 OA
HETATM    3  N   UNK N   1      21.263  17.110   4.550  0.00  0.00    -0.311 N 
ENDROOT
BRANCH   3   4
HETATM    4  C   UNK N   1      21.131  18.289   3.708  0.00  0.00     0.093 C 
HETATM    5  C   UNK N   1      19.845  18.506   2.912  0.00  0.00     0.028 C 
HETATM    6  C   UNK N   1      19.580  20.007   2.801  0.00  0.00     0.034 C 
HETATM    7  C   UNK N   1      20.763  20.805   2.222  0.00  0.00     0.118 C 
HETATM    8  C   UNK N   1      22.128  20.117   2.350  0.00  0.00     0.034 C 
HETATM    9  C   UNK N   1      22.263  19.312   3.646  0.00  0.00     0.028 C 
BRANCH   7  10
HETATM   10  O   UNK N   1      20.521  21.123   0.886  0.00  0.00    -0.396 OA
HETATM   11  H   UNK N   1      19.987  20.700   0.195  0.00  0.00     0.210 HD
ENDBRANCH   7  10
ENDBRANCH   3   4
BRANCH   3  12
HETATM   12  C   UNK N   1      21.223  15.791   3.955  0.00  0.00     0.063 A 
HETATM   13  C   UNK N   1      20.174  14.819   4.092  0.00  0.00     0.106 A 
HETATM   14  S   UNK N   1      20.807  13.389   3.574  0.00  0.00    -0.072 SA
HETATM   15  C   UNK N   1      22.288  13.886   3.112  0.00  0.00     0.061 A 
HETATM   16  C   UNK N   1      22.391  15.233   3.349  0.00  0.00     0.059 A 
BRANCH  13  17
HETATM   17  C   UNK N   1      18.827  14.823   4.689  0.00  0.00     0.185 C 
HETATM   18  O   UNK N   1      18.228  13.765   4.815  0.00  0.00    -0.646 OA
BRANCH  17  19
HETATM   19  O   UNK N   1      18.172  15.962   4.925  0.00  0.00    -0.772 OA
HETATM   20  H   UNK N   1      17.461  16.027   5.531  0.00  0.00     0.167 HD
ENDBRANCH  17  19
ENDBRANCH  13  17
BRANCH  15  21
HETATM   21  C   UNK N   1      23.391  13.013   3.061  0.00  0.00    -0.059 C 
HETATM   22  C   UNK N   1      24.445  12.482   2.885  0.00  0.00    -0.092 C 
BRANCH  22  23
HETATM   23  C   UNK N   1      25.787  12.125   2.481  0.00  0.00     0.013 C 
HETATM   24  C   UNK N   1      26.432  11.223   3.504  0.00  0.00     0.028 C 
HETATM   25  C   UNK N   1      25.661  11.287   1.227  0.00  0.00     0.028 C 
HETATM   26  C   UNK N   1      26.580  13.392   2.228  0.00  0.00     0.028 C 
ENDBRANCH  22  23
ENDBRANCH  15  21
ENDBRANCH   3  12
BRANCH   1  27
HETATM   27  C   UNK N   1      21.312  16.091   6.904  0.00  0.00     0.078 C 
HETATM   28  C   UNK N   1      22.612  15.336   7.159  0.00  0.00     0.014 C 
HETATM   29  C   UNK N   1      22.271  14.027   7.886  0.00  0.00     0.005 C 
HETATM   30  C   UNK N   1      21.534  14.283   9.207  0.00  0.00    -0.019 C 
HETATM   31  C   UNK N   1      21.069  12.959   9.785  0.00  0.00     0.010 C 
HETATM   32  C   UNK N   1      20.318  15.185   9.003  0.00  0.00     0.005 C 
HETATM   33  C   UNK N   1      20.701  16.465   8.259  0.00  0.00     0.014 C 
ENDBRANCH   1  27
TORSDOF 8
ENDMDL
MODEL 6
REMARK VINA RESULT:      -7.0      7.833     11.768
REMARK  8 active torsions:
REMARK  status: ('A' for Active; 'I' for Inactive)
REMARK    1  A    between atoms: C_5  and  C_8 
REMARK       I    between atoms: C_8  and  N_10 
REMARK    2  A    between atoms: C_11  and  N_10 
REMARK    3  A    between atoms: N_10  and  C_18 
REMARK    4  A    between atoms: C_14  and  O_17 
REMARK    5  A    between atoms: C_19  and  C_29 
REMARK    6  A    between atoms: C_21  and  C_23 
REMARK    7  A    between atoms: C_24  and  C_25 
REMARK    8  A    between atoms: C_29  and  O_31 
ROOT
HETATM    1  C   UNK N   1      21.117  15.961   6.040  0.00  0.00     0.229 C 
HETATM    2  O   UNK N   1      19.994  16.447   6.091  0.00  0.00    -0.273 OA
HETATM    3  N   UNK N   1      21.994  16.346   5.024  0.00  0.00    -0.311 N 
ENDROOT
BRANCH   3   4
HETATM    4  C   UNK N   1      21.509  17.224   3.971  0.00  0.00     0.093 C 
HETATM    5  C   UNK N   1      21.000  16.622   2.662  0.00  0.00     0.028 C 
HETATM    6  C   UNK N   1      19.880  17.506   2.114  0.00  0.00     0.034 C 
HETATM    7  C   UNK N   1      20.279  18.985   1.956  0.00  0.00     0.118 C 
HETATM    8  C   UNK N   1      21.463  19.429   2.824  0.00  0.00     0.034 C 
HETATM    9  C   UNK N   1      21.485  18.735   4.189  0.00  0.00     0.028 C 
BRANCH   7  10
HETATM   10  O   UNK N   1      20.546  19.272   0.617  0.00  0.00    -0.396 OA
HETATM   11  H   UNK N   1      21.353  19.220   0.081  0.00  0.00     0.210 HD
ENDBRANCH   7  10
ENDBRANCH   3   4
BRANCH   3  12
HETATM   12  C   UNK N   1      23.346  15.831   4.968  0.00  0.00     0.063 A 
HETATM   13  C   UNK N   1      23.739  14.486   4.650  0.00  0.00     0.106 A 
HETATM   14  S   UNK N   1      25.310  14.347   5.123  0.00  0.00    -0.072 SA
HETATM   15  C   UNK N   1      25.587  15.867   5.638  0.00  0.00     0.061 A 
HETATM   16  C   UNK N   1      24.436  16.598   5.482  0.00  0.00     0.059 A 
BRANCH  13  17
HETATM   17  C   UNK N   1      23.034  13.284   4.171  0.00  0.00     0.185 C 
HETATM   18  O   UNK N   1      23.487  12.182   4.439  0.00  0.00    -0.646 OA
BRANCH  17  19
HETATM   19  O   UNK N   1      22.023  13.367   3.303  0.00  0.00    -0.772 OA
HETATM   20  H   UNK N   1      21.796  12.675   2.715  0.00  0.00     0.167 HD
ENDBRANCH  17  19
ENDBRANCH  13  17
BRANCH  15  21
HETATM   21  C   UNK N   1      26.584  16.170   6.585  0.00  0.00    -0.059 C 
HETATM   22  C   UNK N   1      27.434  16.668   7.258  0.00  0.00    -0.092 C 
BRANCH  22  23
HETATM   23  C   UNK N   1      28.440  17.531   7.837  0.00  0.00     0.013 C 
HETATM   24  C   UNK N   1      28.168  18.975   7.495  0.00  0.00     0.028 C 
HETATM   25  C   UNK N   1      28.288  17.437   9.340  0.00  0.00     0.028 C 
HETATM   26  C   UNK N   1      29.810  17.065   7.385  0.00  0.00     0.028 C 
ENDBRANCH  22  23
ENDBRANCH  15  21
ENDBRANCH   3  12
BRANCH   1  27
HETATM   27  C   UNK N   1      21.485  14.898   7.080  0.00  0.00     0.078 C 
HETATM   28  C   UNK N   1      21.248  15.233   8.549  0.00  0.00     0.014 C 
HETATM   29  C   UNK N   1      21.974  14.184   9.403  0.00  0.00     0.005 C 
HETATM   30  C   UNK N   1      21.488  12.761   9.095  0.00  0.00    -0.019 C 
HETATM   31  C   UNK N   1      22.360  11.763   9.833  0.00  0.00     0.010 C 
HETATM   32  C   UNK N   1      21.553  12.460   7.598  0.00  0.00     0.005 C 
HETATM   33  C   UNK N   1      20.836  13.540   6.787  0.00  0.00     0.014 C 
ENDBRANCH   1  27
TORSDOF 8
ENDMDL
MODEL 7
REMARK VINA RESULT:      -7.0     14.862     18.055
REMARK  8 active torsions:
REMARK  status: ('A' for Active; 'I' for Inactive)
REMARK    1  A    between atoms: C_5  and  C_8 
REMARK       I    between atoms: C_8  and  N_10 
REMARK    2  A    between atoms: C_11  and  N_10 
REMARK    3  A    between atoms: N_10  and  C_18 
REMARK    4  A    between atoms: C_14  and  O_17 
REMARK    5  A    between atoms: C_19  and  C_29 
REMARK    6  A    between atoms: C_21  and  C_23 
REMARK    7  A    between atoms: C_24  and  C_25 
REMARK    8  A    between atoms: C_29  and  O_31 
ROOT
HETATM    1  C   UNK N   1      30.148  25.505  -4.202  0.00  0.00     0.229 C 
HETATM    2  O   UNK N   1      30.666  26.337  -3.468  0.00  0.00    -0.273 OA
HETATM    3  N   UNK N   1      28.997  25.833  -4.921  0.00  0.00    -0.311 N 
ENDROOT
BRANCH   3   4
HETATM    4  C   UNK N   1      28.363  27.120  -4.684  0.00  0.00     0.093 C 
HETATM    5  C   UNK N   1      27.510  27.321  -3.432  0.00  0.00     0.028 C 
HETATM    6  C   UNK N   1      27.639  28.774  -2.975  0.00  0.00     0.034 C 
HETATM    7  C   UNK N   1      27.308  29.801  -4.073  0.00  0.00     0.118 C 
HETATM    8  C   UNK N   1      27.431  29.272  -5.508  0.00  0.00     0.034 C 
HETATM    9  C   UNK N   1      28.576  28.267  -5.669  0.00  0.00     0.028 C 
BRANCH   7  10
HETATM   10  O   UNK N   1      26.032  30.326  -3.875  0.00  0.00    -0.396 OA
HETATM   11  H   UNK N   1      25.619  30.788  -3.128  0.00  0.00     0.210 HD
ENDBRANCH   7  10
ENDBRANCH   3   4
BRANCH   3  12
HETATM   12  C   UNK N   1      28.393  24.889  -5.838  0.00  0.00     0.063 A 
HETATM   13  C   UNK N   1      27.109  24.260  -5.698  0.00  0.00     0.106 A 
HETATM   14  S   UNK N   1      27.097  23.008  -6.767  0.00  0.00    -0.072 SA
HETATM   15  C   UNK N   1      28.553  23.217  -7.465  0.00  0.00     0.061 A 
HETATM   16  C   UNK N   1      29.165  24.299  -6.885  0.00  0.00     0.059 A 
BRANCH  13  17
HETATM   17  C   UNK N   1      25.974  24.410  -4.769  0.00  0.00     0.185 C 
HETATM   18  O   UNK N   1      24.936  24.912  -5.173  0.00  0.00    -0.646 OA
BRANCH  17  19
HETATM   19  O   UNK N   1      26.111  24.185  -3.460  0.00  0.00    -0.772 OA
HETATM   20  H   UNK N   1      26.405  24.838  -2.857  0.00  0.00     0.167 HD
ENDBRANCH  17  19
ENDBRANCH  13  17
BRANCH  15  21
HETATM   21  C   UNK N   1      29.251  22.159  -8.080  0.00  0.00    -0.059 C 
HETATM   22  C   UNK N   1      29.786  21.132  -8.366  0.00  0.00    -0.092 C 
BRANCH  22  23
HETATM   23  C   UNK N   1      30.361  19.805  -8.380  0.00  0.00     0.013 C 
HETATM   24  C   UNK N   1      29.434  18.814  -7.721  0.00  0.00     0.028 C 
HETATM   25  C   UNK N   1      30.445  19.376  -9.829  0.00  0.00     0.028 C 
HETATM   26  C   UNK N   1      31.730  19.853  -7.731  0.00  0.00     0.028 C 
ENDBRANCH  22  23
ENDBRANCH  15  21
ENDBRANCH   3  12
BRANCH   1  27
HETATM   27  C   UNK N   1      30.772  24.106  -4.250  0.00  0.00     0.078 C 
HETATM   28  C   UNK N   1      32.217  23.992  -4.725  0.00  0.00     0.014 C 
HETATM   29  C   UNK N   1      32.516  22.511  -4.998  0.00  0.00     0.005 C 
HETATM   30  C   UNK N   1      32.294  21.644  -3.752  0.00  0.00    -0.019 C 
HETATM   31  C   UNK N   1      32.431  20.181  -4.128  0.00  0.00     0.010 C 
HETATM   32  C   UNK N   1      30.907  21.871  -3.153  0.00  0.00     0.005 C 
HETATM   33  C   UNK N   1      30.645  23.359  -2.917  0.00  0.00     0.014 C 
ENDBRANCH   1  27
TORSDOF 8
ENDMDL
MODEL 8
REMARK VINA RESULT:      -7.0      4.225      8.689
REMARK  8 active torsions:
REMARK  status: ('A' for Active; 'I' for Inactive)
REMARK    1  A    between atoms: C_5  and  C_8 
REMARK       I    between atoms: C_8  and  N_10 
REMARK    2  A    between atoms: C_11  and  N_10 
REMARK    3  A    between atoms: N_10  and  C_18 
REMARK    4  A    between atoms: C_14  and  O_17 
REMARK    5  A    between atoms: C_19  and  C_29 
REMARK    6  A    between atoms: C_21  and  C_23 
REMARK    7  A    between atoms: C_24  and  C_25 
REMARK    8  A    between atoms: C_29  and  O_31 
ROOT
HETATM    1  C   UNK N   1      29.645  17.529   6.880  0.00  0.00     0.229 C 
HETATM    2  O   UNK N   1      29.665  18.250   7.869  0.00  0.00    -0.273 OA
HETATM    3  N   UNK N   1      30.721  16.678   6.619  0.00  0.00    -0.311 N 
ENDROOT
BRANCH   3   4
HETATM    4  C   UNK N   1      31.903  16.760   7.462  0.00  0.00     0.093 C 
HETATM    5  C   UNK N   1      31.969  15.937   8.748  0.00  0.00     0.028 C 
HETATM    6  C   UNK N   1      33.422  15.533   9.002  0.00  0.00     0.034 C 
HETATM    7  C   UNK N   1      34.401  16.721   9.022  0.00  0.00     0.118 C 
HETATM    8  C   UNK N   1      33.908  17.975   8.289  0.00  0.00     0.034 C 
HETATM    9  C   UNK N   1      33.077  17.643   7.046  0.00  0.00     0.028 C 
BRANCH   7  10
HETATM   10  O   UNK N   1      34.737  17.047  10.335  0.00  0.00    -0.396 OA
HETATM   11  H   UNK N   1      34.825  16.516  11.143  0.00  0.00     0.210 HD
ENDBRANCH   7  10
ENDBRANCH   3   4
BRANCH   3  12
HETATM   12  C   UNK N   1      30.704  15.774   5.488  0.00  0.00     0.063 A 
HETATM   13  C   UNK N   1      31.283  16.009   4.194  0.00  0.00     0.106 A 
HETATM   14  S   UNK N   1      30.634  14.874   3.192  0.00  0.00    -0.072 SA
HETATM   15  C   UNK N   1      29.724  14.043   4.257  0.00  0.00     0.061 A 
HETATM   16  C   UNK N   1      29.862  14.620   5.494  0.00  0.00     0.059 A 
BRANCH  13  17
HETATM   17  C   UNK N   1      32.142  17.058   3.615  0.00  0.00     0.185 C 
HETATM   18  O   UNK N   1      33.207  16.742   3.107  0.00  0.00    -0.646 OA
BRANCH  17  19
HETATM   19  O   UNK N   1      31.876  18.354   3.794  0.00  0.00    -0.772 OA
HETATM   20  H   UNK N   1      31.415  18.683   4.540  0.00  0.00     0.167 HD
ENDBRANCH  17  19
ENDBRANCH  13  17
BRANCH  15  21
HETATM   21  C   UNK N   1      28.596  13.298   3.862  0.00  0.00    -0.059 C 
HETATM   22  C   UNK N   1      27.561  12.906   3.419  0.00  0.00    -0.092 C 
BRANCH  22  23
HETATM   23  C   UNK N   1      26.256  12.770   2.809  0.00  0.00     0.013 C 
HETATM   24  C   UNK N   1      25.219  12.402   3.841  0.00  0.00     0.028 C 
HETATM   25  C   UNK N   1      25.859  14.142   2.309  0.00  0.00     0.028 C 
HETATM   26  C   UNK N   1      26.343  11.767   1.676  0.00  0.00     0.028 C 
ENDBRANCH  22  23
ENDBRANCH  15  21
ENDBRANCH   3  12
BRANCH   1  27
HETATM   27  C   UNK N   1      28.443  17.641   5.936  0.00  0.00     0.078 C 
HETATM   28  C   UNK N   1      27.201  16.823   6.273  0.00  0.00     0.014 C 
HETATM   29  C   UNK N   1      26.272  16.836   5.050  0.00  0.00     0.005 C 
HETATM   30  C   UNK N   1      25.880  18.263   4.646  0.00  0.00    -0.019 C 
HETATM   31  C   UNK N   1      25.115  18.221   3.337  0.00  0.00     0.010 C 
HETATM   32  C   UNK N   1      27.109  19.153   4.470  0.00  0.00     0.005 C 
HETATM   33  C   UNK N   1      28.013  19.094   5.702  0.00  0.00     0.014 C 
ENDBRANCH   1  27
TORSDOF 8
ENDMDL
MODEL 9
REMARK VINA RESULT:      -6.9      5.374      8.250
REMARK  8 active torsions:
REMARK  status: ('A' for Active; 'I' for Inactive)
REMARK    1  A    between atoms: C_5  and  C_8 
REMARK       I    between atoms: C_8  and  N_10 
REMARK    2  A    between atoms: C_11  and  N_10 
REMARK    3  A    between atoms: N_10  and  C_18 
REMARK    4  A    between atoms: C_14  and  O_17 
REMARK    5  A    between atoms: C_19  and  C_29 
REMARK    6  A    between atoms: C_21  and  C_23 
REMARK    7  A    between atoms: C_24  and  C_25 
REMARK    8  A    between atoms: C_29  and  O_31 
ROOT
HETATM    1  C   UNK N   1      36.109  13.992  12.675  0.00  0.00     0.229 C 
HETATM    2  O   UNK N   1      35.817  15.169  12.850  0.00  0.00    -0.273 OA
HETATM    3  N   UNK N   1      36.221  13.134  13.771  0.00  0.00    -0.311 N 
ENDROOT
BRANCH   3   4
HETATM    4  C   UNK N   1      36.115  13.688  15.111  0.00  0.00     0.093 C 
HETATM    5  C   UNK N   1      34.876  13.389  15.954  0.00  0.00     0.028 C 
HETATM    6  C   UNK N   1      35.282  13.329  17.427  0.00  0.00     0.034 C 
HETATM    7  C   UNK N   1      36.028  14.584  17.916  0.00  0.00     0.118 C 
HETATM    8  C   UNK N   1      36.696  15.410  16.808  0.00  0.00     0.034 C 
HETATM    9  C   UNK N   1      37.251  14.538  15.677  0.00  0.00     0.028 C 
BRANCH   7  10
HETATM   10  O   UNK N   1      35.170  15.398  18.654  0.00  0.00    -0.396 OA
HETATM   11  H   UNK N   1      34.222  15.344  18.854  0.00  0.00     0.210 HD
ENDBRANCH   7  10
ENDBRANCH   3   4
BRANCH   3  12
HETATM   12  C   UNK N   1      36.510  11.726  13.593  0.00  0.00     0.063 A 
HETATM   13  C   UNK N   1      35.553  10.658  13.519  0.00  0.00     0.106 A 
HETATM   14  S   UNK N   1      36.409   9.265  13.727  0.00  0.00    -0.072 SA
HETATM   15  C   UNK N   1      37.916   9.873  13.834  0.00  0.00     0.061 A 
HETATM   16  C   UNK N   1      37.847  11.238  13.724  0.00  0.00     0.059 A 
BRANCH  13  17
HETATM   17  C   UNK N   1      34.083  10.583  13.452  0.00  0.00     0.185 C 
HETATM   18  O   UNK N   1      33.439  10.576  14.490  0.00  0.00    -0.646 OA
BRANCH  17  19
HETATM   19  O   UNK N   1      33.449  10.336  12.303  0.00  0.00    -0.772 OA
HETATM   20  H   UNK N   1      33.617  10.813  11.515  0.00  0.00     0.167 HD
ENDBRANCH  17  19
ENDBRANCH  13  17
BRANCH  15  21
HETATM   21  C   UNK N   1      38.955   9.193  14.499  0.00  0.00    -0.059 C 
HETATM   22  C   UNK N   1      39.923   8.569  14.808  0.00  0.00    -0.092 C 
BRANCH  22  23
HETATM   23  C   UNK N   1      41.122   7.760  14.836  0.00  0.00     0.013 C 
HETATM   24  C   UNK N   1      40.790   6.323  15.156  0.00  0.00     0.028 C 
HETATM   25  C   UNK N   1      41.675   7.742  13.427  0.00  0.00     0.028 C 
HETATM   26  C   UNK N   1      42.107   8.369  15.814  0.00  0.00     0.028 C 
ENDBRANCH  22  23
ENDBRANCH  15  21
ENDBRANCH   3  12
BRANCH   1  27
HETATM   27  C   UNK N   1      36.391  13.530  11.242  0.00  0.00     0.078 C 
HETATM   28  C   UNK N   1      35.238  12.911  10.458  0.00  0.00     0.014 C 
HETATM   29  C   UNK N   1      35.817  12.242   9.203  0.00  0.00     0.005 C 
HETATM   30  C   UNK N   1      36.584  13.239   8.326  0.00  0.00    -0.019 C 
HETATM   31  C   UNK N   1      37.278  12.490   7.204  0.00  0.00     0.010 C 
HETATM   32  C   UNK N   1      37.634  14.001   9.133  0.00  0.00     0.005 C 
HETATM   33  C   UNK N   1      37.018  14.633  10.381  0.00  0.00     0.014 C 
ENDBRANCH   1  27
TORSDOF 8
ENDMDL
