MODEL 1
REMARK VINA RESULT:      -7.7      0.000      0.000
REMARK  10 active torsions:
REMARK  status: ('A' for Active; 'I' for Inactive)
REMARK    1  A    between atoms: C_5  and  N_21 
REMARK    2  A    between atoms: C_7  and  N_10 
REMARK    3  A    between atoms: N_21  and  N_22 
REMARK       I    between atoms: N_22  and  C_23 
REMARK    4  A    between atoms: C_25  and  C_23 
REMARK    5  A    between atoms: C_25  and  C_26 
REMARK    6  A    between atoms: C_25  and  C_32 
REMARK    7  A    between atoms: C_26  and  C_27 
REMARK    8  A    between atoms: C_32  and  N_33 
REMARK    9  A    between atoms: N_33  and  C_34 
REMARK   10  A    between atoms: N_33  and  O_36 
ROOT
HETATM    1  C   UNK N   1      27.748  21.248   6.413  0.00  0.00     0.089 C 
HETATM    2  C   UNK N   1      27.310  20.168   5.491  0.00  0.00     0.080 A 
HETATM    3  N   UNK N   1      28.242  19.377   4.885  0.00  0.00    -0.329 N 
ATOM      4  HN  UNK N   1      29.233  19.537   5.065  1.00  0.00     0.168 HD
HETATM    5  C   UNK N   1      27.863  18.379   4.045  0.00  0.00     0.164 A 
HETATM    6  C   UNK N   1      26.495  18.175   3.798  0.00  0.00     0.205 A 
HETATM    7  C   UNK N   1      25.542  18.967   4.451  0.00  0.00     0.148 A 
HETATM    8  N   UNK N   1      25.978  19.955   5.282  0.00  0.00    -0.330 N 
ATOM      9  HN  UNK N   1      25.296  20.547   5.756  1.00  0.00     0.168 HD
HETATM   10  F   UNK N   1      26.096  17.216   2.932  0.00  0.00    -0.198 F 
ENDROOT
BRANCH   5  11
HETATM   11  N   UNK N   1      28.835  17.526   3.441  0.00  0.00    -0.280 N 
HETATM   12  H   UNK N   1      28.704  17.164   2.535  0.00  0.00     0.188 HD
BRANCH  11  13
HETATM   13  N   UNK N   1      29.958  17.227   4.174  0.00  0.00    -0.268 N 
HETATM   14  C   UNK N   1      30.173  16.099   4.875  0.00  0.00     0.241 C 
HETATM   15  O   UNK N   1      29.395  15.157   4.814  0.00  0.00    -0.271 OA
HETATM   16  H   UNK N   1      30.674  17.904   4.187  0.00  0.00     0.190 HD
BRANCH  14  17
HETATM   17  C   UNK N   1      31.353  16.110   5.813  0.00  0.00     0.100 C 
BRANCH  17  18
HETATM   18  C   UNK N   1      30.997  16.156   7.298  0.00  0.00     0.020 C 
BRANCH  18  19
HETATM   19  C   UNK N   1      30.281  17.462   7.645  0.00  0.00    -0.014 C 
HETATM   20  C   UNK N   1      30.848  18.095   8.890  0.00  0.00     0.005 C 
HETATM   21  C   UNK N   1      29.746  19.021   9.376  0.00  0.00     0.000 C 
HETATM   22  C   UNK N   1      28.451  18.513   8.760  0.00  0.00     0.000 C 
HETATM   23  C   UNK N   1      28.824  17.267   7.988  0.00  0.00     0.005 C 
ENDBRANCH  18  19
ENDBRANCH  17  18
BRANCH  17  24
HETATM   24  C   UNK N   1      32.212  17.317   5.417  0.00  0.00     0.172 C 
BRANCH  24  25
HETATM   25  N   UNK N   1      33.597  17.142   5.782  0.00  0.00    -0.235 N 
BRANCH  25  26
HETATM   26  C   UNK N   1      34.237  16.007   5.425  0.00  0.00     0.376 C 
HETATM   27  O   UNK N   1      35.395  15.813   5.757  0.00  0.00    -0.281 OA
ENDBRANCH  25  26
BRANCH  25  28
HETATM   28  O   UNK N   1      34.212  18.047   6.559  0.00  0.00    -0.285 OA
HETATM   29  H   UNK N   1      34.610  18.277   7.413  0.00  0.00     0.245 HD
ENDBRANCH  25  28
ENDBRANCH  24  25
ENDBRANCH  17  24
ENDBRANCH  14  17
ENDBRANCH  11  13
ENDBRANCH   5  11
BRANCH   7  30
HETATM   30  N   UNK N   1      24.136  18.710   4.290  0.00  0.00    -0.361 N 
HETATM   31  C   UNK N   1      23.525  17.567   4.951  0.00  0.00     0.154 C 
HETATM   32  C   UNK N   1      22.447  16.969   4.072  0.00  0.00     0.293 C 
HETATM   33  N   UNK N   1      21.470  18.014   3.826  0.00  0.00     0.100 N 
HETATM   34  C   UNK N   1      20.322  17.424   3.144  0.00  0.00     0.299 C 
HETATM   35  C   UNK N   1      22.091  19.049   2.983  0.00  0.00     0.264 C 
HETATM   36  C   UNK N   1      19.350  18.547   2.788  0.00  0.00     0.198 C 
HETATM   37  O   UNK N   1      19.983  19.443   1.903  0.00  0.00    -0.387 OA
HETATM   38  C   UNK N   1      21.019  20.079   2.618  0.00  0.00     0.205 C 
HETATM   39  C   UNK N   1      23.252  19.721   3.740  0.00  0.00     0.162 C 
ENDBRANCH   7  30
TORSDOF 10
ENDMDL
MODEL 2
REMARK VINA RESULT:      -7.5      8.627     12.730
REMARK  10 active torsions:
REMARK  status: ('A' for Active; 'I' for Inactive)
REMARK    1  A    between atoms: C_5  and  N_21 
REMARK    2  A    between atoms: C_7  and  N_10 
REMARK    3  A    between atoms: N_21  and  N_22 
REMARK       I    between atoms: N_22  and  C_23 
REMARK    4  A    between atoms: C_25  and  C_23 
REMARK    5  A    between atoms: C_25  and  C_26 
REMARK    6  A    between atoms: C_25  and  C_32 
REMARK    7  A    between atoms: C_26  and  C_27 
REMARK    8  A    between atoms: C_32  and  N_33 
REMARK    9  A    between atoms: N_33  and  C_34 
REMARK   10  A    between atoms: N_33  and  O_36 
ROOT
HETATM    1  C   UNK N   1      38.469  11.862   9.966  0.00  0.00     0.089 C 
HETATM    2  C   UNK N   1      37.466  12.852  10.439  0.00  0.00     0.080 A 
HETATM    3  N   UNK N   1      37.529  13.321  11.719  0.00  0.00    -0.329 N 
ATOM      4  HN  UNK N   1      38.262  12.985  12.344  1.00  0.00     0.168 HD
HETATM    5  C   UNK N   1      36.627  14.232  12.168  0.00  0.00     0.164 A 
HETATM    6  C   UNK N   1      35.617  14.681  11.301  0.00  0.00     0.205 A 
HETATM    7  C   UNK N   1      35.579  14.222   9.978  0.00  0.00     0.148 A 
HETATM    8  N   UNK N   1      36.508  13.308   9.580  0.00  0.00    -0.330 N 
ATOM      9  HN  UNK N   1      36.486  12.957   8.623  1.00  0.00     0.168 HD
HETATM   10  F   UNK N   1      34.683  15.554  11.740  0.00  0.00    -0.198 F 
ENDROOT
BRANCH   5  11
HETATM   11  N   UNK N   1      36.716  14.753  13.494  0.00  0.00    -0.280 N 
HETATM   12  H   UNK N   1      37.285  15.530  13.700  0.00  0.00     0.188 HD
BRANCH  11  13
HETATM   13  N   UNK N   1      35.979  14.130  14.471  0.00  0.00    -0.268 N 
HETATM   14  C   UNK N   1      36.301  12.983  15.099  0.00  0.00     0.241 C 
HETATM   15  O   UNK N   1      37.384  12.446  14.921  0.00  0.00    -0.271 OA
HETATM   16  H   UNK N   1      35.135  14.563  14.737  0.00  0.00     0.190 HD
BRANCH  14  17
HETATM   17  C   UNK N   1      35.216  12.353  15.934  0.00  0.00     0.100 C 
BRANCH  17  18
HETATM   18  C   UNK N   1      34.168  11.567  15.147  0.00  0.00     0.020 C 
BRANCH  18  19
HETATM   19  C   UNK N   1      34.390  10.061  15.302  0.00  0.00    -0.014 C 
HETATM   20  C   UNK N   1      35.074   9.729  16.602  0.00  0.00     0.005 C 
HETATM   21  C   UNK N   1      35.679   8.354  16.370  0.00  0.00     0.000 C 
HETATM   22  C   UNK N   1      35.797   8.184  14.862  0.00  0.00     0.000 C 
HETATM   23  C   UNK N   1      35.323   9.488  14.262  0.00  0.00     0.005 C 
ENDBRANCH  18  19
ENDBRANCH  17  18
BRANCH  17  24
HETATM   24  C   UNK N   1      34.564  13.490  16.731  0.00  0.00     0.172 C 
BRANCH  24  25
HETATM   25  N   UNK N   1      35.271  13.771  17.957  0.00  0.00    -0.235 N 
BRANCH  25  26
HETATM   26  C   UNK N   1      35.223  12.876  18.968  0.00  0.00     0.376 C 
HETATM   27  O   UNK N   1      34.867  13.217  20.086  0.00  0.00    -0.281 OA
ENDBRANCH  25  26
BRANCH  25  28
HETATM   28  O   UNK N   1      35.880  14.953  18.131  0.00  0.00    -0.285 OA
HETATM   29  H   UNK N   1      36.356  15.567  18.713  0.00  0.00     0.245 HD
ENDBRANCH  25  28
ENDBRANCH  24  25
ENDBRANCH  17  24
ENDBRANCH  14  17
ENDBRANCH  11  13
ENDBRANCH   5  11
BRANCH   7  30
HETATM   30  N   UNK N   1      34.616  14.743   9.046  0.00  0.00    -0.361 N 
HETATM   31  C   UNK N   1      33.382  14.016   8.791  0.00  0.00     0.154 C 
HETATM   32  C   UNK N   1      32.984  14.154   7.337  0.00  0.00     0.293 C 
HETATM   33  N   UNK N   1      32.818  15.571   7.074  0.00  0.00     0.100 N 
HETATM   34  C   UNK N   1      32.250  15.732   5.739  0.00  0.00     0.299 C 
HETATM   35  C   UNK N   1      34.137  16.221   7.151  0.00  0.00     0.264 C 
HETATM   36  C   UNK N   1      32.184  17.225   5.425  0.00  0.00     0.198 C 
HETATM   37  O   UNK N   1      33.489  17.755   5.420  0.00  0.00    -0.387 OA
HETATM   38  C   UNK N   1      33.976  17.687   6.742  0.00  0.00     0.205 C 
HETATM   39  C   UNK N   1      34.695  16.117   8.583  0.00  0.00     0.162 C 
ENDBRANCH   7  30
TORSDOF 10
ENDMDL
MODEL 3
REMARK VINA RESULT:      -7.5      4.317      9.423
REMARK  10 active torsions:
REMARK  status: ('A' for Active; 'I' for Inactive)
REMARK    1  A    between atoms: C_5  and  N_21 
REMARK    2  A    between atoms: C_7  and  N_10 
REMARK    3  A    between atoms: N_21  and  N_22 
REMARK       I    between atoms: N_22  and  C_23 
REMARK    4  A    between atoms: C_25  and  C_23 
REMARK    5  A    between atoms: C_25  and  C_26 
REMARK    6  A    between atoms: C_25  and  C_32 
REMARK    7  A    between atoms: C_26  and  C_27 
REMARK    8  A    between atoms: C_32  and  N_33 
REMARK    9  A    between atoms: N_33  and  C_34 
REMARK   10  A    between atoms: N_33  and  O_36 
ROOT
HETATM    1  C   UNK N   1      26.239  20.551   4.667  0.00  0.00     0.089 C 
HETATM    2  C   UNK N   1      26.561  19.201   5.201  0.00  0.00     0.080 A 
HETATM    3  N   UNK N   1      25.636  18.202   5.115  0.00  0.00    -0.329 N 
ATOM      4  HN  UNK N   1      24.729  18.390   4.688  1.00  0.00     0.168 HD
HETATM    5  C   UNK N   1      25.913  16.960   5.590  0.00  0.00     0.164 A 
HETATM    6  C   UNK N   1      27.163  16.716   6.182  0.00  0.00     0.205 A 
HETATM    7  C   UNK N   1      28.121  17.737   6.236  0.00  0.00     0.148 A 
HETATM    8  N   UNK N   1      27.790  18.965   5.746  0.00  0.00    -0.330 N 
ATOM      9  HN  UNK N   1      28.473  19.720   5.788  1.00  0.00     0.168 HD
HETATM   10  F   UNK N   1      27.444  15.499   6.701  0.00  0.00    -0.198 F 
ENDROOT
BRANCH   5  11
HETATM   11  N   UNK N   1      24.962  15.903   5.463  0.00  0.00    -0.280 N 
HETATM   12  H   UNK N   1      24.906  15.362   4.643  0.00  0.00     0.188 HD
BRANCH  11  13
HETATM   13  N   UNK N   1      24.128  15.670   6.530  0.00  0.00    -0.268 N 
HETATM   14  C   UNK N   1      23.541  14.498   6.839  0.00  0.00     0.241 C 
HETATM   15  O   UNK N   1      23.815  13.474   6.231  0.00  0.00    -0.271 OA
HETATM   16  H   UNK N   1      23.941  16.433   7.124  0.00  0.00     0.190 HD
BRANCH  14  17
HETATM   17  C   UNK N   1      22.462  14.550   7.890  0.00  0.00     0.100 C 
BRANCH  17  18
HETATM   18  C   UNK N   1      22.147  13.212   8.559  0.00  0.00     0.020 C 
BRANCH  18  19
HETATM   19  C   UNK N   1      22.786  13.136   9.947  0.00  0.00    -0.014 C 
HETATM   20  C   UNK N   1      24.147  12.491   9.900  0.00  0.00     0.005 C 
HETATM   21  C   UNK N   1      24.390  12.021  11.324  0.00  0.00     0.000 C 
HETATM   22  C   UNK N   1      23.022  11.914  11.983  0.00  0.00     0.000 C 
HETATM   23  C   UNK N   1      22.018  12.258  10.906  0.00  0.00     0.005 C 
ENDBRANCH  18  19
ENDBRANCH  17  18
BRANCH  17  24
HETATM   24  C   UNK N   1      21.216  15.128   7.207  0.00  0.00     0.172 C 
BRANCH  24  25
HETATM   25  N   UNK N   1      20.993  16.509   7.560  0.00  0.00    -0.235 N 
BRANCH  25  26
HETATM   26  C   UNK N   1      20.126  16.806   8.553  0.00  0.00     0.376 C 
HETATM   27  O   UNK N   1      20.046  17.943   8.991  0.00  0.00    -0.281 OA
ENDBRANCH  25  26
BRANCH  25  28
HETATM   28  O   UNK N   1      21.557  17.491   6.841  0.00  0.00    -0.285 OA
HETATM   29  H   UNK N   1      21.883  18.404   6.790  0.00  0.00     0.245 HD
ENDBRANCH  25  28
ENDBRANCH  24  25
ENDBRANCH  17  24
ENDBRANCH  14  17
ENDBRANCH  11  13
ENDBRANCH   5  11
BRANCH   7  30
HETATM   30  N   UNK N   1      29.441  17.482   6.747  0.00  0.00    -0.361 N 
HETATM   31  C   UNK N   1      29.648  17.317   8.178  0.00  0.00     0.154 C 
HETATM   32  C   UNK N   1      30.977  17.915   8.586  0.00  0.00     0.293 C 
HETATM   33  N   UNK N   1      32.005  17.226   7.828  0.00  0.00     0.100 N 
HETATM   34  C   UNK N   1      33.310  17.641   8.333  0.00  0.00     0.299 C 
HETATM   35  C   UNK N   1      31.865  17.591   6.408  0.00  0.00     0.264 C 
HETATM   36  C   UNK N   1      34.385  17.001   7.457  0.00  0.00     0.198 C 
HETATM   37  O   UNK N   1      34.248  17.473   6.137  0.00  0.00    -0.387 OA
HETATM   38  C   UNK N   1      33.030  16.970   5.635  0.00  0.00     0.205 C 
HETATM   39  C   UNK N   1      30.519  17.081   5.861  0.00  0.00     0.162 C 
ENDBRANCH   7  30
TORSDOF 10
ENDMDL
MODEL 4
REMARK VINA RESULT:      -7.4      2.016      9.933
REMARK  10 active torsions:
REMARK  status: ('A' for Active; 'I' for Inactive)
REMARK    1  A    between atoms: C_5  and  N_21 
REMARK    2  A    between atoms: C_7  and  N_10 
REMARK    3  A    between atoms: N_21  and  N_22 
REMARK       I    between atoms: N_22  and  C_23 
REMARK    4  A    between atoms: C_25  and  C_23 
REMARK    5  A    between atoms: C_25  and  C_26 
REMARK    6  A    between atoms: C_25  and  C_32 
REMARK    7  A    between atoms: C_26  and  C_27 
REMARK    8  A    between atoms: C_32  and  N_33 
REMARK    9  A    between atoms: N_33  and  C_34 
REMARK   10  A    between atoms: N_33  and  O_36 
ROOT
HETATM    1  C   UNK N   1      26.882  21.673   6.286  0.00  0.00     0.089 C 
HETATM    2  C   UNK N   1      27.011  20.204   6.097  0.00  0.00     0.080 A 
HETATM    3  N   UNK N   1      25.988  19.502   5.531  0.00  0.00    -0.329 N 
ATOM      4  HN  UNK N   1      25.139  19.990   5.246  1.00  0.00     0.168 HD
HETATM    5  C   UNK N   1      26.089  18.160   5.343  0.00  0.00     0.164 A 
HETATM    6  C   UNK N   1      27.260  17.498   5.748  0.00  0.00     0.205 A 
HETATM    7  C   UNK N   1      28.321  18.230   6.297  0.00  0.00     0.148 A 
HETATM    8  N   UNK N   1      28.165  19.574   6.464  0.00  0.00    -0.330 N 
ATOM      9  HN  UNK N   1      28.925  20.118   6.872  1.00  0.00     0.168 HD
HETATM   10  F   UNK N   1      27.366  16.157   5.610  0.00  0.00    -0.198 F 
ENDROOT
BRANCH   5  11
HETATM   11  N   UNK N   1      25.036  17.431   4.714  0.00  0.00    -0.280 N 
HETATM   12  H   UNK N   1      25.113  16.465   4.546  0.00  0.00     0.188 HD
BRANCH  11  13
HETATM   13  N   UNK N   1      23.910  18.130   4.351  0.00  0.00    -0.268 N 
HETATM   14  C   UNK N   1      22.708  18.069   4.953  0.00  0.00     0.241 C 
HETATM   15  O   UNK N   1      22.552  17.446   5.993  0.00  0.00    -0.271 OA
HETATM   16  H   UNK N   1      23.991  18.733   3.575  0.00  0.00     0.190 HD
BRANCH  14  17
HETATM   17  C   UNK N   1      21.560  18.714   4.219  0.00  0.00     0.100 C 
BRANCH  17  18
HETATM   18  C   UNK N   1      20.466  17.751   3.759  0.00  0.00     0.020 C 
BRANCH  18  19
HETATM   19  C   UNK N   1      21.017  16.747   2.746  0.00  0.00    -0.014 C 
HETATM   20  C   UNK N   1      20.167  16.686   1.503  0.00  0.00     0.005 C 
HETATM   21  C   UNK N   1      20.507  15.342   0.880  0.00  0.00     0.000 C 
HETATM   22  C   UNK N   1      21.081  14.482   1.996  0.00  0.00     0.000 C 
HETATM   23  C   UNK N   1      20.997  15.324   3.250  0.00  0.00     0.005 C 
ENDBRANCH  18  19
ENDBRANCH  17  18
BRANCH  17  24
HETATM   24  C   UNK N   1      22.170  19.461   3.027  0.00  0.00     0.172 C 
BRANCH  24  25
HETATM   25  N   UNK N   1      21.252  20.417   2.457  0.00  0.00    -0.235 N 
BRANCH  25  26
HETATM   26  C   UNK N   1      20.886  20.292   1.162  0.00  0.00     0.376 C 
HETATM   27  O   UNK N   1      21.508  20.863   0.280  0.00  0.00    -0.281 OA
ENDBRANCH  25  26
BRANCH  25  28
HETATM   28  O   UNK N   1      20.851  21.480   3.171  0.00  0.00    -0.285 OA
HETATM   29  H   UNK N   1      20.375  22.324   3.210  0.00  0.00     0.245 HD
ENDBRANCH  25  28
ENDBRANCH  24  25
ENDBRANCH  17  24
ENDBRANCH  14  17
ENDBRANCH  11  13
ENDBRANCH   5  11
BRANCH   7  30
HETATM   30  N   UNK N   1      29.566  17.588   6.625  0.00  0.00    -0.361 N 
HETATM   31  C   UNK N   1      29.741  16.965   7.928  0.00  0.00     0.154 C 
HETATM   32  C   UNK N   1      31.164  17.150   8.409  0.00  0.00     0.293 C 
HETATM   33  N   UNK N   1      32.031  16.540   7.419  0.00  0.00     0.100 N 
HETATM   34  C   UNK N   1      33.395  16.529   7.939  0.00  0.00     0.299 C 
HETATM   35  C   UNK N   1      31.962  17.334   6.180  0.00  0.00     0.264 C 
HETATM   36  C   UNK N   1      34.318  15.991   6.847  0.00  0.00     0.198 C 
HETATM   37  O   UNK N   1      34.272  16.854   5.735  0.00  0.00    -0.387 OA
HETATM   38  C   UNK N   1      32.976  16.765   5.186  0.00  0.00     0.205 C 
HETATM   39  C   UNK N   1      30.539  17.276   5.594  0.00  0.00     0.162 C 
ENDBRANCH   7  30
TORSDOF 10
ENDMDL
MODEL 5
REMARK VINA RESULT:      -7.3      7.086     12.808
REMARK  10 active torsions:
REMARK  status: ('A' for Active; 'I' for Inactive)
REMARK    1  A    between atoms: C_5  and  N_21 
REMARK    2  A    between atoms: C_7  and  N_10 
REMARK    3  A    between atoms: N_21  and  N_22 
REMARK       I    between atoms: N_22  and  C_23 
REMARK    4  A    between atoms: C_25  and  C_23 
REMARK    5  A    between atoms: C_25  and  C_26 
REMARK    6  A    between atoms: C_25  and  C_32 
REMARK    7  A    between atoms: C_26  and  C_27 
REMARK    8  A    between atoms: C_32  and  N_33 
REMARK    9  A    between atoms: N_33  and  C_34 
REMARK   10  A    between atoms: N_33  and  O_36 
ROOT
HETATM    1  C   UNK N   1      38.228  13.459   8.931  0.00  0.00     0.089 C 
HETATM    2  C   UNK N   1      37.450  14.071  10.039  0.00  0.00     0.080 A 
HETATM    3  N   UNK N   1      36.825  15.268   9.847  0.00  0.00    -0.329 N 
ATOM      4  HN  UNK N   1      36.901  15.737   8.944  1.00  0.00     0.168 HD
HETATM    5  C   UNK N   1      36.103  15.841  10.845  0.00  0.00     0.164 A 
HETATM    6  C   UNK N   1      36.012  15.189  12.086  0.00  0.00     0.205 A 
HETATM    7  C   UNK N   1      36.627  13.942  12.266  0.00  0.00     0.148 A 
HETATM    8  N   UNK N   1      37.341  13.415  11.231  0.00  0.00    -0.330 N 
ATOM      9  HN  UNK N   1      37.802  12.514  11.351  1.00  0.00     0.168 HD
HETATM   10  F   UNK N   1      35.334  15.760  13.107  0.00  0.00    -0.198 F 
ENDROOT
BRANCH   5  11
HETATM   11  N   UNK N   1      35.415  17.073  10.632  0.00  0.00    -0.280 N 
HETATM   12  H   UNK N   1      35.584  17.857  11.203  0.00  0.00     0.188 HD
BRANCH  11  13
HETATM   13  N   UNK N   1      34.509  17.124   9.601  0.00  0.00    -0.268 N 
HETATM   14  C   UNK N   1      34.434  18.078   8.654  0.00  0.00     0.241 C 
HETATM   15  O   UNK N   1      35.284  18.952   8.568  0.00  0.00    -0.271 OA
HETATM   16  H   UNK N   1      33.851  16.392   9.550  0.00  0.00     0.190 HD
BRANCH  14  17
HETATM   17  C   UNK N   1      33.198  18.067   7.792  0.00  0.00     0.100 C 
BRANCH  17  18
HETATM   18  C   UNK N   1      32.050  17.207   8.320  0.00  0.00     0.020 C 
BRANCH  18  19
HETATM   19  C   UNK N   1      30.707  17.911   8.119  0.00  0.00    -0.014 C 
HETATM   20  C   UNK N   1      30.025  18.198   9.431  0.00  0.00     0.005 C 
HETATM   21  C   UNK N   1      28.562  18.381   9.064  0.00  0.00     0.000 C 
HETATM   22  C   UNK N   1      28.363  17.688   7.724  0.00  0.00     0.000 C 
HETATM   23  C   UNK N   1      29.697  17.064   7.381  0.00  0.00     0.005 C 
ENDBRANCH  18  19
ENDBRANCH  17  18
BRANCH  17  24
HETATM   24  C   UNK N   1      33.640  17.599   6.401  0.00  0.00     0.172 C 
BRANCH  24  25
HETATM   25  N   UNK N   1      33.690  16.160   6.301  0.00  0.00    -0.235 N 
BRANCH  25  26
HETATM   26  C   UNK N   1      34.849  15.518   6.566  0.00  0.00     0.376 C 
HETATM   27  O   UNK N   1      34.949  14.789   7.540  0.00  0.00    -0.281 OA
ENDBRANCH  25  26
BRANCH  25  28
HETATM   28  O   UNK N   1      32.628  15.476   5.847  0.00  0.00    -0.285 OA
HETATM   29  H   UNK N   1      31.676  15.297   5.883  0.00  0.00     0.245 HD
ENDBRANCH  25  28
ENDBRANCH  24  25
ENDBRANCH  17  24
ENDBRANCH  14  17
ENDBRANCH  11  13
ENDBRANCH   5  11
BRANCH   7  30
HETATM   30  N   UNK N   1      36.464  13.212  13.494  0.00  0.00    -0.361 N 
HETATM   31  C   UNK N   1      36.624  11.766  13.507  0.00  0.00     0.154 C 
HETATM   32  C   UNK N   1      35.647  11.141  14.480  0.00  0.00     0.293 C 
HETATM   33  N   UNK N   1      35.925  11.708  15.787  0.00  0.00     0.100 N 
HETATM   34  C   UNK N   1      35.134  10.991  16.782  0.00  0.00     0.299 C 
HETATM   35  C   UNK N   1      35.555  13.134  15.768  0.00  0.00     0.264 C 
HETATM   36  C   UNK N   1      35.344  11.667  18.135  0.00  0.00     0.198 C 
HETATM   37  O   UNK N   1      34.877  12.994  18.067  0.00  0.00    -0.387 OA
HETATM   38  C   UNK N   1      35.723  13.693  17.182  0.00  0.00     0.205 C 
HETATM   39  C   UNK N   1      36.447  13.899  14.773  0.00  0.00     0.162 C 
ENDBRANCH   7  30
TORSDOF 10
ENDMDL
MODEL 6
REMARK VINA RESULT:      -7.2      2.120     10.084
REMARK  10 active torsions:
REMARK  status: ('A' for Active; 'I' for Inactive)
REMARK    1  A    between atoms: C_5  and  N_21 
REMARK    2  A    between atoms: C_7  and  N_10 
REMARK    3  A    between atoms: N_21  and  N_22 
REMARK       I    between atoms: N_22  and  C_23 
REMARK    4  A    between atoms: C_25  and  C_23 
REMARK    5  A    between atoms: C_25  and  C_26 
REMARK    6  A    between atoms: C_25  and  C_32 
REMARK    7  A    between atoms: C_26  and  C_27 
REMARK    8  A    between atoms: C_32  and  N_33 
REMARK    9  A    between atoms: N_33  and  C_34 
REMARK   10  A    between atoms: N_33  and  O_36 
ROOT
HETATM    1  C   UNK N   1      26.882  15.228   2.551  0.00  0.00     0.089 C 
HETATM    2  C   UNK N   1      27.120  16.228   3.625  0.00  0.00     0.080 A 
HETATM    3  N   UNK N   1      26.148  17.135   3.933  0.00  0.00    -0.329 N 
ATOM      4  HN  UNK N   1      25.266  17.122   3.420  1.00  0.00     0.168 HD
HETATM    5  C   UNK N   1      26.343  18.051   4.916  0.00  0.00     0.164 A 
HETATM    6  C   UNK N   1      27.565  18.063   5.609  0.00  0.00     0.205 A 
HETATM    7  C   UNK N   1      28.545  17.107   5.312  0.00  0.00     0.148 A 
HETATM    8  N   UNK N   1      28.297  16.211   4.315  0.00  0.00    -0.330 N 
ATOM      9  HN  UNK N   1      29.006  15.517   4.080  1.00  0.00     0.168 HD
HETATM   10  F   UNK N   1      27.797  18.994   6.562  0.00  0.00    -0.198 F 
ENDROOT
BRANCH   5  11
HETATM   11  N   UNK N   1      25.312  18.974   5.267  0.00  0.00    -0.280 N 
HETATM   12  H   UNK N   1      25.515  19.807   5.750  0.00  0.00     0.188 HD
BRANCH  11  13
HETATM   13  N   UNK N   1      24.025  18.654   4.906  0.00  0.00    -0.268 N 
HETATM   14  C   UNK N   1      23.290  19.268   3.960  0.00  0.00     0.241 C 
HETATM   15  O   UNK N   1      23.777  20.122   3.234  0.00  0.00    -0.271 OA
HETATM   16  H   UNK N   1      23.601  17.905   5.384  0.00  0.00     0.190 HD
BRANCH  14  17
HETATM   17  C   UNK N   1      21.823  18.922   3.927  0.00  0.00     0.100 C 
BRANCH  17  18
HETATM   18  C   UNK N   1      21.481  17.509   4.398  0.00  0.00     0.020 C 
BRANCH  18  19
HETATM   19  C   UNK N   1      21.186  16.596   3.206  0.00  0.00    -0.014 C 
HETATM   20  C   UNK N   1      19.939  15.780   3.424  0.00  0.00     0.005 C 
HETATM   21  C   UNK N   1      20.083  14.609   2.466  0.00  0.00     0.000 C 
HETATM   22  C   UNK N   1      21.566  14.490   2.149  0.00  0.00     0.000 C 
HETATM   23  C   UNK N   1      22.252  15.550   2.983  0.00  0.00     0.005 C 
ENDBRANCH  18  19
ENDBRANCH  17  18
BRANCH  17  24
HETATM   24  C   UNK N   1      21.354  19.148   2.484  0.00  0.00     0.172 C 
BRANCH  24  25
HETATM   25  N   UNK N   1      20.820  20.474   2.287  0.00  0.00    -0.235 N 
BRANCH  25  26
HETATM   26  C   UNK N   1      20.556  20.901   1.033  0.00  0.00     0.376 C 
HETATM   27  O   UNK N   1      21.437  20.937   0.188  0.00  0.00    -0.281 OA
ENDBRANCH  25  26
BRANCH  25  28
HETATM   28  O   UNK N   1      20.688  21.312   3.327  0.00  0.00    -0.285 OA
HETATM   29  H   UNK N   1      21.089  21.949   3.938  0.00  0.00     0.245 HD
ENDBRANCH  25  28
ENDBRANCH  24  25
ENDBRANCH  17  24
ENDBRANCH  14  17
ENDBRANCH  11  13
ENDBRANCH   5  11
BRANCH   7  30
HETATM   30  N   UNK N   1      29.761  17.038   6.076  0.00  0.00    -0.361 N 
HETATM   31  C   UNK N   1      29.706  16.820   7.514  0.00  0.00     0.154 C 
HETATM   32  C   UNK N   1      30.805  17.600   8.204  0.00  0.00     0.293 C 
HETATM   33  N   UNK N   1      32.065  17.136   7.654  0.00  0.00     0.100 N 
HETATM   34  C   UNK N   1      33.154  17.725   8.428  0.00  0.00     0.299 C 
HETATM   35  C   UNK N   1      32.149  17.561   6.247  0.00  0.00     0.264 C 
HETATM   36  C   UNK N   1      34.475  17.324   7.774  0.00  0.00     0.198 C 
HETATM   37  O   UNK N   1      34.523  17.849   6.468  0.00  0.00    -0.387 OA
HETATM   38  C   UNK N   1      33.533  17.187   5.712  0.00  0.00     0.205 C 
HETATM   39  C   UNK N   1      31.045  16.875   5.420  0.00  0.00     0.162 C 
ENDBRANCH   7  30
TORSDOF 10
ENDMDL
MODEL 7
REMARK VINA RESULT:      -7.0      4.654      6.804
REMARK  10 active torsions:
REMARK  status: ('A' for Active; 'I' for Inactive)
REMARK    1  A    between atoms: C_5  and  N_21 
REMARK    2  A    between atoms: C_7  and  N_10 
REMARK    3  A    between atoms: N_21  and  N_22 
REMARK       I    between atoms: N_22  and  C_23 
REMARK    4  A    between atoms: C_25  and  C_23 
REMARK    5  A    between atoms: C_25  and  C_26 
REMARK    6  A    between atoms: C_25  and  C_32 
REMARK    7  A    between atoms: C_26  and  C_27 
REMARK    8  A    between atoms: C_32  and  N_33 
REMARK    9  A    between atoms: N_33  and  C_34 
REMARK   10  A    between atoms: N_33  and  O_36 
ROOT
HETATM    1  C   UNK N   1      32.175  13.646   5.490  0.00  0.00     0.089 C 
HETATM    2  C   UNK N   1      31.685  14.821   6.257  0.00  0.00     0.080 A 
HETATM    3  N   UNK N   1      32.448  15.339   7.264  0.00  0.00    -0.329 N 
ATOM      4  HN  UNK N   1      33.347  14.911   7.485  1.00  0.00     0.168 HD
HETATM    5  C   UNK N   1      32.022  16.416   7.972  0.00  0.00     0.164 A 
HETATM    6  C   UNK N   1      30.777  16.991   7.663  0.00  0.00     0.205 A 
HETATM    7  C   UNK N   1      30.015  16.477   6.605  0.00  0.00     0.148 A 
HETATM    8  N   UNK N   1      30.490  15.393   5.929  0.00  0.00    -0.330 N 
ATOM      9  HN  UNK N   1      29.941  15.002   5.164  1.00  0.00     0.168 HD
HETATM   10  F   UNK N   1      30.314  18.037   8.383  0.00  0.00    -0.198 F 
ENDROOT
BRANCH   5  11
HETATM   11  N   UNK N   1      32.837  16.983   8.998  0.00  0.00    -0.280 N 
HETATM   12  H   UNK N   1      32.874  17.956   9.141  0.00  0.00     0.188 HD
BRANCH  11  13
HETATM   13  N   UNK N   1      33.567  16.118   9.776  0.00  0.00    -0.268 N 
HETATM   14  C   UNK N   1      34.807  16.334  10.254  0.00  0.00     0.241 C 
HETATM   15  O   UNK N   1      35.357  17.417  10.121  0.00  0.00    -0.271 OA
HETATM   16  H   UNK N   1      33.143  15.259  10.007  0.00  0.00     0.190 HD
BRANCH  14  17
HETATM   17  C   UNK N   1      35.508  15.141  10.852  0.00  0.00     0.100 C 
BRANCH  17  18
HETATM   18  C   UNK N   1      36.101  15.370  12.242  0.00  0.00     0.020 C 
BRANCH  18  19
HETATM   19  C   UNK N   1      36.302  14.041  12.972  0.00  0.00    -0.014 C 
HETATM   20  C   UNK N   1      35.074  13.170  12.894  0.00  0.00     0.005 C 
HETATM   21  C   UNK N   1      35.228  12.199  14.053  0.00  0.00     0.000 C 
HETATM   22  C   UNK N   1      36.191  12.848  15.036  0.00  0.00     0.000 C 
HETATM   23  C   UNK N   1      36.518  14.206  14.457  0.00  0.00     0.005 C 
ENDBRANCH  18  19
ENDBRANCH  17  18
BRANCH  17  24
HETATM   24  C   UNK N   1      36.597  14.728   9.853  0.00  0.00     0.172 C 
BRANCH  24  25
HETATM   25  N   UNK N   1      36.097  13.822   8.847  0.00  0.00    -0.235 N 
BRANCH  25  26
HETATM   26  C   UNK N   1      36.101  14.205   7.551  0.00  0.00     0.376 C 
HETATM   27  O   UNK N   1      35.291  15.020   7.140  0.00  0.00    -0.281 OA
ENDBRANCH  25  26
BRANCH  25  28
HETATM   28  O   UNK N   1      35.536  12.657   9.205  0.00  0.00    -0.285 OA
HETATM   29  H   UNK N   1      35.463  11.930   9.842  0.00  0.00     0.245 HD
ENDBRANCH  25  28
ENDBRANCH  24  25
ENDBRANCH  17  24
ENDBRANCH  14  17
ENDBRANCH  11  13
ENDBRANCH   5  11
BRANCH   7  30
HETATM   30  N   UNK N   1      28.787  17.111   6.208  0.00  0.00    -0.361 N 
HETATM   31  C   UNK N   1      27.516  16.618   6.716  0.00  0.00     0.154 C 
HETATM   32  C   UNK N   1      26.447  16.734   5.651  0.00  0.00     0.293 C 
HETATM   33  N   UNK N   1      26.355  18.136   5.290  0.00  0.00     0.100 N 
HETATM   34  C   UNK N   1      25.206  18.315   4.408  0.00  0.00     0.299 C 
HETATM   35  C   UNK N   1      27.596  18.526   4.600  0.00  0.00     0.264 C 
HETATM   36  C   UNK N   1      25.184  19.769   3.942  0.00  0.00     0.198 C 
HETATM   37  O   UNK N   1      26.355  20.038   3.208  0.00  0.00    -0.387 OA
HETATM   38  C   UNK N   1      27.441  19.965   4.105  0.00  0.00     0.205 C 
HETATM   39  C   UNK N   1      28.794  18.410   5.561  0.00  0.00     0.162 C 
ENDBRANCH   7  30
TORSDOF 10
ENDMDL
MODEL 8
REMARK VINA RESULT:      -7.0      7.602     13.455
REMARK  10 active torsions:
REMARK  status: ('A' for Active; 'I' for Inactive)
REMARK    1  A    between atoms: C_5  and  N_21 
REMARK    2  A    between atoms: C_7  and  N_10 
REMARK    3  A    between atoms: N_21  and  N_22 
REMARK       I    between atoms: N_22  and  C_23 
REMARK    4  A    between atoms: C_25  and  C_23 
REMARK    5  A    between atoms: C_25  and  C_26 
REMARK    6  A    between atoms: C_25  and  C_32 
REMARK    7  A    between atoms: C_26  and  C_27 
REMARK    8  A    between atoms: C_32  and  N_33 
REMARK    9  A    between atoms: N_33  and  C_34 
REMARK   10  A    between atoms: N_33  and  O_36 
ROOT
HETATM    1  C   UNK N   1      38.892  13.884   9.288  0.00  0.00     0.089 C 
HETATM    2  C   UNK N   1      37.852  14.012  10.342  0.00  0.00     0.080 A 
HETATM    3  N   UNK N   1      36.948  15.032  10.280  0.00  0.00    -0.329 N 
ATOM      4  HN  UNK N   1      36.995  15.702   9.513  1.00  0.00     0.168 HD
HETATM    5  C   UNK N   1      35.985  15.162  11.230  0.00  0.00     0.164 A 
HETATM    6  C   UNK N   1      35.936  14.238  12.287  0.00  0.00     0.205 A 
HETATM    7  C   UNK N   1      36.846  13.173  12.325  0.00  0.00     0.148 A 
HETATM    8  N   UNK N   1      37.792  13.091  11.347  0.00  0.00    -0.330 N 
ATOM      9  HN  UNK N   1      38.467  12.327  11.368  1.00  0.00     0.168 HD
HETATM   10  F   UNK N   1      35.013  14.373  13.266  0.00  0.00    -0.198 F 
ENDROOT
BRANCH   5  11
HETATM   11  N   UNK N   1      35.014  16.204  11.144  0.00  0.00    -0.280 N 
HETATM   12  H   UNK N   1      34.859  16.820  11.896  0.00  0.00     0.188 HD
BRANCH  11  13
HETATM   13  N   UNK N   1      34.304  16.314   9.973  0.00  0.00    -0.268 N 
HETATM   14  C   UNK N   1      34.396  17.316   9.079  0.00  0.00     0.241 C 
HETATM   15  O   UNK N   1      35.247  18.187   9.189  0.00  0.00    -0.271 OA
HETATM   16  H   UNK N   1      33.666  15.591   9.769  0.00  0.00     0.190 HD
BRANCH  14  17
HETATM   17  C   UNK N   1      33.332  17.359   8.013  0.00  0.00     0.100 C 
BRANCH  17  18
HETATM   18  C   UNK N   1      33.843  17.644   6.601  0.00  0.00     0.020 C 
BRANCH  18  19
HETATM   19  C   UNK N   1      33.480  16.501   5.651  0.00  0.00    -0.014 C 
HETATM   20  C   UNK N   1      33.018  17.014   4.312  0.00  0.00     0.005 C 
HETATM   21  C   UNK N   1      32.224  15.860   3.720  0.00  0.00     0.000 C 
HETATM   22  C   UNK N   1      31.806  14.980   4.889  0.00  0.00     0.000 C 
HETATM   23  C   UNK N   1      32.307  15.680   6.132  0.00  0.00     0.005 C 
ENDBRANCH  18  19
ENDBRANCH  17  18
BRANCH  17  24
HETATM   24  C   UNK N   1      32.316  18.420   8.453  0.00  0.00     0.172 C 
BRANCH  24  25
HETATM   25  N   UNK N   1      31.101  17.832   8.962  0.00  0.00    -0.235 N 
BRANCH  25  26
HETATM   26  C   UNK N   1      30.010  18.611   9.132  0.00  0.00     0.376 C 
HETATM   27  O   UNK N   1      29.524  18.771  10.241  0.00  0.00    -0.281 OA
ENDBRANCH  25  26
BRANCH  25  28
HETATM   28  O   UNK N   1      31.084  16.552   9.364  0.00  0.00    -0.285 OA
HETATM   29  H   UNK N   1      30.595  15.805   9.742  0.00  0.00     0.245 HD
ENDBRANCH  25  28
ENDBRANCH  24  25
ENDBRANCH  17  24
ENDBRANCH  14  17
ENDBRANCH  11  13
ENDBRANCH   5  11
BRANCH   7  30
HETATM   30  N   UNK N   1      36.750  12.160  13.342  0.00  0.00    -0.361 N 
HETATM   31  C   UNK N   1      37.147  10.792  13.045  0.00  0.00     0.154 C 
HETATM   32  C   UNK N   1      36.245   9.817  13.769  0.00  0.00     0.293 C 
HETATM   33  N   UNK N   1      36.363  10.099  15.188  0.00  0.00     0.100 N 
HETATM   34  C   UNK N   1      35.657   9.058  15.929  0.00  0.00     0.299 C 
HETATM   35  C   UNK N   1      35.762  11.416  15.457  0.00  0.00     0.264 C 
HETATM   36  C   UNK N   1      35.689   9.423  17.411  0.00  0.00     0.198 C 
HETATM   37  O   UNK N   1      35.011  10.643  17.603  0.00  0.00    -0.387 OA
HETATM   38  C   UNK N   1      35.769  11.649  16.969  0.00  0.00     0.205 C 
HETATM   39  C   UNK N   1      36.559  12.518  14.735  0.00  0.00     0.162 C 
ENDBRANCH   7  30
TORSDOF 10
ENDMDL
MODEL 9
REMARK VINA RESULT:      -6.8      3.655     10.070
REMARK  10 active torsions:
REMARK  status: ('A' for Active; 'I' for Inactive)
REMARK    1  A    between atoms: C_5  and  N_21 
REMARK    2  A    between atoms: C_7  and  N_10 
REMARK    3  A    between atoms: N_21  and  N_22 
REMARK       I    between atoms: N_22  and  C_23 
REMARK    4  A    between atoms: C_25  and  C_23 
REMARK    5  A    between atoms: C_25  and  C_26 
REMARK    6  A    between atoms: C_25  and  C_32 
REMARK    7  A    between atoms: C_26  and  C_27 
REMARK    8  A    between atoms: C_32  and  N_33 
REMARK    9  A    between atoms: N_33  and  C_34 
REMARK   10  A    between atoms: N_33  and  O_36 
ROOT
HETATM    1  C   UNK N   1      32.805  17.208   4.034  0.00  0.00     0.089 C 
HETATM    2  C   UNK N   1      32.352  16.926   5.421  0.00  0.00     0.080 A 
HETATM    3  N   UNK N   1      31.084  17.258   5.800  0.00  0.00    -0.329 N 
ATOM      4  HN  UNK N   1      30.457  17.701   5.129  1.00  0.00     0.168 HD
HETATM    5  C   UNK N   1      30.648  17.002   7.061  0.00  0.00     0.164 A 
HETATM    6  C   UNK N   1      31.524  16.398   7.979  0.00  0.00     0.205 A 
HETATM    7  C   UNK N   1      32.813  16.028   7.574  0.00  0.00     0.148 A 
HETATM    8  N   UNK N   1      33.198  16.309   6.297  0.00  0.00    -0.330 N 
ATOM      9  HN  UNK N   1      34.137  16.056   5.991  1.00  0.00     0.168 HD
HETATM   10  F   UNK N   1      31.126  16.173   9.252  0.00  0.00    -0.198 F 
ENDROOT
BRANCH   5  11
HETATM   11  N   UNK N   1      29.309  17.312   7.446  0.00  0.00    -0.280 N 
HETATM   12  H   UNK N   1      29.027  17.272   8.388  0.00  0.00     0.188 HD
BRANCH  11  13
HETATM   13  N   UNK N   1      28.430  17.666   6.452  0.00  0.00    -0.268 N 
HETATM   14  C   UNK N   1      27.439  16.900   5.957  0.00  0.00     0.241 C 
HETATM   15  O   UNK N   1      27.160  15.822   6.462  0.00  0.00    -0.271 OA
HETATM   16  H   UNK N   1      28.534  18.565   6.064  0.00  0.00     0.190 HD
BRANCH  14  17
HETATM   17  C   UNK N   1      26.782  17.394   4.694  0.00  0.00     0.100 C 
BRANCH  17  18
HETATM   18  C   UNK N   1      25.266  17.569   4.780  0.00  0.00     0.020 C 
BRANCH  18  19
HETATM   19  C   UNK N   1      24.757  18.463   3.648  0.00  0.00    -0.014 C 
HETATM   20  C   UNK N   1      25.648  19.660   3.441  0.00  0.00     0.005 C 
HETATM   21  C   UNK N   1      24.767  20.663   2.713  0.00  0.00     0.000 C 
HETATM   22  C   UNK N   1      23.328  20.261   2.999  0.00  0.00     0.000 C 
HETATM   23  C   UNK N   1      23.410  19.079   3.939  0.00  0.00     0.005 C 
ENDBRANCH  18  19
ENDBRANCH  17  18
BRANCH  17  24
HETATM   24  C   UNK N   1      27.157  16.398   3.589  0.00  0.00     0.172 C 
BRANCH  24  25
HETATM   25  N   UNK N   1      28.577  16.377   3.335  0.00  0.00    -0.235 N 
BRANCH  25  26
HETATM   26  C   UNK N   1      29.215  15.190   3.242  0.00  0.00     0.376 C 
HETATM   27  O   UNK N   1      29.925  14.790   4.152  0.00  0.00    -0.281 OA
ENDBRANCH  25  26
BRANCH  25  28
HETATM   28  O   UNK N   1      29.276  17.522   3.299  0.00  0.00    -0.285 OA
HETATM   29  H   UNK N   1      30.007  18.062   3.637  0.00  0.00     0.245 HD
ENDBRANCH  25  28
ENDBRANCH  24  25
ENDBRANCH  17  24
ENDBRANCH  14  17
ENDBRANCH  11  13
ENDBRANCH   5  11
BRANCH   7  30
HETATM   30  N   UNK N   1      33.690  15.319   8.467  0.00  0.00    -0.361 N 
HETATM   31  C   UNK N   1      33.998  13.919   8.224  0.00  0.00     0.154 C 
HETATM   32  C   UNK N   1      34.126  13.176   9.536  0.00  0.00     0.293 C 
HETATM   33  N   UNK N   1      35.186  13.820  10.289  0.00  0.00     0.100 N 
HETATM   34  C   UNK N   1      35.468  13.017  11.475  0.00  0.00     0.299 C 
HETATM   35  C   UNK N   1      34.734  15.167  10.678  0.00  0.00     0.264 C 
HETATM   36  C   UNK N   1      36.502  13.759  12.319  0.00  0.00     0.198 C 
HETATM   37  O   UNK N   1      35.962  14.992  12.734  0.00  0.00    -0.387 OA
HETATM   38  C   UNK N   1      35.800  15.790  11.583  0.00  0.00     0.205 C 
HETATM   39  C   UNK N   1      34.514  16.034   9.424  0.00  0.00     0.162 C 
ENDBRANCH   7  30
TORSDOF 10
ENDMDL
