MODEL 1
REMARK VINA RESULT:      -3.9      0.000      0.000
REMARK  0 active torsions:
REMARK  status: ('A' for Active; 'I' for Inactive)
ROOT
HETATM    1  C   UNK N   1      21.414  20.849   2.406  0.00  0.00     0.187 A 
HETATM    2  C   UNK N   1      20.945  20.282   1.105  0.00  0.00     0.234 A 
HETATM    3  O   UNK N   1      21.112  20.864   0.048  0.00  0.00    -0.272 OA
HETATM    4  N   UNK N   1      20.328  19.096   1.159  0.00  0.00    -0.288 N 
HETATM    5  C   UNK N   1      20.235  18.609   2.400  0.00  0.00     0.286 A 
HETATM    6  O   UNK N   1      19.701  17.537   2.627  0.00  0.00    -0.260 OA
HETATM    7  S   UNK N   1      20.939  19.624   3.695  0.00  0.00    -0.060 SA
HETATM    8  H   UNK N   1      19.978  18.630   0.366  0.00  0.00     0.172 HD
ENDROOT
TORSDOF 0
ENDMDL
MODEL 2
REMARK VINA RESULT:      -3.7      1.055      2.843
REMARK  0 active torsions:
REMARK  status: ('A' for Active; 'I' for Inactive)
ROOT
HETATM    1  C   UNK N   1      21.030  19.434   3.672  0.00  0.00     0.187 A 
HETATM    2  C   UNK N   1      19.964  18.898   2.773  0.00  0.00     0.234 A 
HETATM    3  O   UNK N   1      19.121  18.111   3.166  0.00  0.00    -0.272 OA
HETATM    4  N   UNK N   1      19.979  19.328   1.506  0.00  0.00    -0.288 N 
HETATM    5  C   UNK N   1      20.973  20.186   1.256  0.00  0.00     0.286 A 
HETATM    6  O   UNK N   1      21.132  20.675   0.151  0.00  0.00    -0.260 OA
HETATM    7  S   UNK N   1      22.045  20.567   2.637  0.00  0.00    -0.060 SA
HETATM    8  H   UNK N   1      19.326  19.043   0.827  0.00  0.00     0.172 HD
ENDROOT
TORSDOF 0
ENDMDL
MODEL 3
REMARK VINA RESULT:      -3.6     11.630     12.230
REMARK  0 active torsions:
REMARK  status: ('A' for Active; 'I' for Inactive)
ROOT
HETATM    1  C   UNK N   1      21.454  12.892  10.068  0.00  0.00     0.187 A 
HETATM    2  C   UNK N   1      21.262  12.200  11.378  0.00  0.00     0.234 A 
HETATM    3  O   UNK N   1      20.155  11.980  11.838  0.00  0.00    -0.272 OA
HETATM    4  N   UNK N   1      22.373  11.830  12.026  0.00  0.00    -0.288 N 
HETATM    5  C   UNK N   1      23.493  12.153  11.372  0.00  0.00     0.286 A 
HETATM    6  O   UNK N   1      24.594  11.889  11.823  0.00  0.00    -0.260 OA
HETATM    7  S   UNK N   1      23.273  12.990   9.806  0.00  0.00    -0.060 SA
HETATM    8  H   UNK N   1      22.367  11.369  12.895  0.00  0.00     0.172 HD
ENDROOT
TORSDOF 0
ENDMDL
MODEL 4
REMARK VINA RESULT:      -3.5     15.085     15.281
REMARK  0 active torsions:
REMARK  status: ('A' for Active; 'I' for Inactive)
ROOT
HETATM    1  C   UNK N   1      33.969  17.635   7.074  0.00  0.00     0.187 A 
HETATM    2  C   UNK N   1      34.538  18.139   8.360  0.00  0.00     0.234 A 
HETATM    3  O   UNK N   1      35.096  19.220   8.442  0.00  0.00    -0.272 OA
HETATM    4  N   UNK N   1      34.405  17.341   9.425  0.00  0.00    -0.288 N 
HETATM    5  C   UNK N   1      33.768  16.199   9.148  0.00  0.00     0.286 A 
HETATM    6  O   UNK N   1      33.562  15.358  10.006  0.00  0.00    -0.260 OA
HETATM    7  S   UNK N   1      33.243  15.987   7.451  0.00  0.00    -0.060 SA
HETATM    8  H   UNK N   1      34.740  17.570  10.322  0.00  0.00     0.172 HD
ENDROOT
TORSDOF 0
ENDMDL
MODEL 5
REMARK VINA RESULT:      -3.5     14.975     15.393
REMARK  0 active torsions:
REMARK  status: ('A' for Active; 'I' for Inactive)
ROOT
HETATM    1  C   UNK N   1      33.144  16.144   7.620  0.00  0.00     0.187 A 
HETATM    2  C   UNK N   1      33.620  16.250   9.032  0.00  0.00     0.234 A 
HETATM    3  O   UNK N   1      33.383  15.390   9.862  0.00  0.00    -0.272 OA
HETATM    4  N   UNK N   1      34.325  17.344   9.343  0.00  0.00    -0.288 N 
HETATM    5  C   UNK N   1      34.486  18.176   8.309  0.00  0.00     0.286 A 
HETATM    6  O   UNK N   1      35.104  19.220   8.421  0.00  0.00    -0.260 OA
HETATM    7  S   UNK N   1      33.742  17.660   6.766  0.00  0.00    -0.060 SA
HETATM    8  H   UNK N   1      34.688  17.519  10.241  0.00  0.00     0.172 HD
ENDROOT
TORSDOF 0
ENDMDL
MODEL 6
REMARK VINA RESULT:      -3.5      9.982     10.678
REMARK  0 active torsions:
REMARK  status: ('A' for Active; 'I' for Inactive)
ROOT
HETATM    1  C   UNK N   1      28.540  24.717  -3.975  0.00  0.00     0.187 A 
HETATM    2  C   UNK N   1      27.822  23.901  -2.950  0.00  0.00     0.234 A 
HETATM    3  O   UNK N   1      26.605  23.868  -2.884  0.00  0.00    -0.272 OA
HETATM    4  N   UNK N   1      28.585  23.202  -2.101  0.00  0.00    -0.288 N 
HETATM    5  C   UNK N   1      29.894  23.359  -2.323  0.00  0.00     0.286 A 
HETATM    6  O   UNK N   1      30.729  22.793  -1.639  0.00  0.00    -0.260 OA
HETATM    7  S   UNK N   1      30.335  24.445  -3.675  0.00  0.00    -0.060 SA
HETATM    8  H   UNK N   1      28.221  22.631  -1.387  0.00  0.00     0.172 HD
ENDROOT
TORSDOF 0
ENDMDL
MODEL 7
REMARK VINA RESULT:      -3.5     11.512     12.497
REMARK  0 active torsions:
REMARK  status: ('A' for Active; 'I' for Inactive)
ROOT
HETATM    1  C   UNK N   1      24.335  11.986  11.287  0.00  0.00     0.187 A 
HETATM    2  C   UNK N   1      23.278  11.991  12.343  0.00  0.00     0.234 A 
HETATM    3  O   UNK N   1      23.546  11.877  13.527  0.00  0.00    -0.272 OA
HETATM    4  N   UNK N   1      22.015  12.129  11.924  0.00  0.00    -0.288 N 
HETATM    5  C   UNK N   1      21.914  12.241  10.596  0.00  0.00     0.286 A 
HETATM    6  O   UNK N   1      20.833  12.373  10.047  0.00  0.00    -0.260 OA
HETATM    7  S   UNK N   1      23.452  12.184   9.685  0.00  0.00    -0.060 SA
HETATM    8  H   UNK N   1      21.240  12.145  12.530  0.00  0.00     0.172 HD
ENDROOT
TORSDOF 0
ENDMDL
MODEL 8
REMARK VINA RESULT:      -3.5     15.617     15.967
REMARK  0 active torsions:
REMARK  status: ('A' for Active; 'I' for Inactive)
ROOT
HETATM    1  C   UNK N   1      34.328  15.548   9.387  0.00  0.00     0.187 A 
HETATM    2  C   UNK N   1      34.837  16.889   9.805  0.00  0.00     0.234 A 
HETATM    3  O   UNK N   1      35.231  17.108  10.937  0.00  0.00    -0.272 OA
HETATM    4  N   UNK N   1      34.838  17.845   8.869  0.00  0.00    -0.288 N 
HETATM    5  C   UNK N   1      34.372  17.424   7.689  0.00  0.00     0.286 A 
HETATM    6  O   UNK N   1      34.305  18.169   6.727  0.00  0.00    -0.260 OA
HETATM    7  S   UNK N   1      33.857  15.712   7.616  0.00  0.00    -0.060 SA
HETATM    8  H   UNK N   1      35.151  18.764   9.031  0.00  0.00     0.172 HD
ENDROOT
TORSDOF 0
ENDMDL
MODEL 9
REMARK VINA RESULT:      -3.4     22.057     22.569
REMARK  0 active torsions:
REMARK  status: ('A' for Active; 'I' for Inactive)
ROOT
HETATM    1  C   UNK N   1      42.009  21.738   2.113  0.00  0.00     0.187 A 
HETATM    2  C   UNK N   1      42.363  23.175   2.312  0.00  0.00     0.234 A 
HETATM    3  O   UNK N   1      41.928  24.056   1.590  0.00  0.00    -0.272 OA
HETATM    4  N   UNK N   1      43.188  23.452   3.329  0.00  0.00    -0.288 N 
HETATM    5  C   UNK N   1      43.563  22.364   4.010  0.00  0.00     0.286 A 
HETATM    6  O   UNK N   1      44.313  22.438   4.968  0.00  0.00    -0.260 OA
HETATM    7  S   UNK N   1      42.897  20.808   3.429  0.00  0.00    -0.060 SA
HETATM    8  H   UNK N   1      43.488  24.362   3.554  0.00  0.00     0.172 HD
ENDROOT
TORSDOF 0
ENDMDL
