MODEL 1
REMARK VINA RESULT:      -6.6      0.000      0.000
REMARK  9 active torsions:
REMARK  status: ('A' for Active; 'I' for Inactive)
REMARK    1  A    between atoms: C_3  and  C_15 
REMARK    2  A    between atoms: C_5  and  O_7 
REMARK    3  A    between atoms: O_7  and  C_8 
REMARK    4  A    between atoms: C_8  and  C_9 
REMARK    5  A    between atoms: C_9  and  C_10 
REMARK    6  A    between atoms: C_15  and  N_16 
REMARK    7  A    between atoms: N_16  and  C_17 
REMARK    8  A    between atoms: C_17  and  C_18 
REMARK    9  A    between atoms: C_18  and  C_19 
ROOT
HETATM    1  C   UNK N   1      26.101  22.902  -7.120  0.00  0.00     0.152 C 
ENDROOT
BRANCH   1   2
HETATM    2  C   UNK N   1      26.801  23.429  -5.891  0.00  0.00    -0.038 A 
HETATM    3  C   UNK N   1      26.087  23.939  -4.795  0.00  0.00     0.009 A 
HETATM    4  C   UNK N   1      26.759  24.480  -3.702  0.00  0.00     0.003 A 
HETATM    5  C   UNK N   1      28.150  24.506  -3.685  0.00  0.00     0.037 A 
HETATM    6  C   UNK N   1      28.881  23.976  -4.752  0.00  0.00     0.069 A 
HETATM    7  C   UNK N   1      28.201  23.441  -5.862  0.00  0.00     0.045 A 
BRANCH   6   8
HETATM    8  O   UNK N   1      30.231  23.988  -4.675  0.00  0.00    -0.345 OA
BRANCH   8   9
HETATM    9  C   UNK N   1      31.038  22.880  -4.819  0.00  0.00     0.260 C 
BRANCH   9  10
HETATM   10  C   UNK N   1      31.177  22.120  -3.493  0.00  0.00     0.322 C 
HETATM   11  F   UNK N   1      30.118  21.242  -3.352  0.00  0.00    -0.198 F 
HETATM   12  F   UNK N   1      31.172  22.998  -2.420  0.00  0.00    -0.198 F 
BRANCH  10  13
HETATM   13  C   UNK N   1      32.489  21.347  -3.465  0.00  0.00     0.426 C 
HETATM   14  F   UNK N   1      32.958  21.246  -2.167  0.00  0.00    -0.208 F 
HETATM   15  F   UNK N   1      33.443  21.960  -4.258  0.00  0.00    -0.208 F 
ENDBRANCH  10  13
ENDBRANCH   9  10
ENDBRANCH   8   9
ENDBRANCH   6   8
ENDBRANCH   1   2
BRANCH   1  16
HETATM   16  N   UNK N   1      25.216  23.867  -7.785  0.00  0.00    -0.417 N 
HETATM   17  H   UNK N   1      24.218  23.956  -7.592  0.00  0.00     0.153 HD
BRANCH  16  18
HETATM   18  C   UNK N   1      25.941  24.686  -8.759  0.00  0.00     0.118 C 
BRANCH  18  19
HETATM   19  C   UNK N   1      25.756  26.174  -8.511  0.00  0.00     0.060 C 
BRANCH  19  20
HETATM   20  C   UNK N   1      26.789  26.657  -7.560  0.00  0.00    -0.029 A 
HETATM   21  C   UNK N   1      28.161  26.646  -7.769  0.00  0.00     0.096 A 
HETATM   22  N   UNK N   1      28.786  27.170  -6.684  0.00  0.00    -0.365 N 
HETATM   23  C   UNK N   1      27.814  27.499  -5.814  0.00  0.00     0.045 A 
HETATM   24  H   UNK N   1      29.757  27.286  -6.558  0.00  0.00     0.165 HD
HETATM   25  C   UNK N   1      26.583  27.197  -6.316  0.00  0.00    -0.002 A 
HETATM   26  C   UNK N   1      27.973  28.075  -4.558  0.00  0.00     0.072 A 
HETATM   27  C   UNK N   1      25.412  27.444  -5.602  0.00  0.00     0.017 A 
HETATM   28  C   UNK N   1      25.536  28.027  -4.327  0.00  0.00     0.043 A 
HETATM   29  C   UNK N   1      26.813  28.342  -3.807  0.00  0.00     0.118 A 
HETATM   30  F   UNK N   1      26.920  28.907  -2.581  0.00  0.00    -0.206 F 
ENDBRANCH  19  20
ENDBRANCH  18  19
ENDBRANCH  16  18
ENDBRANCH   1  16
TORSDOF 9
ENDMDL
MODEL 2
REMARK VINA RESULT:      -6.0     17.223     20.440
REMARK  9 active torsions:
REMARK  status: ('A' for Active; 'I' for Inactive)
REMARK    1  A    between atoms: C_3  and  C_15 
REMARK    2  A    between atoms: C_5  and  O_7 
REMARK    3  A    between atoms: O_7  and  C_8 
REMARK    4  A    between atoms: C_8  and  C_9 
REMARK    5  A    between atoms: C_9  and  C_10 
REMARK    6  A    between atoms: C_15  and  N_16 
REMARK    7  A    between atoms: N_16  and  C_17 
REMARK    8  A    between atoms: C_17  and  C_18 
REMARK    9  A    between atoms: C_18  and  C_19 
ROOT
HETATM    1  C   UNK N   1      35.934  16.306  10.978  0.00  0.00     0.152 C 
ENDROOT
BRANCH   1   2
HETATM    2  C   UNK N   1      35.763  15.021  11.751  0.00  0.00    -0.038 A 
HETATM    3  C   UNK N   1      35.229  13.867  11.158  0.00  0.00     0.009 A 
HETATM    4  C   UNK N   1      35.019  12.714  11.912  0.00  0.00     0.003 A 
HETATM    5  C   UNK N   1      35.354  12.698  13.262  0.00  0.00     0.037 A 
HETATM    6  C   UNK N   1      35.915  13.826  13.866  0.00  0.00     0.069 A 
HETATM    7  C   UNK N   1      36.114  14.994  13.107  0.00  0.00     0.045 A 
BRANCH   6   8
HETATM    8  O   UNK N   1      36.259  13.752  15.172  0.00  0.00    -0.345 OA
BRANCH   8   9
HETATM    9  C   UNK N   1      36.135  12.625  15.956  0.00  0.00     0.260 C 
BRANCH   9  10
HETATM   10  C   UNK N   1      35.031  12.800  17.007  0.00  0.00     0.322 C 
HETATM   11  F   UNK N   1      34.671  11.561  17.506  0.00  0.00    -0.198 F 
HETATM   12  F   UNK N   1      33.910  13.395  16.448  0.00  0.00    -0.198 F 
BRANCH  10  13
HETATM   13  C   UNK N   1      35.521  13.687  18.143  0.00  0.00     0.426 C 
HETATM   14  F   UNK N   1      35.358  13.043  19.358  0.00  0.00    -0.208 F 
HETATM   15  F   UNK N   1      34.843  14.892  18.161  0.00  0.00    -0.208 F 
ENDBRANCH  10  13
ENDBRANCH   9  10
ENDBRANCH   8   9
ENDBRANCH   6   8
ENDBRANCH   1   2
BRANCH   1  16
HETATM   16  N   UNK N   1      34.697  16.843  10.397  0.00  0.00    -0.417 N 
HETATM   17  H   UNK N   1      33.953  17.283  10.940  0.00  0.00     0.153 HD
BRANCH  16  18
HETATM   18  C   UNK N   1      34.661  16.669   8.943  0.00  0.00     0.118 C 
BRANCH  18  19
HETATM   19  C   UNK N   1      34.263  17.944   8.220  0.00  0.00     0.060 C 
BRANCH  19  20
HETATM   20  C   UNK N   1      33.240  17.639   7.188  0.00  0.00    -0.029 A 
HETATM   21  C   UNK N   1      33.478  17.447   5.834  0.00  0.00     0.096 A 
HETATM   22  N   UNK N   1      32.305  17.182   5.203  0.00  0.00    -0.365 N 
HETATM   23  C   UNK N   1      31.354  17.213   6.154  0.00  0.00     0.045 A 
HETATM   24  H   UNK N   1      32.175  17.003   4.243  0.00  0.00     0.165 HD
HETATM   25  C   UNK N   1      31.889  17.492   7.377  0.00  0.00    -0.002 A 
HETATM   26  C   UNK N   1      29.990  16.996   5.983  0.00  0.00     0.072 A 
HETATM   27  C   UNK N   1      31.105  17.578   8.526  0.00  0.00     0.017 A 
HETATM   28  C   UNK N   1      29.721  17.364   8.388  0.00  0.00     0.043 A 
HETATM   29  C   UNK N   1      29.166  17.073   7.121  0.00  0.00     0.118 A 
HETATM   30  F   UNK N   1      27.833  16.864   7.002  0.00  0.00    -0.206 F 
ENDBRANCH  19  20
ENDBRANCH  18  19
ENDBRANCH  16  18
ENDBRANCH   1  16
TORSDOF 9
ENDMDL
MODEL 3
REMARK VINA RESULT:      -5.8     11.859     13.566
REMARK  9 active torsions:
REMARK  status: ('A' for Active; 'I' for Inactive)
REMARK    1  A    between atoms: C_3  and  C_15 
REMARK    2  A    between atoms: C_5  and  O_7 
REMARK    3  A    between atoms: O_7  and  C_8 
REMARK    4  A    between atoms: C_8  and  C_9 
REMARK    5  A    between atoms: C_9  and  C_10 
REMARK    6  A    between atoms: C_15  and  N_16 
REMARK    7  A    between atoms: N_16  and  C_17 
REMARK    8  A    between atoms: C_17  and  C_18 
REMARK    9  A    between atoms: C_18  and  C_19 
ROOT
HETATM    1  C   UNK N   1      27.170  14.795   5.504  0.00  0.00     0.152 C 
ENDROOT
BRANCH   1   2
HETATM    2  C   UNK N   1      27.953  15.873   6.212  0.00  0.00    -0.038 A 
HETATM    3  C   UNK N   1      27.369  16.686   7.196  0.00  0.00     0.009 A 
HETATM    4  C   UNK N   1      28.095  17.717   7.786  0.00  0.00     0.003 A 
HETATM    5  C   UNK N   1      29.417  17.939   7.411  0.00  0.00     0.037 A 
HETATM    6  C   UNK N   1      30.027  17.123   6.455  0.00  0.00     0.069 A 
HETATM    7  C   UNK N   1      29.288  16.089   5.850  0.00  0.00     0.045 A 
BRANCH   6   8
HETATM    8  O   UNK N   1      31.325  17.351   6.149  0.00  0.00    -0.345 OA
BRANCH   8   9
HETATM    9  C   UNK N   1      32.384  16.584   6.586  0.00  0.00     0.260 C 
BRANCH   9  10
HETATM   10  C   UNK N   1      32.911  17.085   7.936  0.00  0.00     0.322 C 
HETATM   11  F   UNK N   1      32.190  16.497   8.959  0.00  0.00    -0.198 F 
HETATM   12  F   UNK N   1      32.780  18.462   8.036  0.00  0.00    -0.198 F 
BRANCH  10  13
HETATM   13  C   UNK N   1      34.387  16.739   8.086  0.00  0.00     0.426 C 
HETATM   14  F   UNK N   1      34.891  16.262   6.888  0.00  0.00    -0.208 F 
HETATM   15  F   UNK N   1      34.577  15.794   9.078  0.00  0.00    -0.208 F 
ENDBRANCH  10  13
ENDBRANCH   9  10
ENDBRANCH   8   9
ENDBRANCH   6   8
ENDBRANCH   1   2
BRANCH   1  16
HETATM   16  N   UNK N   1      27.330  14.778   4.043  0.00  0.00    -0.417 N 
HETATM   17  H   UNK N   1      28.211  14.582   3.566  0.00  0.00     0.153 HD
BRANCH  16  18
HETATM   18  C   UNK N   1      26.072  15.076   3.356  0.00  0.00     0.118 C 
BRANCH  18  19
HETATM   19  C   UNK N   1      26.082  16.448   2.705  0.00  0.00     0.060 C 
BRANCH  19  20
HETATM   20  C   UNK N   1      25.640  17.473   3.684  0.00  0.00    -0.029 A 
HETATM   21  C   UNK N   1      24.378  17.567   4.253  0.00  0.00     0.096 A 
HETATM   22  N   UNK N   1      24.345  18.625   5.104  0.00  0.00    -0.365 N 
HETATM   23  C   UNK N   1      25.570  19.179   5.060  0.00  0.00     0.045 A 
HETATM   24  H   UNK N   1      23.578  18.926   5.646  0.00  0.00     0.165 HD
HETATM   25  C   UNK N   1      26.384  18.503   4.200  0.00  0.00    -0.002 A 
HETATM   26  C   UNK N   1      26.013  20.290   5.770  0.00  0.00     0.072 A 
HETATM   27  C   UNK N   1      27.706  18.884   3.980  0.00  0.00     0.017 A 
HETATM   28  C   UNK N   1      28.188  20.004   4.683  0.00  0.00     0.043 A 
HETATM   29  C   UNK N   1      27.344  20.704   5.576  0.00  0.00     0.118 A 
HETATM   30  F   UNK N   1      27.820  21.778   6.250  0.00  0.00    -0.206 F 
ENDBRANCH  19  20
ENDBRANCH  18  19
ENDBRANCH  16  18
ENDBRANCH   1  16
TORSDOF 9
ENDMDL
MODEL 4
REMARK VINA RESULT:      -5.7     11.756     14.033
REMARK  9 active torsions:
REMARK  status: ('A' for Active; 'I' for Inactive)
REMARK    1  A    between atoms: C_3  and  C_15 
REMARK    2  A    between atoms: C_5  and  O_7 
REMARK    3  A    between atoms: O_7  and  C_8 
REMARK    4  A    between atoms: C_8  and  C_9 
REMARK    5  A    between atoms: C_9  and  C_10 
REMARK    6  A    between atoms: C_15  and  N_16 
REMARK    7  A    between atoms: N_16  and  C_17 
REMARK    8  A    between atoms: C_17  and  C_18 
REMARK    9  A    between atoms: C_18  and  C_19 
ROOT
HETATM    1  C   UNK N   1      30.020  14.383   2.651  0.00  0.00     0.152 C 
ENDROOT
BRANCH   1   2
HETATM    2  C   UNK N   1      28.679  15.065   2.760  0.00  0.00    -0.038 A 
HETATM    3  C   UNK N   1      27.620  14.758   1.891  0.00  0.00     0.009 A 
HETATM    4  C   UNK N   1      26.413  15.450   1.970  0.00  0.00     0.003 A 
HETATM    5  C   UNK N   1      26.247  16.447   2.927  0.00  0.00     0.037 A 
HETATM    6  C   UNK N   1      27.278  16.750   3.821  0.00  0.00     0.069 A 
HETATM    7  C   UNK N   1      28.500  16.058   3.731  0.00  0.00     0.045 A 
BRANCH   6   8
HETATM    8  O   UNK N   1      27.057  17.700   4.758  0.00  0.00    -0.345 OA
BRANCH   8   9
HETATM    9  C   UNK N   1      26.253  18.806   4.583  0.00  0.00     0.260 C 
BRANCH   9  10
HETATM   10  C   UNK N   1      27.063  20.104   4.702  0.00  0.00     0.322 C 
HETATM   11  F   UNK N   1      26.643  20.997   3.733  0.00  0.00    -0.198 F 
HETATM   12  F   UNK N   1      28.416  19.858   4.523  0.00  0.00    -0.198 F 
BRANCH  10  13
HETATM   13  C   UNK N   1      26.872  20.719   6.082  0.00  0.00     0.426 C 
HETATM   14  F   UNK N   1      27.341  22.021   6.095  0.00  0.00    -0.208 F 
HETATM   15  F   UNK N   1      27.526  19.979   7.050  0.00  0.00    -0.208 F 
ENDBRANCH  10  13
ENDBRANCH   9  10
ENDBRANCH   8   9
ENDBRANCH   6   8
ENDBRANCH   1   2
BRANCH   1  16
HETATM   16  N   UNK N   1      30.852  14.467   3.859  0.00  0.00    -0.417 N 
HETATM   17  H   UNK N   1      30.562  14.133   4.779  0.00  0.00     0.153 HD
BRANCH  16  18
HETATM   18  C   UNK N   1      32.148  15.090   3.582  0.00  0.00     0.118 C 
BRANCH  18  19
HETATM   19  C   UNK N   1      32.113  16.598   3.759  0.00  0.00     0.060 C 
BRANCH  19  20
HETATM   20  C   UNK N   1      32.507  16.951   5.146  0.00  0.00    -0.029 A 
HETATM   21  C   UNK N   1      33.806  17.063   5.623  0.00  0.00     0.096 A 
HETATM   22  N   UNK N   1      33.776  17.406   6.936  0.00  0.00    -0.365 N 
HETATM   23  C   UNK N   1      32.476  17.503   7.268  0.00  0.00     0.045 A 
HETATM   24  H   UNK N   1      34.550  17.555   7.528  0.00  0.00     0.165 HD
HETATM   25  C   UNK N   1      31.674  17.228   6.200  0.00  0.00    -0.002 A 
HETATM   26  C   UNK N   1      31.952  17.836   8.513  0.00  0.00     0.072 A 
HETATM   27  C   UNK N   1      30.284  17.263   6.291  0.00  0.00     0.017 A 
HETATM   28  C   UNK N   1      29.720  17.596   7.536  0.00  0.00     0.043 A 
HETATM   29  C   UNK N   1      30.551  17.883   8.643  0.00  0.00     0.118 A 
HETATM   30  F   UNK N   1      29.997  18.206   9.836  0.00  0.00    -0.206 F 
ENDBRANCH  19  20
ENDBRANCH  18  19
ENDBRANCH  16  18
ENDBRANCH   1  16
TORSDOF 9
ENDMDL
MODEL 5
REMARK VINA RESULT:      -5.7      2.543      4.597
REMARK  9 active torsions:
REMARK  status: ('A' for Active; 'I' for Inactive)
REMARK    1  A    between atoms: C_3  and  C_15 
REMARK    2  A    between atoms: C_5  and  O_7 
REMARK    3  A    between atoms: O_7  and  C_8 
REMARK    4  A    between atoms: C_8  and  C_9 
REMARK    5  A    between atoms: C_9  and  C_10 
REMARK    6  A    between atoms: C_15  and  N_16 
REMARK    7  A    between atoms: N_16  and  C_17 
REMARK    8  A    between atoms: C_17  and  C_18 
REMARK    9  A    between atoms: C_18  and  C_19 
ROOT
HETATM    1  C   UNK N   1      30.566  29.212  -3.530  0.00  0.00     0.152 C 
ENDROOT
BRANCH   1   2
HETATM    2  C   UNK N   1      30.402  27.977  -4.382  0.00  0.00    -0.038 A 
HETATM    3  C   UNK N   1      31.000  27.867  -5.647  0.00  0.00     0.009 A 
HETATM    4  C   UNK N   1      30.779  26.744  -6.441  0.00  0.00     0.003 A 
HETATM    5  C   UNK N   1      29.968  25.713  -5.974  0.00  0.00     0.037 A 
HETATM    6  C   UNK N   1      29.387  25.789  -4.706  0.00  0.00     0.069 A 
HETATM    7  C   UNK N   1      29.601  26.930  -3.910  0.00  0.00     0.045 A 
BRANCH   6   8
HETATM    8  O   UNK N   1      28.638  24.746  -4.279  0.00  0.00    -0.345 OA
BRANCH   8   9
HETATM    9  C   UNK N   1      29.034  23.426  -4.313  0.00  0.00     0.260 C 
BRANCH   9  10
HETATM   10  C   UNK N   1      29.645  22.996  -2.974  0.00  0.00     0.322 C 
HETATM   11  F   UNK N   1      28.669  23.023  -1.994  0.00  0.00    -0.198 F 
HETATM   12  F   UNK N   1      30.671  23.851  -2.603  0.00  0.00    -0.198 F 
BRANCH  10  13
HETATM   13  C   UNK N   1      30.218  21.589  -3.085  0.00  0.00     0.426 C 
HETATM   14  F   UNK N   1      31.529  21.570  -2.640  0.00  0.00    -0.208 F 
HETATM   15  F   UNK N   1      30.163  21.132  -4.389  0.00  0.00    -0.208 F 
ENDBRANCH  10  13
ENDBRANCH   9  10
ENDBRANCH   8   9
ENDBRANCH   6   8
ENDBRANCH   1   2
BRANCH   1  16
HETATM   16  N   UNK N   1      30.334  30.480  -4.235  0.00  0.00    -0.417 N 
HETATM   17  H   UNK N   1      31.020  30.932  -4.840  0.00  0.00     0.153 HD
BRANCH  16  18
HETATM   18  C   UNK N   1      28.999  31.016  -3.961  0.00  0.00     0.118 C 
BRANCH  18  19
HETATM   19  C   UNK N   1      28.034  30.773  -5.109  0.00  0.00     0.060 C 
BRANCH  19  20
HETATM   20  C   UNK N   1      27.089  29.686  -4.750  0.00  0.00    -0.029 A 
HETATM   21  C   UNK N   1      26.328  29.615  -3.592  0.00  0.00     0.096 A 
HETATM   22  N   UNK N   1      25.579  28.482  -3.612  0.00  0.00    -0.365 N 
HETATM   23  C   UNK N   1      25.875  27.860  -4.767  0.00  0.00     0.045 A 
HETATM   24  H   UNK N   1      24.946  28.178  -2.921  0.00  0.00     0.165 HD
HETATM   25  C   UNK N   1      26.796  28.565  -5.485  0.00  0.00    -0.002 A 
HETATM   26  C   UNK N   1      25.349  26.658  -5.230  0.00  0.00     0.072 A 
HETATM   27  C   UNK N   1      27.265  28.126  -6.721  0.00  0.00     0.017 A 
HETATM   28  C   UNK N   1      26.753  26.913  -7.219  0.00  0.00     0.043 A 
HETATM   29  C   UNK N   1      25.797  26.182  -6.477  0.00  0.00     0.118 A 
HETATM   30  F   UNK N   1      25.308  25.019  -6.968  0.00  0.00    -0.206 F 
ENDBRANCH  19  20
ENDBRANCH  18  19
ENDBRANCH  16  18
ENDBRANCH   1  16
TORSDOF 9
ENDMDL
MODEL 6
REMARK VINA RESULT:      -5.7     14.174     16.742
REMARK  9 active torsions:
REMARK  status: ('A' for Active; 'I' for Inactive)
REMARK    1  A    between atoms: C_3  and  C_15 
REMARK    2  A    between atoms: C_5  and  O_7 
REMARK    3  A    between atoms: O_7  and  C_8 
REMARK    4  A    between atoms: C_8  and  C_9 
REMARK    5  A    between atoms: C_9  and  C_10 
REMARK    6  A    between atoms: C_15  and  N_16 
REMARK    7  A    between atoms: N_16  and  C_17 
REMARK    8  A    between atoms: C_17  and  C_18 
REMARK    9  A    between atoms: C_18  and  C_19 
ROOT
HETATM    1  C   UNK N   1      25.860  16.739   5.059  0.00  0.00     0.152 C 
ENDROOT
BRANCH   1   2
HETATM    2  C   UNK N   1      25.739  18.084   4.385  0.00  0.00    -0.038 A 
HETATM    3  C   UNK N   1      26.868  18.816   3.986  0.00  0.00     0.009 A 
HETATM    4  C   UNK N   1      26.730  20.084   3.426  0.00  0.00     0.003 A 
HETATM    5  C   UNK N   1      25.462  20.628   3.246  0.00  0.00     0.037 A 
HETATM    6  C   UNK N   1      24.323  19.905   3.608  0.00  0.00     0.069 A 
HETATM    7  C   UNK N   1      24.464  18.629   4.186  0.00  0.00     0.045 A 
BRANCH   6   8
HETATM    8  O   UNK N   1      23.110  20.459   3.379  0.00  0.00    -0.345 OA
BRANCH   8   9
HETATM    9  C   UNK N   1      22.107  19.877   2.634  0.00  0.00     0.260 C 
BRANCH   9  10
HETATM   10  C   UNK N   1      20.834  19.688   3.469  0.00  0.00     0.322 C 
HETATM   11  F   UNK N   1      20.160  20.892   3.558  0.00  0.00    -0.198 F 
HETATM   12  F   UNK N   1      21.145  19.257   4.749  0.00  0.00    -0.198 F 
BRANCH  10  13
HETATM   13  C   UNK N   1      19.932  18.644   2.824  0.00  0.00     0.426 C 
HETATM   14  F   UNK N   1      20.413  18.303   1.571  0.00  0.00    -0.208 F 
HETATM   15  F   UNK N   1      18.634  19.110   2.713  0.00  0.00    -0.208 F 
ENDBRANCH  10  13
ENDBRANCH   9  10
ENDBRANCH   8   9
ENDBRANCH   6   8
ENDBRANCH   1   2
BRANCH   1  16
HETATM   16  N   UNK N   1      24.735  16.389   5.937  0.00  0.00    -0.417 N 
HETATM   17  H   UNK N   1      23.834  16.866   5.931  0.00  0.00     0.153 HD
BRANCH  16  18
HETATM   18  C   UNK N   1      25.067  15.270   6.822  0.00  0.00     0.118 C 
BRANCH  18  19
HETATM   19  C   UNK N   1      24.259  14.024   6.504  0.00  0.00     0.060 C 
BRANCH  19  20
HETATM   20  C   UNK N   1      23.240  13.801   7.561  0.00  0.00    -0.029 A 
HETATM   21  C   UNK N   1      21.898  14.146   7.486  0.00  0.00     0.096 A 
HETATM   22  N   UNK N   1      21.275  13.785   8.637  0.00  0.00    -0.365 N 
HETATM   23  C   UNK N   1      22.220  13.225   9.414  0.00  0.00     0.045 A 
HETATM   24  H   UNK N   1      20.323  13.907   8.859  0.00  0.00     0.165 HD
HETATM   25  C   UNK N   1      23.432  13.222   8.789  0.00  0.00    -0.002 A 
HETATM   26  C   UNK N   1      22.051  12.699  10.691  0.00  0.00     0.072 A 
HETATM   27  C   UNK N   1      24.573  12.695   9.390  0.00  0.00     0.017 A 
HETATM   28  C   UNK N   1      24.438  12.154  10.683  0.00  0.00     0.043 A 
HETATM   29  C   UNK N   1      23.181  12.155  11.330  0.00  0.00     0.118 A 
HETATM   30  F   UNK N   1      23.062  11.628  12.572  0.00  0.00    -0.206 F 
ENDBRANCH  19  20
ENDBRANCH  18  19
ENDBRANCH  16  18
ENDBRANCH   1  16
TORSDOF 9
ENDMDL
MODEL 7
REMARK VINA RESULT:      -5.7      2.887      6.222
REMARK  9 active torsions:
REMARK  status: ('A' for Active; 'I' for Inactive)
REMARK    1  A    between atoms: C_3  and  C_15 
REMARK    2  A    between atoms: C_5  and  O_7 
REMARK    3  A    between atoms: O_7  and  C_8 
REMARK    4  A    between atoms: C_8  and  C_9 
REMARK    5  A    between atoms: C_9  and  C_10 
REMARK    6  A    between atoms: C_15  and  N_16 
REMARK    7  A    between atoms: N_16  and  C_17 
REMARK    8  A    between atoms: C_17  and  C_18 
REMARK    9  A    between atoms: C_18  and  C_19 
ROOT
HETATM    1  C   UNK N   1      28.495  28.738  -7.010  0.00  0.00     0.152 C 
ENDROOT
BRANCH   1   2
HETATM    2  C   UNK N   1      27.269  28.032  -6.484  0.00  0.00    -0.038 A 
HETATM    3  C   UNK N   1      26.578  28.493  -5.354  0.00  0.00     0.009 A 
HETATM    4  C   UNK N   1      25.489  27.785  -4.850  0.00  0.00     0.003 A 
HETATM    5  C   UNK N   1      25.071  26.616  -5.480  0.00  0.00     0.037 A 
HETATM    6  C   UNK N   1      25.726  26.155  -6.624  0.00  0.00     0.069 A 
HETATM    7  C   UNK N   1      26.835  26.865  -7.124  0.00  0.00     0.045 A 
BRANCH   6   8
HETATM    8  O   UNK N   1      25.262  25.035  -7.224  0.00  0.00    -0.345 OA
BRANCH   8   9
HETATM    9  C   UNK N   1      26.054  24.040  -7.757  0.00  0.00     0.260 C 
BRANCH   9  10
HETATM   10  C   UNK N   1      26.037  22.786  -6.874  0.00  0.00     0.322 C 
HETATM   11  F   UNK N   1      25.487  23.096  -5.644  0.00  0.00    -0.198 F 
HETATM   12  F   UNK N   1      27.323  22.306  -6.677  0.00  0.00    -0.198 F 
BRANCH  10  13
HETATM   13  C   UNK N   1      25.219  21.687  -7.538  0.00  0.00     0.426 C 
HETATM   14  F   UNK N   1      24.226  21.244  -6.681  0.00  0.00    -0.208 F 
HETATM   15  F   UNK N   1      26.023  20.623  -7.906  0.00  0.00    -0.208 F 
ENDBRANCH  10  13
ENDBRANCH   9  10
ENDBRANCH   8   9
ENDBRANCH   6   8
ENDBRANCH   1   2
BRANCH   1  16
HETATM   16  N   UNK N   1      29.584  28.888  -6.035  0.00  0.00    -0.417 N 
HETATM   17  H   UNK N   1      29.828  29.767  -5.579  0.00  0.00     0.153 HD
BRANCH  16  18
HETATM   18  C   UNK N   1      30.276  27.619  -5.797  0.00  0.00     0.118 C 
BRANCH  18  19
HETATM   19  C   UNK N   1      30.210  27.191  -4.340  0.00  0.00     0.060 C 
BRANCH  19  20
HETATM   20  C   UNK N   1      29.693  25.802  -4.247  0.00  0.00    -0.029 A 
HETATM   21  C   UNK N   1      28.363  25.434  -4.102  0.00  0.00     0.096 A 
HETATM   22  N   UNK N   1      28.272  24.080  -4.059  0.00  0.00    -0.365 N 
HETATM   23  C   UNK N   1      29.530  23.617  -4.173  0.00  0.00     0.045 A 
HETATM   24  H   UNK N   1      27.451  23.544  -3.963  0.00  0.00     0.165 HD
HETATM   25  C   UNK N   1      30.423  24.641  -4.287  0.00  0.00    -0.002 A 
HETATM   26  C   UNK N   1      29.935  22.286  -4.183  0.00  0.00     0.072 A 
HETATM   27  C   UNK N   1      31.792  24.418  -4.418  0.00  0.00     0.017 A 
HETATM   28  C   UNK N   1      32.236  23.082  -4.433  0.00  0.00     0.043 A 
HETATM   29  C   UNK N   1      31.311  22.020  -4.317  0.00  0.00     0.118 A 
HETATM   30  F   UNK N   1      31.750  20.739  -4.336  0.00  0.00    -0.206 F 
ENDBRANCH  19  20
ENDBRANCH  18  19
ENDBRANCH  16  18
ENDBRANCH   1  16
TORSDOF 9
ENDMDL
MODEL 8
REMARK VINA RESULT:      -5.7      2.236      4.066
REMARK  9 active torsions:
REMARK  status: ('A' for Active; 'I' for Inactive)
REMARK    1  A    between atoms: C_3  and  C_15 
REMARK    2  A    between atoms: C_5  and  O_7 
REMARK    3  A    between atoms: O_7  and  C_8 
REMARK    4  A    between atoms: C_8  and  C_9 
REMARK    5  A    between atoms: C_9  and  C_10 
REMARK    6  A    between atoms: C_15  and  N_16 
REMARK    7  A    between atoms: N_16  and  C_17 
REMARK    8  A    between atoms: C_17  and  C_18 
REMARK    9  A    between atoms: C_18  and  C_19 
ROOT
HETATM    1  C   UNK N   1      30.422  27.398  -3.564  0.00  0.00     0.152 C 
ENDROOT
BRANCH   1   2
HETATM    2  C   UNK N   1      29.721  26.174  -4.103  0.00  0.00    -0.038 A 
HETATM    3  C   UNK N   1      28.373  25.909  -3.818  0.00  0.00     0.009 A 
HETATM    4  C   UNK N   1      27.769  24.738  -4.273  0.00  0.00     0.003 A 
HETATM    5  C   UNK N   1      28.502  23.828  -5.028  0.00  0.00     0.037 A 
HETATM    6  C   UNK N   1      29.838  24.087  -5.349  0.00  0.00     0.069 A 
HETATM    7  C   UNK N   1      30.450  25.263  -4.878  0.00  0.00     0.045 A 
BRANCH   6   8
HETATM    8  O   UNK N   1      30.499  23.192  -6.117  0.00  0.00    -0.345 OA
BRANCH   8   9
HETATM    9  C   UNK N   1      31.599  22.466  -5.711  0.00  0.00     0.260 C 
BRANCH   9  10
HETATM   10  C   UNK N   1      31.178  21.170  -5.006  0.00  0.00     0.322 C 
HETATM   11  F   UNK N   1      32.071  20.163  -5.323  0.00  0.00    -0.198 F 
HETATM   12  F   UNK N   1      29.909  20.781  -5.407  0.00  0.00    -0.198 F 
BRANCH  10  13
HETATM   13  C   UNK N   1      31.155  21.376  -3.497  0.00  0.00     0.426 C 
HETATM   14  F   UNK N   1      29.853  21.542  -3.056  0.00  0.00    -0.208 F 
HETATM   15  F   UNK N   1      31.912  22.476  -3.135  0.00  0.00    -0.208 F 
ENDBRANCH  10  13
ENDBRANCH   9  10
ENDBRANCH   8   9
ENDBRANCH   6   8
ENDBRANCH   1   2
BRANCH   1  16
HETATM   16  N   UNK N   1      30.337  28.584  -4.426  0.00  0.00    -0.417 N 
HETATM   17  H   UNK N   1      30.793  28.665  -5.335  0.00  0.00     0.153 HD
BRANCH  16  18
HETATM   18  C   UNK N   1      29.518  29.637  -3.821  0.00  0.00     0.118 C 
BRANCH  18  19
HETATM   19  C   UNK N   1      28.483  30.188  -4.787  0.00  0.00     0.060 C 
BRANCH  19  20
HETATM   20  C   UNK N   1      27.293  29.301  -4.809  0.00  0.00    -0.029 A 
HETATM   21  C   UNK N   1      26.265  29.288  -3.877  0.00  0.00     0.096 A 
HETATM   22  N   UNK N   1      25.349  28.349  -4.227  0.00  0.00    -0.365 N 
HETATM   23  C   UNK N   1      25.806  27.787  -5.361  0.00  0.00     0.045 A 
HETATM   24  H   UNK N   1      24.518  28.125  -3.749  0.00  0.00     0.165 HD
HETATM   25  C   UNK N   1      26.991  28.341  -5.742  0.00  0.00    -0.002 A 
HETATM   26  C   UNK N   1      25.199  26.773  -6.096  0.00  0.00     0.072 A 
HETATM   27  C   UNK N   1      27.667  27.927  -6.889  0.00  0.00     0.017 A 
HETATM   28  C   UNK N   1      27.081  26.903  -7.657  0.00  0.00     0.043 A 
HETATM   29  C   UNK N   1      25.851  26.330  -7.262  0.00  0.00     0.118 A 
HETATM   30  F   UNK N   1      25.294  25.348  -8.011  0.00  0.00    -0.206 F 
ENDBRANCH  19  20
ENDBRANCH  18  19
ENDBRANCH  16  18
ENDBRANCH   1  16
TORSDOF 9
ENDMDL
MODEL 9
REMARK VINA RESULT:      -5.6     19.865     23.442
REMARK  9 active torsions:
REMARK  status: ('A' for Active; 'I' for Inactive)
REMARK    1  A    between atoms: C_3  and  C_15 
REMARK    2  A    between atoms: C_5  and  O_7 
REMARK    3  A    between atoms: O_7  and  C_8 
REMARK    4  A    between atoms: C_8  and  C_9 
REMARK    5  A    between atoms: C_9  and  C_10 
REMARK    6  A    between atoms: C_15  and  N_16 
REMARK    7  A    between atoms: N_16  and  C_17 
REMARK    8  A    between atoms: C_17  and  C_18 
REMARK    9  A    between atoms: C_18  and  C_19 
ROOT
HETATM    1  C   UNK N   1      37.268  11.866  12.894  0.00  0.00     0.152 C 
ENDROOT
BRANCH   1   2
HETATM    2  C   UNK N   1      36.168  11.304  13.760  0.00  0.00    -0.038 A 
HETATM    3  C   UNK N   1      34.818  11.379  13.384  0.00  0.00     0.009 A 
HETATM    4  C   UNK N   1      33.818  10.912  14.233  0.00  0.00     0.003 A 
HETATM    5  C   UNK N   1      34.156  10.351  15.461  0.00  0.00     0.037 A 
HETATM    6  C   UNK N   1      35.496  10.238  15.843  0.00  0.00     0.069 A 
HETATM    7  C   UNK N   1      36.504  10.723  14.990  0.00  0.00     0.045 A 
BRANCH   6   8
HETATM    8  O   UNK N   1      35.779   9.652  17.028  0.00  0.00    -0.345 OA
BRANCH   8   9
HETATM    9  C   UNK N   1      36.465  10.255  18.061  0.00  0.00     0.260 C 
BRANCH   9  10
HETATM   10  C   UNK N   1      35.505  10.762  19.144  0.00  0.00     0.322 C 
HETATM   11  F   UNK N   1      35.984  10.402  20.390  0.00  0.00    -0.198 F 
HETATM   12  F   UNK N   1      34.242  10.213  18.978  0.00  0.00    -0.198 F 
BRANCH  10  13
HETATM   13  C   UNK N   1      35.375  12.278  19.065  0.00  0.00     0.426 C 
HETATM   14  F   UNK N   1      34.612  12.749  20.119  0.00  0.00    -0.208 F 
HETATM   15  F   UNK N   1      34.802  12.665  17.866  0.00  0.00    -0.208 F 
ENDBRANCH  10  13
ENDBRANCH   9  10
ENDBRANCH   8   9
ENDBRANCH   6   8
ENDBRANCH   1   2
BRANCH   1  16
HETATM   16  N   UNK N   1      37.188  13.315  12.663  0.00  0.00    -0.417 N 
HETATM   17  H   UNK N   1      37.101  14.010  13.406  0.00  0.00     0.153 HD
BRANCH  16  18
HETATM   18  C   UNK N   1      37.248  13.641  11.236  0.00  0.00     0.118 C 
BRANCH  18  19
HETATM   19  C   UNK N   1      35.873  13.653  10.590  0.00  0.00     0.060 C 
BRANCH  19  20
HETATM   20  C   UNK N   1      35.465  15.051  10.303  0.00  0.00    -0.029 A 
HETATM   21  C   UNK N   1      35.433  16.096  11.215  0.00  0.00     0.096 A 
HETATM   22  N   UNK N   1      35.013  17.227  10.592  0.00  0.00    -0.365 N 
HETATM   23  C   UNK N   1      34.787  16.885   9.311  0.00  0.00     0.045 A 
HETATM   24  H   UNK N   1      34.898  18.118  10.995  0.00  0.00     0.165 HD
HETATM   25  C   UNK N   1      35.049  15.564   9.100  0.00  0.00    -0.002 A 
HETATM   26  C   UNK N   1      34.346  17.718   8.287  0.00  0.00     0.072 A 
HETATM   27  C   UNK N   1      34.890  14.968   7.850  0.00  0.00     0.017 A 
HETATM   28  C   UNK N   1      34.446  15.781   6.791  0.00  0.00     0.043 A 
HETATM   29  C   UNK N   1      34.176  17.152   7.009  0.00  0.00     0.118 A 
HETATM   30  F   UNK N   1      33.752  17.926   5.981  0.00  0.00    -0.206 F 
ENDBRANCH  19  20
ENDBRANCH  18  19
ENDBRANCH  16  18
ENDBRANCH   1  16
TORSDOF 9
ENDMDL
