REMARK  6 active torsions:
REMARK  status: ('A' for Active; 'I' for Inactive)
REMARK    1  A    between atoms: C_2  and  C_18 
REMARK    2  A    between atoms: C_9  and  N_8 
REMARK    3  A    between atoms: C_10  and  O_17 
REMARK    4  A    between atoms: C_11  and  O_16 
REMARK    5  A    between atoms: C_12  and  C_14 
REMARK    6  A    between atoms: C_14  and  O_15 
ROOT
HETATM    1  C   UNK N   1       1.664   1.313   0.090  0.00  0.00     0.115 A 
HETATM    2  C   UNK N   1       1.537   2.700  -0.035  0.00  0.00     0.048 A 
HETATM    3  C   UNK N   1       2.712   3.471  -0.083  0.00  0.00     0.261 A 
HETATM    4  O   UNK N   1       2.670   4.684  -0.189  0.00  0.00    -0.267 OA
HETATM    5  N   UNK N   1       3.927   2.853   0.004  0.00  0.00    -0.275 N 
HETATM    6  C   UNK N   1       4.027   1.499   0.152  0.00  0.00     0.331 A 
HETATM    7  O   UNK N   1       5.134   1.003   0.265  0.00  0.00    -0.246 OA
HETATM    8  N   UNK N   1       2.889   0.711   0.186  0.00  0.00    -0.279 N 
HETATM    9  H   UNK N   1       4.747   3.395  -0.040  0.00  0.00     0.173 HD
ENDROOT
BRANCH   8  10
HETATM   10  C   UNK N   1       2.959  -0.752   0.419  0.00  0.00     0.264 C 
HETATM   11  C   UNK N   1       3.871  -1.517  -0.532  0.00  0.00     0.198 C 
HETATM   12  C   UNK N   1       3.242  -2.897  -0.547  0.00  0.00     0.182 C 
HETATM   13  C   UNK N   1       2.029  -2.729   0.342  0.00  0.00     0.179 C 
HETATM   14  O   UNK N   1       1.697  -1.368   0.335  0.00  0.00    -0.353 OA
BRANCH  11  15
HETATM   15  O   UNK N   1       5.174  -1.565  -0.025  0.00  0.00    -0.388 OA
HETATM   16  H   UNK N   1       5.597  -2.364   0.326  0.00  0.00     0.210 HD
ENDBRANCH  11  15
BRANCH  12  17
HETATM   17  O   UNK N   1       4.077  -3.882  -0.007  0.00  0.00    -0.390 OA
HETATM   18  H   UNK N   1       3.775  -4.724   0.367  0.00  0.00     0.210 HD
ENDBRANCH  12  17
BRANCH  13  19
HETATM   19  C   UNK N   1       0.875  -3.583  -0.157  0.00  0.00     0.198 C 
BRANCH  19  20
HETATM   20  O   UNK N   1       1.186  -4.937  -0.012  0.00  0.00    -0.398 OA
HETATM   21  H   UNK N   1       0.479  -5.594   0.089  0.00  0.00     0.209 HD
ENDBRANCH  19  20
ENDBRANCH  13  19
ENDBRANCH   8  10
BRANCH   2  22
HETATM   22  C   UNK N   1       0.172   3.283  -0.066  0.00  0.00     0.026 C 
HETATM   23  C   UNK N   1      -0.064   4.597  -0.073  0.00  0.00     0.057 C 
HETATM   24 Br   UNK N   1      -1.850   5.270  -0.066  0.00  0.00    -0.064 Br
ENDBRANCH   2  22
TORSDOF 6
