MODEL 1
REMARK VINA RESULT:      -8.0      0.000      0.000
REMARK  11 active torsions:
REMARK  status: ('A' for Active; 'I' for Inactive)
REMARK    1  A    between atoms: N_37  and  C_5 
REMARK    2  A    between atoms: N_33  and  C_17 
REMARK    3  A    between atoms: N_38  and  C_18 
REMARK    4  A    between atoms: O_40  and  C_19 
REMARK    5  A    between atoms: O_41  and  C_20 
REMARK    6  A    between atoms: N_33  and  C_21 
REMARK    7  A    between atoms: N_36  and  C_22 
REMARK    8  A    between atoms: N_34  and  C_25 
REMARK    9  A    between atoms: N_34  and  C_26 
REMARK   10  A    between atoms: N_36  and  C_26 
REMARK   11  A    between atoms: O_39  and  C_26 
ROOT
HETATM    1  C   UNK N   1      28.798  17.887   6.391  0.00  0.00     0.097 A 
HETATM    2  C   UNK N   1      28.564  18.306   9.097  0.00  0.00     0.183 A 
HETATM    3  C   UNK N   1      29.527  17.126   7.289  0.00  0.00     0.110 A 
HETATM    4  C   UNK N   1      27.928  18.856   6.881  0.00  0.00     0.114 A 
HETATM    5  N   UNK N   1      29.425  17.373   8.625  0.00  0.00    -0.338 N 
ATOM      6  HN  UNK N   1      30.006  16.848   9.279  1.00  0.00     0.168 HD
HETATM    7  N   UNK N   1      27.831  19.043   8.228  0.00  0.00    -0.338 N 
ATOM      8  HN  UNK N   1      27.194  19.753   8.589  1.00  0.00     0.168 HD
ENDROOT
BRANCH   4   9
HETATM    9  N   UNK N   1      27.201  19.686   5.972  0.00  0.00    -0.303 N 
HETATM   10  C   UNK N   1      26.427  20.796   6.478  0.00  0.00     0.161 C 
BRANCH   9  11
HETATM   11  C   UNK N   1      27.253  19.478   4.564  0.00  0.00     0.225 C 
BRANCH  11  12
HETATM   12  N   UNK N   1      26.481  18.608   4.006  0.00  0.00    -0.319 N 
ATOM     13  HN  UNK N   1      26.913  17.811   3.538  1.00  0.00     0.169 HD
BRANCH  12  14
HETATM   14  C   UNK N   1      25.066  18.695   4.007  0.00  0.00     0.084 A 
HETATM   15  C   UNK N   1      24.413  19.732   3.297  0.00  0.00     0.096 A 
HETATM   16  C   UNK N   1      22.997  19.807   3.328  0.00  0.00     0.095 A 
HETATM   17 Cl   UNK N   1      25.398  20.860   2.342  0.00  0.00    -0.079 Cl
HETATM   18  C   UNK N   1      22.288  18.843   4.043  0.00  0.00     0.077 A 
HETATM   19  C   UNK N   1      22.913  17.800   4.725  0.00  0.00     0.095 A 
HETATM   20  C   UNK N   1      24.331  17.719   4.701  0.00  0.00     0.096 A 
HETATM   21 Cl   UNK N   1      25.241  16.437   5.517  0.00  0.00    -0.079 Cl
BRANCH  16  22
HETATM   22  O   UNK N   1      22.261  20.764   2.700  0.00  0.00    -0.354 OA
HETATM   23  C   UNK N   1      20.890  20.856   2.646  0.00  0.00     0.210 C 
ENDBRANCH  16  22
BRANCH  19  24
HETATM   24  O   UNK N   1      22.100  16.927   5.380  0.00  0.00    -0.354 OA
HETATM   25  C   UNK N   1      21.607  17.052   6.656  0.00  0.00     0.210 C 
ENDBRANCH  19  24
ENDBRANCH  12  14
ENDBRANCH  11  12
BRANCH  11  26
HETATM   26  O   UNK N   1      28.142  20.180   3.821  0.00  0.00    -0.332 OA
HETATM   27  H   UNK N   1      29.000  20.140   3.447  0.00  0.00     0.221 HD
ENDBRANCH  11  26
ENDBRANCH   9  11
ENDBRANCH   4   9
BRANCH   3  28
HETATM   28  N   UNK N   1      30.634  16.403   6.809  0.00  0.00    -0.342 N 
HETATM   29  H   UNK N   1      30.637  15.996   5.913  0.00  0.00     0.167 HD
BRANCH  28  30
HETATM   30  C   UNK N   1      31.743  16.293   7.680  0.00  0.00     0.033 A 
HETATM   31  C   UNK N   1      32.649  17.343   7.829  0.00  0.00     0.032 A 
HETATM   32  C   UNK N   1      33.790  17.155   8.617  0.00  0.00     0.031 A 
HETATM   33  C   UNK N   1      34.026  15.917   9.250  0.00  0.00     0.030 A 
HETATM   34  C   UNK N   1      33.087  14.895   9.130  0.00  0.00     0.031 A 
HETATM   35  C   UNK N   1      31.961  15.084   8.362  0.00  0.00     0.032 A 
BRANCH  33  36
HETATM   36  N   UNK N   1      35.239  15.669   9.942  0.00  0.00    -0.378 N 
HETATM   37  C   UNK N   1      35.428  16.170  11.289  0.00  0.00     0.153 C 
HETATM   38  C   UNK N   1      35.575  14.970  12.223  0.00  0.00     0.292 C 
HETATM   39  N   UNK N   1      36.669  14.126  11.739  0.00  0.00     0.091 N 
HETATM   40  C   UNK N   1      36.320  13.584  10.423  0.00  0.00     0.292 C 
HETATM   41  C   UNK N   1      36.199  14.725   9.424  0.00  0.00     0.153 C 
BRANCH  39  42
HETATM   42  C   UNK N   1      36.831  13.013  12.657  0.00  0.00     0.268 C 
HETATM   43  C   UNK N   1      36.345  13.420  14.037  0.00  0.00     0.037 C 
ENDBRANCH  39  42
ENDBRANCH  33  36
ENDBRANCH  28  30
ENDBRANCH   3  28
TORSDOF 11
ENDMDL
MODEL 2
REMARK VINA RESULT:      -8.0      3.108      5.189
REMARK  11 active torsions:
REMARK  status: ('A' for Active; 'I' for Inactive)
REMARK    1  A    between atoms: N_37  and  C_5 
REMARK    2  A    between atoms: N_33  and  C_17 
REMARK    3  A    between atoms: N_38  and  C_18 
REMARK    4  A    between atoms: O_40  and  C_19 
REMARK    5  A    between atoms: O_41  and  C_20 
REMARK    6  A    between atoms: N_33  and  C_21 
REMARK    7  A    between atoms: N_36  and  C_22 
REMARK    8  A    between atoms: N_34  and  C_25 
REMARK    9  A    between atoms: N_34  and  C_26 
REMARK   10  A    between atoms: N_36  and  C_26 
REMARK   11  A    between atoms: O_39  and  C_26 
ROOT
HETATM    1  C   UNK N   1      27.136  16.945   4.562  0.00  0.00     0.097 A 
HETATM    2  C   UNK N   1      26.819  19.466   5.610  0.00  0.00     0.183 A 
HETATM    3  C   UNK N   1      28.220  17.795   4.697  0.00  0.00     0.110 A 
HETATM    4  C   UNK N   1      25.883  17.379   4.984  0.00  0.00     0.114 A 
HETATM    5  N   UNK N   1      28.037  19.054   5.184  0.00  0.00    -0.338 N 
ATOM      6  HN  UNK N   1      28.829  19.696   5.230  1.00  0.00     0.168 HD
HETATM    7  N   UNK N   1      25.754  18.635   5.500  0.00  0.00    -0.338 N 
ATOM      8  HN  UNK N   1      24.837  18.956   5.810  1.00  0.00     0.168 HD
ENDROOT
BRANCH   4   9
HETATM    9  N   UNK N   1      24.741  16.538   4.811  0.00  0.00    -0.303 N 
HETATM   10  C   UNK N   1      24.109  16.446   3.515  0.00  0.00     0.161 C 
BRANCH   9  11
HETATM   11  C   UNK N   1      24.230  15.742   5.876  0.00  0.00     0.225 C 
BRANCH  11  12
HETATM   12  N   UNK N   1      23.042  15.243   5.803  0.00  0.00    -0.319 N 
ATOM     13  HN  UNK N   1      22.728  14.880   4.903  1.00  0.00     0.169 HD
BRANCH  12  14
HETATM   14  C   UNK N   1      22.150  15.169   6.901  0.00  0.00     0.084 A 
HETATM   15  C   UNK N   1      22.005  13.959   7.623  0.00  0.00     0.096 A 
HETATM   16  C   UNK N   1      21.091  13.905   8.707  0.00  0.00     0.095 A 
HETATM   17 Cl   UNK N   1      23.024  12.575   7.178  0.00  0.00    -0.079 Cl
HETATM   18  C   UNK N   1      20.376  15.055   9.042  0.00  0.00     0.077 A 
HETATM   19  C   UNK N   1      20.527  16.260   8.359  0.00  0.00     0.095 A 
HETATM   20  C   UNK N   1      21.437  16.322   7.271  0.00  0.00     0.096 A 
HETATM   21 Cl   UNK N   1      21.726  17.797   6.332  0.00  0.00    -0.079 Cl
BRANCH  16  22
HETATM   22  O   UNK N   1      20.855  12.798   9.464  0.00  0.00    -0.354 OA
HETATM   23  C   UNK N   1      21.417  12.488  10.680  0.00  0.00     0.210 C 
ENDBRANCH  16  22
BRANCH  19  24
HETATM   24  O   UNK N   1      19.769  17.304   8.793  0.00  0.00    -0.354 OA
HETATM   25  C   UNK N   1      18.415  17.306   9.023  0.00  0.00     0.210 C 
ENDBRANCH  19  24
ENDBRANCH  12  14
ENDBRANCH  11  12
BRANCH  11  26
HETATM   26  O   UNK N   1      24.990  15.540   6.979  0.00  0.00    -0.332 OA
HETATM   27  H   UNK N   1      25.861  15.338   7.259  0.00  0.00     0.221 HD
ENDBRANCH  11  26
ENDBRANCH   9  11
ENDBRANCH   4   9
BRANCH   3  28
HETATM   28  N   UNK N   1      29.392  17.504   3.975  0.00  0.00    -0.342 N 
HETATM   29  H   UNK N   1      29.374  17.340   3.004  0.00  0.00     0.167 HD
BRANCH  28  30
HETATM   30  C   UNK N   1      30.596  17.460   4.715  0.00  0.00     0.033 A 
HETATM   31  C   UNK N   1      31.825  17.707   4.105  0.00  0.00     0.032 A 
HETATM   32  C   UNK N   1      33.002  17.548   4.846  0.00  0.00     0.031 A 
HETATM   33  C   UNK N   1      32.946  17.138   6.194  0.00  0.00     0.030 A 
HETATM   34  C   UNK N   1      31.709  16.942   6.802  0.00  0.00     0.031 A 
HETATM   35  C   UNK N   1      30.553  17.107   6.074  0.00  0.00     0.032 A 
BRANCH  33  36
HETATM   36  N   UNK N   1      34.130  16.845   6.919  0.00  0.00    -0.378 N 
HETATM   37  C   UNK N   1      34.444  17.575   8.132  0.00  0.00     0.153 C 
HETATM   38  C   UNK N   1      34.436  16.584   9.294  0.00  0.00     0.292 C 
HETATM   39  N   UNK N   1      35.367  15.495   8.994  0.00  0.00     0.091 N 
HETATM   40  C   UNK N   1      34.891  14.758   7.819  0.00  0.00     0.292 C 
HETATM   41  C   UNK N   1      34.913  15.675   6.606  0.00  0.00     0.153 C 
BRANCH  39  42
HETATM   42  C   UNK N   1      35.387  14.582  10.122  0.00  0.00     0.268 C 
HETATM   43  C   UNK N   1      34.262  14.936  11.079  0.00  0.00     0.037 C 
ENDBRANCH  39  42
ENDBRANCH  33  36
ENDBRANCH  28  30
ENDBRANCH   3  28
TORSDOF 11
ENDMDL
MODEL 3
REMARK VINA RESULT:      -7.9      2.958      4.852
REMARK  11 active torsions:
REMARK  status: ('A' for Active; 'I' for Inactive)
REMARK    1  A    between atoms: N_37  and  C_5 
REMARK    2  A    between atoms: N_33  and  C_17 
REMARK    3  A    between atoms: N_38  and  C_18 
REMARK    4  A    between atoms: O_40  and  C_19 
REMARK    5  A    between atoms: O_41  and  C_20 
REMARK    6  A    between atoms: N_33  and  C_21 
REMARK    7  A    between atoms: N_36  and  C_22 
REMARK    8  A    between atoms: N_34  and  C_25 
REMARK    9  A    between atoms: N_34  and  C_26 
REMARK   10  A    between atoms: N_36  and  C_26 
REMARK   11  A    between atoms: O_39  and  C_26 
ROOT
HETATM    1  C   UNK N   1      26.765  17.321   4.625  0.00  0.00     0.097 A 
HETATM    2  C   UNK N   1      26.722  19.879   5.628  0.00  0.00     0.183 A 
HETATM    3  C   UNK N   1      27.931  18.063   4.718  0.00  0.00     0.110 A 
HETATM    4  C   UNK N   1      25.571  17.883   5.066  0.00  0.00     0.114 A 
HETATM    5  N   UNK N   1      27.883  19.342   5.183  0.00  0.00    -0.338 N 
ATOM      6  HN  UNK N   1      28.735  19.903   5.198  1.00  0.00     0.168 HD
HETATM    7  N   UNK N   1      25.579  19.155   5.560  0.00  0.00    -0.338 N 
ATOM      8  HN  UNK N   1      24.705  19.570   5.884  1.00  0.00     0.168 HD
ENDROOT
BRANCH   4   9
HETATM    9  N   UNK N   1      24.349  17.155   4.937  0.00  0.00    -0.303 N 
HETATM   10  C   UNK N   1      23.458  17.441   3.835  0.00  0.00     0.161 C 
BRANCH   9  11
HETATM   11  C   UNK N   1      24.000  16.113   5.842  0.00  0.00     0.225 C 
BRANCH  11  12
HETATM   12  N   UNK N   1      22.835  15.562   5.781  0.00  0.00    -0.319 N 
ATOM     13  HN  UNK N   1      22.503  15.236   4.873  1.00  0.00     0.169 HD
BRANCH  12  14
HETATM   14  C   UNK N   1      21.989  15.383   6.904  0.00  0.00     0.084 A 
HETATM   15  C   UNK N   1      21.199  16.457   7.383  0.00  0.00     0.096 A 
HETATM   16  C   UNK N   1      20.374  16.256   8.519  0.00  0.00     0.095 A 
HETATM   17 Cl   UNK N   1      21.231  17.996   6.498  0.00  0.00    -0.079 Cl
HETATM   18  C   UNK N   1      20.349  14.998   9.119  0.00  0.00     0.077 A 
HETATM   19  C   UNK N   1      21.098  13.922   8.644  0.00  0.00     0.095 A 
HETATM   20  C   UNK N   1      21.930  14.115   7.509  0.00  0.00     0.096 A 
HETATM   21 Cl   UNK N   1      22.919  12.826   6.803  0.00  0.00    -0.079 Cl
BRANCH  16  22
HETATM   22  O   UNK N   1      19.586  17.214   9.080  0.00  0.00    -0.354 OA
HETATM   23  C   UNK N   1      18.212  17.260   9.086  0.00  0.00     0.210 C 
ENDBRANCH  16  22
BRANCH  19  24
HETATM   24  O   UNK N   1      20.978  12.749   9.323  0.00  0.00    -0.354 OA
HETATM   25  C   UNK N   1      21.745  12.320  10.378  0.00  0.00     0.210 C 
ENDBRANCH  19  24
ENDBRANCH  12  14
ENDBRANCH  11  12
BRANCH  11  26
HETATM   26  O   UNK N   1      24.891  15.726   6.785  0.00  0.00    -0.332 OA
HETATM   27  H   UNK N   1      25.652  16.007   7.254  0.00  0.00     0.221 HD
ENDBRANCH  11  26
ENDBRANCH   9  11
ENDBRANCH   4   9
BRANCH   3  28
HETATM   28  N   UNK N   1      29.050  17.645   3.975  0.00  0.00    -0.342 N 
HETATM   29  H   UNK N   1      29.015  17.546   2.996  0.00  0.00     0.167 HD
BRANCH  28  30
HETATM   30  C   UNK N   1      30.229  17.373   4.708  0.00  0.00     0.033 A 
HETATM   31  C   UNK N   1      30.177  17.073   6.069  0.00  0.00     0.032 A 
HETATM   32  C   UNK N   1      31.372  16.917   6.781  0.00  0.00     0.031 A 
HETATM   33  C   UNK N   1      32.615  17.063   6.131  0.00  0.00     0.030 A 
HETATM   34  C   UNK N   1      32.649  17.314   4.762  0.00  0.00     0.031 A 
HETATM   35  C   UNK N   1      31.473  17.460   4.061  0.00  0.00     0.032 A 
BRANCH  33  36
HETATM   36  N   UNK N   1      33.830  17.038   6.863  0.00  0.00    -0.378 N 
HETATM   37  C   UNK N   1      34.066  17.998   7.923  0.00  0.00     0.153 C 
HETATM   38  C   UNK N   1      34.182  17.229   9.238  0.00  0.00     0.292 C 
HETATM   39  N   UNK N   1      35.231  16.217   9.103  0.00  0.00     0.091 N 
HETATM   40  C   UNK N   1      34.836  15.238   8.086  0.00  0.00     0.292 C 
HETATM   41  C   UNK N   1      34.742  15.927   6.733  0.00  0.00     0.153 C 
BRANCH  39  42
HETATM   42  C   UNK N   1      35.366  15.522  10.371  0.00  0.00     0.268 C 
HETATM   43  C   UNK N   1      36.533  14.554  10.295  0.00  0.00     0.037 C 
ENDBRANCH  39  42
ENDBRANCH  33  36
ENDBRANCH  28  30
ENDBRANCH   3  28
TORSDOF 11
ENDMDL
MODEL 4
REMARK VINA RESULT:      -7.8      1.314      2.860
REMARK  11 active torsions:
REMARK  status: ('A' for Active; 'I' for Inactive)
REMARK    1  A    between atoms: N_37  and  C_5 
REMARK    2  A    between atoms: N_33  and  C_17 
REMARK    3  A    between atoms: N_38  and  C_18 
REMARK    4  A    between atoms: O_40  and  C_19 
REMARK    5  A    between atoms: O_41  and  C_20 
REMARK    6  A    between atoms: N_33  and  C_21 
REMARK    7  A    between atoms: N_36  and  C_22 
REMARK    8  A    between atoms: N_34  and  C_25 
REMARK    9  A    between atoms: N_34  and  C_26 
REMARK   10  A    between atoms: N_36  and  C_26 
REMARK   11  A    between atoms: O_39  and  C_26 
ROOT
HETATM    1  C   UNK N   1      29.894  17.466   7.147  0.00  0.00     0.097 A 
HETATM    2  C   UNK N   1      28.450  17.938   9.437  0.00  0.00     0.183 A 
HETATM    3  C   UNK N   1      30.535  17.643   8.362  0.00  0.00     0.110 A 
HETATM    4  C   UNK N   1      28.503  17.510   7.106  0.00  0.00     0.114 A 
HETATM    5  N   UNK N   1      29.804  17.913   9.479  0.00  0.00    -0.338 N 
ATOM      6  HN  UNK N   1      30.283  18.099  10.360  1.00  0.00     0.168 HD
HETATM    7  N   UNK N   1      27.812  17.747   8.258  0.00  0.00    -0.338 N 
ATOM      8  HN  UNK N   1      26.793  17.780   8.230  1.00  0.00     0.168 HD
ENDROOT
BRANCH   4   9
HETATM    9  N   UNK N   1      27.823  17.377   5.857  0.00  0.00    -0.303 N 
HETATM   10  C   UNK N   1      28.101  16.241   5.007  0.00  0.00     0.161 C 
BRANCH   9  11
HETATM   11  C   UNK N   1      26.834  18.313   5.439  0.00  0.00     0.225 C 
BRANCH  11  12
HETATM   12  N   UNK N   1      26.151  18.102   4.366  0.00  0.00    -0.319 N 
ATOM     13  HN  UNK N   1      26.640  17.736   3.549  1.00  0.00     0.169 HD
BRANCH  12  14
HETATM   14  C   UNK N   1      24.760  18.348   4.257  0.00  0.00     0.084 A 
HETATM   15  C   UNK N   1      23.829  17.464   4.856  0.00  0.00     0.096 A 
HETATM   16  C   UNK N   1      22.441  17.723   4.717  0.00  0.00     0.095 A 
HETATM   17 Cl   UNK N   1      24.444  16.100   5.811  0.00  0.00    -0.079 Cl
HETATM   18  C   UNK N   1      22.034  18.854   4.010  0.00  0.00     0.077 A 
HETATM   19  C   UNK N   1      22.938  19.749   3.438  0.00  0.00     0.095 A 
HETATM   20  C   UNK N   1      24.329  19.496   3.570  0.00  0.00     0.096 A 
HETATM   21 Cl   UNK N   1      25.575  20.563   2.899  0.00  0.00    -0.079 Cl
BRANCH  16  22
HETATM   22  O   UNK N   1      21.454  16.939   5.232  0.00  0.00    -0.354 OA
HETATM   23  C   UNK N   1      20.954  15.775   4.699  0.00  0.00     0.210 C 
ENDBRANCH  16  22
BRANCH  19  24
HETATM   24  O   UNK N   1      22.405  20.813   2.779  0.00  0.00    -0.354 OA
HETATM   25  C   UNK N   1      21.120  20.938   2.308  0.00  0.00     0.210 C 
ENDBRANCH  19  24
ENDBRANCH  12  14
ENDBRANCH  11  12
BRANCH  11  26
HETATM   26  O   UNK N   1      26.640  19.441   6.164  0.00  0.00    -0.332 OA
HETATM   27  H   UNK N   1      26.664  20.376   6.112  0.00  0.00     0.221 HD
ENDBRANCH  11  26
ENDBRANCH   9  11
ENDBRANCH   4   9
BRANCH   3  28
HETATM   28  N   UNK N   1      31.910  17.937   8.355  0.00  0.00    -0.342 N 
HETATM   29  H   UNK N   1      32.247  18.833   8.124  0.00  0.00     0.167 HD
BRANCH  28  30
HETATM   30  C   UNK N   1      32.784  16.879   8.697  0.00  0.00     0.033 A 
HETATM   31  C   UNK N   1      32.338  15.559   8.729  0.00  0.00     0.032 A 
HETATM   32  C   UNK N   1      33.203  14.554   9.176  0.00  0.00     0.031 A 
HETATM   33  C   UNK N   1      34.512  14.873   9.594  0.00  0.00     0.030 A 
HETATM   34  C   UNK N   1      34.958  16.190   9.510  0.00  0.00     0.031 A 
HETATM   35  C   UNK N   1      34.108  17.175   9.062  0.00  0.00     0.032 A 
BRANCH  33  36
HETATM   36  N   UNK N   1      35.355  13.889  10.171  0.00  0.00    -0.378 N 
HETATM   37  C   UNK N   1      36.675  14.248  10.652  0.00  0.00     0.153 C 
HETATM   38  C   UNK N   1      36.705  14.020  12.162  0.00  0.00     0.292 C 
HETATM   39  N   UNK N   1      36.325  12.633  12.438  0.00  0.00     0.091 N 
HETATM   40  C   UNK N   1      34.939  12.415  12.015  0.00  0.00     0.292 C 
HETATM   41  C   UNK N   1      34.839  12.584  10.507  0.00  0.00     0.153 C 
BRANCH  39  42
HETATM   42  C   UNK N   1      36.401  12.412  13.871  0.00  0.00     0.268 C 
HETATM   43  C   UNK N   1      36.438  13.749  14.588  0.00  0.00     0.037 C 
ENDBRANCH  39  42
ENDBRANCH  33  36
ENDBRANCH  28  30
ENDBRANCH   3  28
TORSDOF 11
ENDMDL
MODEL 5
REMARK VINA RESULT:      -7.8      1.367      1.862
REMARK  11 active torsions:
REMARK  status: ('A' for Active; 'I' for Inactive)
REMARK    1  A    between atoms: N_37  and  C_5 
REMARK    2  A    between atoms: N_33  and  C_17 
REMARK    3  A    between atoms: N_38  and  C_18 
REMARK    4  A    between atoms: O_40  and  C_19 
REMARK    5  A    between atoms: O_41  and  C_20 
REMARK    6  A    between atoms: N_33  and  C_21 
REMARK    7  A    between atoms: N_36  and  C_22 
REMARK    8  A    between atoms: N_34  and  C_25 
REMARK    9  A    between atoms: N_34  and  C_26 
REMARK   10  A    between atoms: N_36  and  C_26 
REMARK   11  A    between atoms: O_39  and  C_26 
ROOT
HETATM    1  C   UNK N   1      29.950  17.698   7.206  0.00  0.00     0.097 A 
HETATM    2  C   UNK N   1      28.187  17.601   9.312  0.00  0.00     0.183 A 
HETATM    3  C   UNK N   1      30.409  17.560   8.505  0.00  0.00     0.110 A 
HETATM    4  C   UNK N   1      28.578  17.767   6.980  0.00  0.00     0.114 A 
HETATM    5  N   UNK N   1      29.522  17.552   9.539  0.00  0.00    -0.338 N 
ATOM      6  HN  UNK N   1      29.868  17.507  10.498  1.00  0.00     0.168 HD
HETATM    7  N   UNK N   1      27.726  17.717   8.044  0.00  0.00    -0.338 N 
ATOM      8  HN  UNK N   1      26.720  17.767   7.881  1.00  0.00     0.168 HD
ENDROOT
BRANCH   4   9
HETATM    9  N   UNK N   1      28.083  17.956   5.653  0.00  0.00    -0.303 N 
HETATM   10  C   UNK N   1      28.873  17.516   4.525  0.00  0.00     0.161 C 
BRANCH   9  11
HETATM   11  C   UNK N   1      26.803  18.529   5.406  0.00  0.00     0.225 C 
BRANCH  11  12
HETATM   12  N   UNK N   1      26.088  18.121   4.413  0.00  0.00    -0.319 N 
ATOM     13  HN  UNK N   1      26.544  17.568   3.688  1.00  0.00     0.169 HD
BRANCH  12  14
HETATM   14  C   UNK N   1      24.705  18.394   4.273  0.00  0.00     0.084 A 
HETATM   15  C   UNK N   1      24.270  19.517   3.527  0.00  0.00     0.096 A 
HETATM   16  C   UNK N   1      22.881  19.779   3.416  0.00  0.00     0.095 A 
HETATM   17 Cl   UNK N   1      25.488  20.516   2.707  0.00  0.00    -0.079 Cl
HETATM   18  C   UNK N   1      21.981  18.909   4.031  0.00  0.00     0.077 A 
HETATM   19  C   UNK N   1      22.390  17.784   4.746  0.00  0.00     0.095 A 
HETATM   20  C   UNK N   1      23.780  17.516   4.864  0.00  0.00     0.096 A 
HETATM   21 Cl   UNK N   1      24.425  16.115   5.735  0.00  0.00    -0.079 Cl
BRANCH  16  22
HETATM   22  O   UNK N   1      22.345  20.833   2.741  0.00  0.00    -0.354 OA
HETATM   23  C   UNK N   1      21.065  20.942   2.252  0.00  0.00     0.210 C 
ENDBRANCH  16  22
BRANCH  19  24
HETATM   24  O   UNK N   1      21.406  17.019   5.292  0.00  0.00    -0.354 OA
HETATM   25  C   UNK N   1      20.281  16.544   4.662  0.00  0.00     0.210 C 
ENDBRANCH  19  24
ENDBRANCH  12  14
ENDBRANCH  11  12
BRANCH  11  26
HETATM   26  O   UNK N   1      26.357  19.526   6.206  0.00  0.00    -0.332 OA
HETATM   27  H   UNK N   1      25.603  20.048   6.401  0.00  0.00     0.221 HD
ENDBRANCH  11  26
ENDBRANCH   9  11
ENDBRANCH   4   9
BRANCH   3  28
HETATM   28  N   UNK N   1      31.764  17.831   8.767  0.00  0.00    -0.342 N 
HETATM   29  H   UNK N   1      32.096  18.751   8.879  0.00  0.00     0.167 HD
BRANCH  28  30
HETATM   30  C   UNK N   1      32.625  16.713   8.862  0.00  0.00     0.033 A 
HETATM   31  C   UNK N   1      32.121  15.413   8.845  0.00  0.00     0.032 A 
HETATM   32  C   UNK N   1      32.993  14.338   9.049  0.00  0.00     0.031 A 
HETATM   33  C   UNK N   1      34.367  14.565   9.274  0.00  0.00     0.030 A 
HETATM   34  C   UNK N   1      34.862  15.867   9.239  0.00  0.00     0.031 A 
HETATM   35  C   UNK N   1      34.004  16.922   9.030  0.00  0.00     0.032 A 
BRANCH  33  36
HETATM   36  N   UNK N   1      35.239  13.499   9.612  0.00  0.00    -0.378 N 
HETATM   37  C   UNK N   1      36.673  13.712   9.651  0.00  0.00     0.153 C 
HETATM   38  C   UNK N   1      37.142  13.499  11.089  0.00  0.00     0.292 C 
HETATM   39  N   UNK N   1      36.723  12.168  11.531  0.00  0.00     0.091 N 
HETATM   40  C   UNK N   1      35.258  12.104  11.560  0.00  0.00     0.292 C 
HETATM   41  C   UNK N   1      34.718  12.266  10.148  0.00  0.00     0.153 C 
BRANCH  39  42
HETATM   42  C   UNK N   1      37.212  11.956  12.881  0.00  0.00     0.268 C 
HETATM   43  C   UNK N   1      36.574  12.969  13.815  0.00  0.00     0.037 C 
ENDBRANCH  39  42
ENDBRANCH  33  36
ENDBRANCH  28  30
ENDBRANCH   3  28
TORSDOF 11
ENDMDL
MODEL 6
REMARK VINA RESULT:      -7.8      1.338      2.761
REMARK  11 active torsions:
REMARK  status: ('A' for Active; 'I' for Inactive)
REMARK    1  A    between atoms: N_37  and  C_5 
REMARK    2  A    between atoms: N_33  and  C_17 
REMARK    3  A    between atoms: N_38  and  C_18 
REMARK    4  A    between atoms: O_40  and  C_19 
REMARK    5  A    between atoms: O_41  and  C_20 
REMARK    6  A    between atoms: N_33  and  C_21 
REMARK    7  A    between atoms: N_36  and  C_22 
REMARK    8  A    between atoms: N_34  and  C_25 
REMARK    9  A    between atoms: N_34  and  C_26 
REMARK   10  A    between atoms: N_36  and  C_26 
REMARK   11  A    between atoms: O_39  and  C_26 
ROOT
HETATM    1  C   UNK N   1      29.523  16.980   6.451  0.00  0.00     0.097 A 
HETATM    2  C   UNK N   1      28.755  18.137   8.822  0.00  0.00     0.183 A 
HETATM    3  C   UNK N   1      30.462  17.302   7.417  0.00  0.00     0.110 A 
HETATM    4  C   UNK N   1      28.179  17.233   6.707  0.00  0.00     0.114 A 
HETATM    5  N   UNK N   1      30.065  17.909   8.570  0.00  0.00    -0.338 N 
ATOM      6  HN  UNK N   1      30.766  18.195   9.254  1.00  0.00     0.168 HD
HETATM    7  N   UNK N   1      27.826  17.809   7.892  0.00  0.00    -0.338 N 
ATOM      8  HN  UNK N   1      26.841  17.996   8.082  1.00  0.00     0.168 HD
ENDROOT
BRANCH   4   9
HETATM    9  N   UNK N   1      27.197  16.953   5.707  0.00  0.00    -0.303 N 
HETATM   10  C   UNK N   1      27.143  15.640   5.105  0.00  0.00     0.161 C 
BRANCH   9  11
HETATM   11  C   UNK N   1      26.232  17.923   5.314  0.00  0.00     0.225 C 
BRANCH  11  12
HETATM   12  N   UNK N   1      25.377  17.651   4.387  0.00  0.00    -0.319 N 
ATOM     13  HN  UNK N   1      25.708  17.162   3.555  1.00  0.00     0.169 HD
BRANCH  12  14
HETATM   14  C   UNK N   1      24.003  17.990   4.459  0.00  0.00     0.084 A 
HETATM   15  C   UNK N   1      23.112  17.206   5.233  0.00  0.00     0.096 A 
HETATM   16  C   UNK N   1      21.738  17.556   5.274  0.00  0.00     0.095 A 
HETATM   17 Cl   UNK N   1      23.770  15.851   6.173  0.00  0.00    -0.079 Cl
HETATM   18  C   UNK N   1      21.308  18.677   4.565  0.00  0.00     0.077 A 
HETATM   19  C   UNK N   1      22.175  19.475   3.820  0.00  0.00     0.095 A 
HETATM   20  C   UNK N   1      23.552  19.130   3.771  0.00  0.00     0.096 A 
HETATM   21 Cl   UNK N   1      24.754  20.070   2.871  0.00  0.00    -0.079 Cl
BRANCH  16  22
HETATM   22  O   UNK N   1      20.788  16.872   5.969  0.00  0.00    -0.354 OA
HETATM   23  C   UNK N   1      20.447  17.035   7.291  0.00  0.00     0.210 C 
ENDBRANCH  16  22
BRANCH  19  24
HETATM   24  O   UNK N   1      21.622  20.540   3.179  0.00  0.00    -0.354 OA
HETATM   25  C   UNK N   1      21.070  20.555   1.922  0.00  0.00     0.210 C 
ENDBRANCH  19  24
ENDBRANCH  12  14
ENDBRANCH  11  12
BRANCH  11  26
HETATM   26  O   UNK N   1      26.239  19.143   5.901  0.00  0.00    -0.332 OA
HETATM   27  H   UNK N   1      25.801  19.666   6.543  0.00  0.00     0.221 HD
ENDBRANCH  11  26
ENDBRANCH   9  11
ENDBRANCH   4   9
BRANCH   3  28
HETATM   28  N   UNK N   1      31.815  17.367   7.038  0.00  0.00    -0.342 N 
HETATM   29  H   UNK N   1      32.087  17.675   6.143  0.00  0.00     0.167 HD
BRANCH  28  30
HETATM   30  C   UNK N   1      32.763  16.969   8.008  0.00  0.00     0.033 A 
HETATM   31  C   UNK N   1      33.800  17.819   8.392  0.00  0.00     0.032 A 
HETATM   32  C   UNK N   1      34.779  17.348   9.274  0.00  0.00     0.031 A 
HETATM   33  C   UNK N   1      34.722  16.028   9.767  0.00  0.00     0.030 A 
HETATM   34  C   UNK N   1      33.653  15.209   9.413  0.00  0.00     0.031 A 
HETATM   35  C   UNK N   1      32.686  15.676   8.551  0.00  0.00     0.032 A 
BRANCH  33  36
HETATM   36  N   UNK N   1      35.773  15.495  10.556  0.00  0.00    -0.378 N 
HETATM   37  C   UNK N   1      35.693  15.531  12.003  0.00  0.00     0.153 C 
HETATM   38  C   UNK N   1      35.651  14.091  12.509  0.00  0.00     0.292 C 
HETATM   39  N   UNK N   1      36.818  13.374  11.992  0.00  0.00     0.091 N 
HETATM   40  C   UNK N   1      36.737  13.301  10.530  0.00  0.00     0.292 C 
HETATM   41  C   UNK N   1      36.817  14.704   9.950  0.00  0.00     0.153 C 
BRANCH  39  42
HETATM   42  C   UNK N   1      36.795  12.019  12.514  0.00  0.00     0.268 C 
HETATM   43  C   UNK N   1      37.088  12.046  14.004  0.00  0.00     0.037 C 
ENDBRANCH  39  42
ENDBRANCH  33  36
ENDBRANCH  28  30
ENDBRANCH   3  28
TORSDOF 11
ENDMDL
MODEL 7
REMARK VINA RESULT:      -7.8      5.130      9.740
REMARK  11 active torsions:
REMARK  status: ('A' for Active; 'I' for Inactive)
REMARK    1  A    between atoms: N_37  and  C_5 
REMARK    2  A    between atoms: N_33  and  C_17 
REMARK    3  A    between atoms: N_38  and  C_18 
REMARK    4  A    between atoms: O_40  and  C_19 
REMARK    5  A    between atoms: O_41  and  C_20 
REMARK    6  A    between atoms: N_33  and  C_21 
REMARK    7  A    between atoms: N_36  and  C_22 
REMARK    8  A    between atoms: N_34  and  C_25 
REMARK    9  A    between atoms: N_34  and  C_26 
REMARK   10  A    between atoms: N_36  and  C_26 
REMARK   11  A    between atoms: O_39  and  C_26 
ROOT
HETATM    1  C   UNK N   1      36.001  14.166  12.420  0.00  0.00     0.097 A 
HETATM    2  C   UNK N   1      34.867  11.764  11.716  0.00  0.00     0.183 A 
HETATM    3  C   UNK N   1      36.378  12.994  13.054  0.00  0.00     0.110 A 
HETATM    4  C   UNK N   1      35.052  14.107  11.404  0.00  0.00     0.114 A 
HETATM    5  N   UNK N   1      35.778  11.819  12.717  0.00  0.00    -0.338 N 
ATOM      6  HN  UNK N   1      36.019  10.968  13.225  1.00  0.00     0.168 HD
HETATM    7  N   UNK N   1      34.505  12.901  11.076  0.00  0.00    -0.338 N 
ATOM      8  HN  UNK N   1      33.809  12.856  10.332  1.00  0.00     0.168 HD
ENDROOT
BRANCH   4   9
HETATM    9  N   UNK N   1      34.613  15.309  10.768  0.00  0.00    -0.303 N 
HETATM   10  C   UNK N   1      35.375  16.525  10.933  0.00  0.00     0.161 C 
BRANCH   9  11
HETATM   11  C   UNK N   1      33.461  15.335   9.931  0.00  0.00     0.225 C 
BRANCH  11  12
HETATM   12  N   UNK N   1      33.561  15.702   8.699  0.00  0.00    -0.319 N 
ATOM     13  HN  UNK N   1      34.461  16.055   8.373  1.00  0.00     0.169 HD
BRANCH  12  14
HETATM   14  C   UNK N   1      32.492  15.642   7.770  0.00  0.00     0.084 A 
HETATM   15  C   UNK N   1      31.633  16.755   7.596  0.00  0.00     0.096 A 
HETATM   16  C   UNK N   1      30.560  16.664   6.673  0.00  0.00     0.095 A 
HETATM   17 Cl   UNK N   1      31.977  18.244   8.500  0.00  0.00    -0.079 Cl
HETATM   18  C   UNK N   1      30.396  15.485   5.947  0.00  0.00     0.077 A 
HETATM   19  C   UNK N   1      31.248  14.390   6.086  0.00  0.00     0.095 A 
HETATM   20  C   UNK N   1      32.323  14.472   7.010  0.00  0.00     0.096 A 
HETATM   21 Cl   UNK N   1      33.480  13.156   7.268  0.00  0.00    -0.079 Cl
BRANCH  16  22
HETATM   22  O   UNK N   1      29.663  17.658   6.432  0.00  0.00    -0.354 OA
HETATM   23  C   UNK N   1      28.537  17.957   7.163  0.00  0.00     0.210 C 
ENDBRANCH  16  22
BRANCH  19  24
HETATM   24  O   UNK N   1      30.974  13.304   5.313  0.00  0.00    -0.354 OA
HETATM   25  C   UNK N   1      31.653  12.893   4.192  0.00  0.00     0.210 C 
ENDBRANCH  19  24
ENDBRANCH  12  14
ENDBRANCH  11  12
BRANCH  11  26
HETATM   26  O   UNK N   1      32.256  14.998  10.450  0.00  0.00    -0.332 OA
HETATM   27  H   UNK N   1      31.449  15.359  10.762  0.00  0.00     0.221 HD
ENDBRANCH  11  26
ENDBRANCH   9  11
ENDBRANCH   4   9
BRANCH   3  28
HETATM   28  N   UNK N   1      37.061  13.087  14.281  0.00  0.00    -0.342 N 
HETATM   29  H   UNK N   1      37.837  13.682  14.397  0.00  0.00     0.167 HD
BRANCH  28  30
HETATM   30  C   UNK N   1      36.574  12.283  15.338  0.00  0.00     0.033 A 
HETATM   31  C   UNK N   1      35.674  12.792  16.273  0.00  0.00     0.032 A 
HETATM   32  C   UNK N   1      35.300  12.000  17.364  0.00  0.00     0.031 A 
HETATM   33  C   UNK N   1      35.830  10.703  17.520  0.00  0.00     0.030 A 
HETATM   34  C   UNK N   1      36.690  10.192  16.551  0.00  0.00     0.031 A 
HETATM   35  C   UNK N   1      37.051  10.969  15.474  0.00  0.00     0.032 A 
BRANCH  33  36
HETATM   36  N   UNK N   1      35.564   9.939  18.685  0.00  0.00    -0.378 N 
HETATM   37  C   UNK N   1      35.728  10.528  19.999  0.00  0.00     0.153 C 
HETATM   38  C   UNK N   1      34.357  10.564  20.674  0.00  0.00     0.292 C 
HETATM   39  N   UNK N   1      33.803   9.210  20.691  0.00  0.00     0.091 N 
HETATM   40  C   UNK N   1      33.574   8.760  19.315  0.00  0.00     0.292 C 
HETATM   41  C   UNK N   1      34.907   8.658  18.589  0.00  0.00     0.153 C 
BRANCH  39  42
HETATM   42  C   UNK N   1      32.522   9.245  21.374  0.00  0.00     0.268 C 
HETATM   43  C   UNK N   1      31.430   8.790  20.423  0.00  0.00     0.037 C 
ENDBRANCH  39  42
ENDBRANCH  33  36
ENDBRANCH  28  30
ENDBRANCH   3  28
TORSDOF 11
ENDMDL
MODEL 8
REMARK VINA RESULT:      -7.6      5.319      9.571
REMARK  11 active torsions:
REMARK  status: ('A' for Active; 'I' for Inactive)
REMARK    1  A    between atoms: N_37  and  C_5 
REMARK    2  A    between atoms: N_33  and  C_17 
REMARK    3  A    between atoms: N_38  and  C_18 
REMARK    4  A    between atoms: O_40  and  C_19 
REMARK    5  A    between atoms: O_41  and  C_20 
REMARK    6  A    between atoms: N_33  and  C_21 
REMARK    7  A    between atoms: N_36  and  C_22 
REMARK    8  A    between atoms: N_34  and  C_25 
REMARK    9  A    between atoms: N_34  and  C_26 
REMARK   10  A    between atoms: N_36  and  C_26 
REMARK   11  A    between atoms: O_39  and  C_26 
ROOT
HETATM    1  C   UNK N   1      20.150  17.843   3.703  0.00  0.00     0.097 A 
HETATM    2  C   UNK N   1      19.950  17.254   1.026  0.00  0.00     0.183 A 
HETATM    3  C   UNK N   1      20.497  18.781   2.746  0.00  0.00     0.110 A 
HETATM    4  C   UNK N   1      19.678  16.601   3.289  0.00  0.00     0.114 A 
HETATM    5  N   UNK N   1      20.427  18.458   1.425  0.00  0.00    -0.338 N 
ATOM      6  HN  UNK N   1      20.736  19.133   0.725  1.00  0.00     0.168 HD
HETATM    7  N   UNK N   1      19.590  16.335   1.954  0.00  0.00    -0.338 N 
ATOM      8  HN  UNK N   1      19.245  15.425   1.648  1.00  0.00     0.168 HD
ENDROOT
BRANCH   4   9
HETATM    9  N   UNK N   1      19.359  15.600   4.258  0.00  0.00    -0.303 N 
HETATM   10  C   UNK N   1      19.161  14.232   3.836  0.00  0.00     0.161 C 
BRANCH   9  11
HETATM   11  C   UNK N   1      19.274  15.904   5.647  0.00  0.00     0.225 C 
BRANCH  11  12
HETATM   12  N   UNK N   1      20.346  16.005   6.357  0.00  0.00    -0.319 N 
ATOM     13  HN  UNK N   1      20.745  16.934   6.496  1.00  0.00     0.169 HD
BRANCH  12  14
HETATM   14  C   UNK N   1      21.000  14.901   6.958  0.00  0.00     0.084 A 
HETATM   15  C   UNK N   1      22.022  14.211   6.263  0.00  0.00     0.096 A 
HETATM   16  C   UNK N   1      22.649  13.098   6.879  0.00  0.00     0.095 A 
HETATM   17 Cl   UNK N   1      22.519  14.810   4.666  0.00  0.00    -0.079 Cl
HETATM   18  C   UNK N   1      22.253  12.729   8.164  0.00  0.00     0.077 A 
HETATM   19  C   UNK N   1      21.268  13.415   8.874  0.00  0.00     0.095 A 
HETATM   20  C   UNK N   1      20.633  14.528   8.263  0.00  0.00     0.096 A 
HETATM   21 Cl   UNK N   1      19.377  15.488   9.065  0.00  0.00    -0.079 Cl
BRANCH  16  22
HETATM   22  O   UNK N   1      23.629  12.348   6.305  0.00  0.00    -0.354 OA
HETATM   23  C   UNK N   1      23.479  11.387   5.333  0.00  0.00     0.210 C 
ENDBRANCH  16  22
BRANCH  19  24
HETATM   24  O   UNK N   1      20.981  12.950  10.121  0.00  0.00    -0.354 OA
HETATM   25  C   UNK N   1      21.824  12.267  10.964  0.00  0.00     0.210 C 
ENDBRANCH  19  24
ENDBRANCH  12  14
ENDBRANCH  11  12
BRANCH  11  26
HETATM   26  O   UNK N   1      18.056  16.056   6.219  0.00  0.00    -0.332 OA
HETATM   27  H   UNK N   1      17.493  16.688   6.622  0.00  0.00     0.221 HD
ENDBRANCH  11  26
ENDBRANCH   9  11
ENDBRANCH   4   9
BRANCH   3  28
HETATM   28  N   UNK N   1      21.279  19.881   3.141  0.00  0.00    -0.342 N 
HETATM   29  H   UNK N   1      20.890  20.778   3.260  0.00  0.00     0.167 HD
BRANCH  28  30
HETATM   30  C   UNK N   1      22.655  19.633   3.359  0.00  0.00     0.033 A 
HETATM   31  C   UNK N   1      23.079  18.519   4.082  0.00  0.00     0.032 A 
HETATM   32  C   UNK N   1      24.440  18.366   4.368  0.00  0.00     0.031 A 
HETATM   33  C   UNK N   1      25.374  19.330   3.934  0.00  0.00     0.030 A 
HETATM   34  C   UNK N   1      24.939  20.412   3.171  0.00  0.00     0.031 A 
HETATM   35  C   UNK N   1      23.601  20.556   2.885  0.00  0.00     0.032 A 
BRANCH  33  36
HETATM   36  N   UNK N   1      26.735  19.259   4.326  0.00  0.00    -0.378 N 
HETATM   37  C   UNK N   1      27.299  20.272   5.198  0.00  0.00     0.153 C 
HETATM   38  C   UNK N   1      27.712  19.594   6.503  0.00  0.00     0.292 C 
HETATM   39  N   UNK N   1      28.626  18.493   6.195  0.00  0.00     0.091 N 
HETATM   40  C   UNK N   1      27.919  17.478   5.409  0.00  0.00     0.292 C 
HETATM   41  C   UNK N   1      27.512  18.072   4.069  0.00  0.00     0.153 C 
BRANCH  39  42
HETATM   42  C   UNK N   1      29.050  17.884   7.443  0.00  0.00     0.268 C 
HETATM   43  C   UNK N   1      28.283  18.508   8.596  0.00  0.00     0.037 C 
ENDBRANCH  39  42
ENDBRANCH  33  36
ENDBRANCH  28  30
ENDBRANCH   3  28
TORSDOF 11
ENDMDL
MODEL 9
REMARK VINA RESULT:      -7.6      5.142      9.155
REMARK  11 active torsions:
REMARK  status: ('A' for Active; 'I' for Inactive)
REMARK    1  A    between atoms: N_37  and  C_5 
REMARK    2  A    between atoms: N_33  and  C_17 
REMARK    3  A    between atoms: N_38  and  C_18 
REMARK    4  A    between atoms: O_40  and  C_19 
REMARK    5  A    between atoms: O_41  and  C_20 
REMARK    6  A    between atoms: N_33  and  C_21 
REMARK    7  A    between atoms: N_36  and  C_22 
REMARK    8  A    between atoms: N_34  and  C_25 
REMARK    9  A    between atoms: N_34  and  C_26 
REMARK   10  A    between atoms: N_36  and  C_26 
REMARK   11  A    between atoms: O_39  and  C_26 
ROOT
HETATM    1  C   UNK N   1      20.219  17.940   3.471  0.00  0.00     0.097 A 
HETATM    2  C   UNK N   1      20.009  17.699   0.741  0.00  0.00     0.183 A 
HETATM    3  C   UNK N   1      20.569  18.990   2.640  0.00  0.00     0.110 A 
HETATM    4  C   UNK N   1      19.738  16.763   2.903  0.00  0.00     0.114 A 
HETATM    5  N   UNK N   1      20.493  18.839   1.288  0.00  0.00    -0.338 N 
ATOM      6  HN  UNK N   1      20.805  19.596   0.679  1.00  0.00     0.168 HD
HETATM    7  N   UNK N   1      19.645  16.671   1.545  0.00  0.00    -0.338 N 
ATOM      8  HN  UNK N   1      19.293  15.810   1.127  1.00  0.00     0.168 HD
ENDROOT
BRANCH   4   9
HETATM    9  N   UNK N   1      19.415  15.649   3.737  0.00  0.00    -0.303 N 
HETATM   10  C   UNK N   1      18.907  15.877   5.071  0.00  0.00     0.161 C 
BRANCH   9  11
HETATM   11  C   UNK N   1      19.537  14.308   3.274  0.00  0.00     0.225 C 
BRANCH  11  12
HETATM   12  N   UNK N   1      20.500  13.560   3.694  0.00  0.00    -0.319 N 
ATOM     13  HN  UNK N   1      20.315  12.565   3.826  1.00  0.00     0.169 HD
BRANCH  12  14
HETATM   14  C   UNK N   1      21.802  14.040   3.983  0.00  0.00     0.084 A 
HETATM   15  C   UNK N   1      22.666  14.437   2.933  0.00  0.00     0.096 A 
HETATM   16  C   UNK N   1      23.970  14.897   3.246  0.00  0.00     0.095 A 
HETATM   17 Cl   UNK N   1      22.052  14.402   1.267  0.00  0.00    -0.079 Cl
HETATM   18  C   UNK N   1      24.357  14.964   4.584  0.00  0.00     0.077 A 
HETATM   19  C   UNK N   1      23.510  14.602   5.631  0.00  0.00     0.095 A 
HETATM   20  C   UNK N   1      22.203  14.138   5.326  0.00  0.00     0.096 A 
HETATM   21 Cl   UNK N   1      21.031  13.660   6.566  0.00  0.00    -0.079 Cl
BRANCH  16  22
HETATM   22  O   UNK N   1      24.892  15.291   2.325  0.00  0.00    -0.354 OA
HETATM   23  C   UNK N   1      26.193  14.860   2.216  0.00  0.00     0.210 C 
ENDBRANCH  16  22
BRANCH  19  24
HETATM   24  O   UNK N   1      24.014  14.719   6.890  0.00  0.00    -0.354 OA
HETATM   25  C   UNK N   1      25.138  14.108   7.392  0.00  0.00     0.210 C 
ENDBRANCH  19  24
ENDBRANCH  12  14
ENDBRANCH  11  12
BRANCH  11  26
HETATM   26  O   UNK N   1      18.649  13.835   2.368  0.00  0.00    -0.332 OA
HETATM   27  H   UNK N   1      18.503  13.140   1.757  0.00  0.00     0.221 HD
ENDBRANCH  11  26
ENDBRANCH   9  11
ENDBRANCH   4   9
BRANCH   3  28
HETATM   28  N   UNK N   1      21.360  20.027   3.170  0.00  0.00    -0.342 N 
HETATM   29  H   UNK N   1      20.982  20.913   3.373  0.00  0.00     0.167 HD
BRANCH  28  30
HETATM   30  C   UNK N   1      22.724  19.729   3.395  0.00  0.00     0.033 A 
HETATM   31  C   UNK N   1      23.103  18.667   4.215  0.00  0.00     0.032 A 
HETATM   32  C   UNK N   1      24.459  18.472   4.499  0.00  0.00     0.031 A 
HETATM   33  C   UNK N   1      25.433  19.341   3.964  0.00  0.00     0.030 A 
HETATM   34  C   UNK N   1      25.042  20.367   3.107  0.00  0.00     0.031 A 
HETATM   35  C   UNK N   1      23.708  20.553   2.823  0.00  0.00     0.032 A 
BRANCH  33  36
HETATM   36  N   UNK N   1      26.795  19.237   4.346  0.00  0.00    -0.378 N 
HETATM   37  C   UNK N   1      27.373  20.199   5.264  0.00  0.00     0.153 C 
HETATM   38  C   UNK N   1      27.785  19.453   6.532  0.00  0.00     0.292 C 
HETATM   39  N   UNK N   1      28.687  18.360   6.165  0.00  0.00     0.091 N 
HETATM   40  C   UNK N   1      27.966  17.393   5.333  0.00  0.00     0.292 C 
HETATM   41  C   UNK N   1      27.559  18.056   4.026  0.00  0.00     0.153 C 
BRANCH  39  42
HETATM   42  C   UNK N   1      29.109  17.685   7.379  0.00  0.00     0.268 C 
HETATM   43  C   UNK N   1      28.732  18.528   8.584  0.00  0.00     0.037 C 
ENDBRANCH  39  42
ENDBRANCH  33  36
ENDBRANCH  28  30
ENDBRANCH   3  28
TORSDOF 11
ENDMDL
