MODEL 1
REMARK VINA RESULT:      -7.2      0.000      0.000
REMARK  2 active torsions:
REMARK  status: ('A' for Active; 'I' for Inactive)
REMARK    1  A    between atoms: C_1  and  C_2 
REMARK    2  A    between atoms: C_1  and  C_11 
ROOT
HETATM    1  C   UNK N   1      29.137  16.597   6.360  0.00  0.00     0.082 C 
ENDROOT
BRANCH   1   2
HETATM    2  C   UNK N   1      28.473  17.611   5.451  0.00  0.00    -0.026 A 
HETATM    3  C   UNK N   1      28.345  17.390   4.082  0.00  0.00     0.096 A 
HETATM    4  N   UNK N   1      27.715  18.438   3.497  0.00  0.00    -0.365 N 
HETATM    5  C   UNK N   1      27.453  19.314   4.480  0.00  0.00     0.042 A 
HETATM    6  H   UNK N   1      27.494  18.537   2.542  0.00  0.00     0.165 HD
HETATM    7  C   UNK N   1      26.809  20.542   4.345  0.00  0.00     0.030 A 
HETATM    8  C   UNK N   1      27.902  18.854   5.687  0.00  0.00    -0.002 A 
HETATM    9  C   UNK N   1      26.629  21.321   5.501  0.00  0.00     0.002 A 
HETATM   10  C   UNK N   1      27.097  20.860   6.747  0.00  0.00     0.001 A 
HETATM   11  C   UNK N   1      27.742  19.617   6.842  0.00  0.00     0.014 A 
ENDBRANCH   1   2
BRANCH   1  12
HETATM   12  C   UNK N   1      30.176  16.988   7.380  0.00  0.00    -0.026 A 
HETATM   13  C   UNK N   1      30.041  17.196   8.748  0.00  0.00     0.096 A 
HETATM   14  N   UNK N   1      31.235  17.538   9.290  0.00  0.00    -0.365 N 
HETATM   15  C   UNK N   1      32.111  17.536   8.276  0.00  0.00     0.042 A 
HETATM   16  H   UNK N   1      31.421  17.745  10.234  0.00  0.00     0.165 HD
HETATM   17  C   UNK N   1      33.470  17.825   8.349  0.00  0.00     0.030 A 
HETATM   18  C   UNK N   1      31.504  17.200   7.099  0.00  0.00    -0.002 A 
HETATM   19  C   UNK N   1      34.216  17.759   7.159  0.00  0.00     0.002 A 
HETATM   20  C   UNK N   1      33.590  17.409   5.940  0.00  0.00     0.001 A 
HETATM   21  C   UNK N   1      32.211  17.125   5.903  0.00  0.00     0.014 A 
ENDBRANCH   1  12
TORSDOF 2
ENDMDL
MODEL 2
REMARK VINA RESULT:      -7.2      1.765      5.508
REMARK  2 active torsions:
REMARK  status: ('A' for Active; 'I' for Inactive)
REMARK    1  A    between atoms: C_1  and  C_2 
REMARK    2  A    between atoms: C_1  and  C_11 
ROOT
HETATM    1  C   UNK N   1      29.201  16.455   6.469  0.00  0.00     0.082 C 
ENDROOT
BRANCH   1   2
HETATM    2  C   UNK N   1      30.681  16.458   6.149  0.00  0.00    -0.026 A 
HETATM    3  C   UNK N   1      31.178  15.866   4.990  0.00  0.00     0.096 A 
HETATM    4  N   UNK N   1      32.525  16.007   4.934  0.00  0.00    -0.365 N 
HETATM    5  C   UNK N   1      32.878  16.676   6.044  0.00  0.00     0.042 A 
HETATM    6  H   UNK N   1      33.125  15.686   4.222  0.00  0.00     0.165 HD
HETATM    7  C   UNK N   1      34.169  17.051   6.410  0.00  0.00     0.030 A 
HETATM    8  C   UNK N   1      31.787  16.966   6.816  0.00  0.00    -0.002 A 
HETATM    9  C   UNK N   1      34.333  17.749   7.619  0.00  0.00     0.002 A 
HETATM   10  C   UNK N   1      33.216  18.043   8.425  0.00  0.00     0.001 A 
HETATM   11  C   UNK N   1      31.932  17.647   8.023  0.00  0.00     0.014 A 
ENDBRANCH   1   2
BRANCH   1  12
HETATM   12  C   UNK N   1      28.505  17.646   7.076  0.00  0.00    -0.026 A 
HETATM   13  C   UNK N   1      28.156  17.890   8.399  0.00  0.00     0.096 A 
HETATM   14  N   UNK N   1      27.539  19.091   8.508  0.00  0.00    -0.365 N 
HETATM   15  C   UNK N   1      27.509  19.601   7.269  0.00  0.00     0.042 A 
HETATM   16  H   UNK N   1      27.186  19.506   9.328  0.00  0.00     0.165 HD
HETATM   17  C   UNK N   1      26.971  20.825   6.885  0.00  0.00     0.030 A 
HETATM   18  C   UNK N   1      28.092  18.751   6.372  0.00  0.00    -0.002 A 
HETATM   19  C   UNK N   1      27.049  21.173   5.524  0.00  0.00     0.002 A 
HETATM   20  C   UNK N   1      27.655  20.297   4.594  0.00  0.00     0.001 A 
HETATM   21  C   UNK N   1      28.186  19.064   5.018  0.00  0.00     0.014 A 
ENDBRANCH   1  12
TORSDOF 2
ENDMDL
MODEL 3
REMARK VINA RESULT:      -7.1      1.738      2.690
REMARK  2 active torsions:
REMARK  status: ('A' for Active; 'I' for Inactive)
REMARK    1  A    between atoms: C_1  and  C_2 
REMARK    2  A    between atoms: C_1  and  C_11 
ROOT
HETATM    1  C   UNK N   1      29.209  16.464   6.471  0.00  0.00     0.082 C 
ENDROOT
BRANCH   1   2
HETATM    2  C   UNK N   1      28.494  17.721   6.920  0.00  0.00    -0.026 A 
HETATM    3  C   UNK N   1      28.181  17.944   8.259  0.00  0.00     0.096 A 
HETATM    4  N   UNK N   1      27.550  19.135   8.400  0.00  0.00    -0.365 N 
HETATM    5  C   UNK N   1      27.459  19.659   7.166  0.00  0.00     0.042 A 
HETATM    6  H   UNK N   1      27.224  19.537   9.237  0.00  0.00     0.165 HD
HETATM    7  C   UNK N   1      26.886  20.882   6.826  0.00  0.00     0.030 A 
HETATM    8  C   UNK N   1      28.016  18.828   6.233  0.00  0.00    -0.002 A 
HETATM    9  C   UNK N   1      26.888  21.254   5.470  0.00  0.00     0.002 A 
HETATM   10  C   UNK N   1      27.450  20.401   4.501  0.00  0.00     0.001 A 
HETATM   11  C   UNK N   1      28.018  19.176   4.883  0.00  0.00     0.014 A 
ENDBRANCH   1   2
BRANCH   1  12
HETATM   12  C   UNK N   1      30.617  16.487   5.931  0.00  0.00    -0.026 A 
HETATM   13  C   UNK N   1      31.102  16.061   4.701  0.00  0.00     0.096 A 
HETATM   14  N   UNK N   1      32.440  16.264   4.628  0.00  0.00    -0.365 N 
HETATM   15  C   UNK N   1      32.790  16.819   5.796  0.00  0.00     0.042 A 
HETATM   16  H   UNK N   1      33.033  16.048   3.873  0.00  0.00     0.165 HD
HETATM   17  C   UNK N   1      34.068  17.208   6.184  0.00  0.00     0.030 A 
HETATM   18  C   UNK N   1      31.706  16.975   6.613  0.00  0.00    -0.002 A 
HETATM   19  C   UNK N   1      34.217  17.780   7.461  0.00  0.00     0.002 A 
HETATM   20  C   UNK N   1      33.095  17.945   8.306  0.00  0.00     0.001 A 
HETATM   21  C   UNK N   1      31.816  17.537   7.882  0.00  0.00     0.014 A 
ENDBRANCH   1  12
TORSDOF 2
ENDMDL
MODEL 4
REMARK VINA RESULT:      -7.0      1.922      2.891
REMARK  2 active torsions:
REMARK  status: ('A' for Active; 'I' for Inactive)
REMARK    1  A    between atoms: C_1  and  C_2 
REMARK    2  A    between atoms: C_1  and  C_11 
ROOT
HETATM    1  C   UNK N   1      29.620  17.003   7.224  0.00  0.00     0.082 C 
ENDROOT
BRANCH   1   2
HETATM    2  C   UNK N   1      28.652  18.167   7.266  0.00  0.00    -0.026 A 
HETATM    3  C   UNK N   1      28.137  18.645   8.468  0.00  0.00     0.096 A 
HETATM    4  N   UNK N   1      27.302  19.687   8.238  0.00  0.00    -0.365 N 
HETATM    5  C   UNK N   1      27.284  19.865   6.907  0.00  0.00     0.042 A 
HETATM    6  H   UNK N   1      26.809  20.210   8.911  0.00  0.00     0.165 HD
HETATM    7  C   UNK N   1      26.562  20.832   6.210  0.00  0.00     0.030 A 
HETATM    8  C   UNK N   1      28.088  18.957   6.274  0.00  0.00    -0.002 A 
HETATM    9  C   UNK N   1      26.676  20.855   4.809  0.00  0.00     0.002 A 
HETATM   10  C   UNK N   1      27.493  19.917   4.148  0.00  0.00     0.001 A 
HETATM   11  C   UNK N   1      28.204  18.958   4.886  0.00  0.00     0.014 A 
ENDBRANCH   1   2
BRANCH   1  12
HETATM   12  C   UNK N   1      31.041  17.153   6.745  0.00  0.00    -0.026 A 
HETATM   13  C   UNK N   1      32.193  17.446   7.465  0.00  0.00     0.096 A 
HETATM   14  N   UNK N   1      33.265  17.490   6.637  0.00  0.00    -0.365 N 
HETATM   15  C   UNK N   1      32.793  17.219   5.413  0.00  0.00     0.042 A 
HETATM   16  H   UNK N   1      34.199  17.681   6.884  0.00  0.00     0.165 HD
HETATM   17  C   UNK N   1      33.528  17.150   4.233  0.00  0.00     0.030 A 
HETATM   18  C   UNK N   1      31.444  17.004   5.440  0.00  0.00    -0.002 A 
HETATM   19  C   UNK N   1      32.833  16.844   3.049  0.00  0.00     0.002 A 
HETATM   20  C   UNK N   1      31.438  16.617   3.076  0.00  0.00     0.001 A 
HETATM   21  C   UNK N   1      30.725  16.698   4.288  0.00  0.00     0.014 A 
ENDBRANCH   1  12
TORSDOF 2
ENDMDL
MODEL 5
REMARK VINA RESULT:      -6.9      0.492      6.074
REMARK  2 active torsions:
REMARK  status: ('A' for Active; 'I' for Inactive)
REMARK    1  A    between atoms: C_1  and  C_2 
REMARK    2  A    between atoms: C_1  and  C_11 
ROOT
HETATM    1  C   UNK N   1      28.662  16.765   6.966  0.00  0.00     0.082 C 
ENDROOT
BRANCH   1   2
HETATM    2  C   UNK N   1      30.037  17.076   7.518  0.00  0.00    -0.026 A 
HETATM    3  C   UNK N   1      30.246  17.292   8.878  0.00  0.00     0.096 A 
HETATM    4  N   UNK N   1      31.556  17.545   9.116  0.00  0.00    -0.365 N 
HETATM    5  C   UNK N   1      32.169  17.496   7.923  0.00  0.00     0.042 A 
HETATM    6  H   UNK N   1      31.974  17.729   9.988  0.00  0.00     0.165 HD
HETATM    7  C   UNK N   1      33.527  17.692   7.680  0.00  0.00     0.030 A 
HETATM    8  C   UNK N   1      31.281  17.219   6.920  0.00  0.00    -0.002 A 
HETATM    9  C   UNK N   1      33.979  17.600   6.352  0.00  0.00     0.002 A 
HETATM   10  C   UNK N   1      33.070  17.324   5.312  0.00  0.00     0.001 A 
HETATM   11  C   UNK N   1      31.709  17.134   5.596  0.00  0.00     0.014 A 
ENDBRANCH   1   2
BRANCH   1  12
HETATM   12  C   UNK N   1      28.069  17.522   5.805  0.00  0.00    -0.026 A 
HETATM   13  C   UNK N   1      27.798  17.091   4.512  0.00  0.00     0.096 A 
HETATM   14  N   UNK N   1      27.265  18.102   3.783  0.00  0.00    -0.365 N 
HETATM   15  C   UNK N   1      27.194  19.153   4.612  0.00  0.00     0.042 A 
HETATM   16  H   UNK N   1      26.987  18.072   2.839  0.00  0.00     0.165 HD
HETATM   17  C   UNK N   1      26.710  20.421   4.310  0.00  0.00     0.030 A 
HETATM   18  C   UNK N   1      27.670  18.836   5.853  0.00  0.00    -0.002 A 
HETATM   19  C   UNK N   1      26.720  21.385   5.334  0.00  0.00     0.002 A 
HETATM   20  C   UNK N   1      27.209  21.058   6.620  0.00  0.00     0.001 A 
HETATM   21  C   UNK N   1      27.695  19.764   6.890  0.00  0.00     0.014 A 
ENDBRANCH   1  12
TORSDOF 2
ENDMDL
MODEL 6
REMARK VINA RESULT:      -6.7     11.172     13.891
REMARK  2 active torsions:
REMARK  status: ('A' for Active; 'I' for Inactive)
REMARK    1  A    between atoms: C_1  and  C_2 
REMARK    2  A    between atoms: C_1  and  C_11 
ROOT
HETATM    1  C   UNK N   1      27.816  23.824  -3.292  0.00  0.00     0.082 C 
ENDROOT
BRANCH   1   2
HETATM    2  C   UNK N   1      29.306  23.816  -3.565  0.00  0.00    -0.026 A 
HETATM    3  C   UNK N   1      30.038  24.997  -3.650  0.00  0.00     0.096 A 
HETATM    4  N   UNK N   1      31.342  24.722  -3.895  0.00  0.00    -0.365 N 
HETATM    5  C   UNK N   1      31.435  23.384  -3.969  0.00  0.00     0.042 A 
HETATM    6  H   UNK N   1      32.075  25.371  -3.997  0.00  0.00     0.165 HD
HETATM    7  C   UNK N   1      32.593  22.646  -4.204  0.00  0.00     0.030 A 
HETATM    8  C   UNK N   1      30.217  22.792  -3.780  0.00  0.00    -0.002 A 
HETATM    9  C   UNK N   1      32.482  21.245  -4.247  0.00  0.00     0.002 A 
HETATM   10  C   UNK N   1      31.230  20.626  -4.062  0.00  0.00     0.001 A 
HETATM   11  C   UNK N   1      30.086  21.405  -3.829  0.00  0.00     0.014 A 
ENDBRANCH   1   2
BRANCH   1  12
HETATM   12  C   UNK N   1      26.818  24.367  -4.283  0.00  0.00    -0.026 A 
HETATM   13  C   UNK N   1      26.188  23.731  -5.345  0.00  0.00     0.096 A 
HETATM   14  N   UNK N   1      25.362  24.594  -5.985  0.00  0.00    -0.365 N 
HETATM   15  C   UNK N   1      25.465  25.756  -5.326  0.00  0.00     0.042 A 
HETATM   16  H   UNK N   1      24.801  24.406  -6.772  0.00  0.00     0.165 HD
HETATM   17  C   UNK N   1      24.797  26.941  -5.618  0.00  0.00     0.030 A 
HETATM   18  C   UNK N   1      26.339  25.655  -4.281  0.00  0.00    -0.002 A 
HETATM   19  C   UNK N   1      25.046  28.051  -4.791  0.00  0.00     0.002 A 
HETATM   20  C   UNK N   1      25.948  27.947  -3.706  0.00  0.00     0.001 A 
HETATM   21  C   UNK N   1      26.609  26.733  -3.442  0.00  0.00     0.014 A 
ENDBRANCH   1  12
TORSDOF 2
ENDMDL
MODEL 7
REMARK VINA RESULT:      -6.7      7.689     10.753
REMARK  2 active torsions:
REMARK  status: ('A' for Active; 'I' for Inactive)
REMARK    1  A    between atoms: C_1  and  C_2 
REMARK    2  A    between atoms: C_1  and  C_11 
ROOT
HETATM    1  C   UNK N   1      36.394  12.344  13.601  0.00  0.00     0.082 C 
ENDROOT
BRANCH   1   2
HETATM    2  C   UNK N   1      35.627  12.739  12.357  0.00  0.00    -0.026 A 
HETATM    3  C   UNK N   1      34.941  11.798  11.593  0.00  0.00     0.096 A 
HETATM    4  N   UNK N   1      34.335  12.401  10.541  0.00  0.00    -0.365 N 
HETATM    5  C   UNK N   1      34.636  13.706  10.634  0.00  0.00     0.042 A 
HETATM    6  H   UNK N   1      33.784  11.969   9.848  0.00  0.00     0.165 HD
HETATM    7  C   UNK N   1      34.224  14.715   9.766  0.00  0.00     0.030 A 
HETATM    8  C   UNK N   1      35.426  13.957  11.722  0.00  0.00    -0.002 A 
HETATM    9  C   UNK N   1      34.649  16.028  10.034  0.00  0.00     0.002 A 
HETATM   10  C   UNK N   1      35.471  16.294  11.147  0.00  0.00     0.001 A 
HETATM   11  C   UNK N   1      35.866  15.250  11.998  0.00  0.00     0.014 A 
ENDBRANCH   1   2
BRANCH   1  12
HETATM   12  C   UNK N   1      35.880  12.627  14.990  0.00  0.00    -0.026 A 
HETATM   13  C   UNK N   1      34.982  11.905  15.766  0.00  0.00     0.096 A 
HETATM   14  N   UNK N   1      34.794  12.519  16.960  0.00  0.00    -0.365 N 
HETATM   15  C   UNK N   1      35.571  13.611  16.935  0.00  0.00     0.042 A 
HETATM   16  H   UNK N   1      34.208  12.226  17.694  0.00  0.00     0.165 HD
HETATM   17  C   UNK N   1      35.712  14.556  17.946  0.00  0.00     0.030 A 
HETATM   18  C   UNK N   1      36.251  13.707  15.754  0.00  0.00    -0.002 A 
HETATM   19  C   UNK N   1      36.590  15.631  17.717  0.00  0.00     0.002 A 
HETATM   20  C   UNK N   1      37.297  15.730  16.496  0.00  0.00     0.001 A 
HETATM   21  C   UNK N   1      37.128  14.756  15.494  0.00  0.00     0.014 A 
ENDBRANCH   1  12
TORSDOF 2
ENDMDL
MODEL 8
REMARK VINA RESULT:      -6.5      5.873      8.997
REMARK  2 active torsions:
REMARK  status: ('A' for Active; 'I' for Inactive)
REMARK    1  A    between atoms: C_1  and  C_2 
REMARK    2  A    between atoms: C_1  and  C_11 
ROOT
HETATM    1  C   UNK N   1      36.251  13.747  10.767  0.00  0.00     0.082 C 
ENDROOT
BRANCH   1   2
HETATM    2  C   UNK N   1      35.684  15.093  10.369  0.00  0.00    -0.026 A 
HETATM    3  C   UNK N   1      35.537  16.125  11.292  0.00  0.00     0.096 A 
HETATM    4  N   UNK N   1      35.015  17.222  10.690  0.00  0.00    -0.365 N 
HETATM    5  C   UNK N   1      34.829  16.888   9.402  0.00  0.00     0.042 A 
HETATM    6  H   UNK N   1      34.814  18.089  11.111  0.00  0.00     0.165 HD
HETATM    7  C   UNK N   1      34.315  17.708   8.400  0.00  0.00     0.030 A 
HETATM    8  C   UNK N   1      35.218  15.598   9.163  0.00  0.00    -0.002 A 
HETATM    9  C   UNK N   1      34.196  17.170   7.107  0.00  0.00     0.002 A 
HETATM   10  C   UNK N   1      34.585  15.840   6.853  0.00  0.00     0.001 A 
HETATM   11  C   UNK N   1      35.098  15.045   7.890  0.00  0.00     0.014 A 
ENDBRANCH   1   2
BRANCH   1  12
HETATM   12  C   UNK N   1      35.429  12.708  11.489  0.00  0.00    -0.026 A 
HETATM   13  C   UNK N   1      34.720  11.628  10.978  0.00  0.00     0.096 A 
HETATM   14  N   UNK N   1      34.118  10.946  11.982  0.00  0.00    -0.365 N 
HETATM   15  C   UNK N   1      34.452  11.585  13.111  0.00  0.00     0.042 A 
HETATM   16  H   UNK N   1      33.550  10.145  11.900  0.00  0.00     0.165 HD
HETATM   17  C   UNK N   1      34.068  11.248  14.405  0.00  0.00     0.030 A 
HETATM   18  C   UNK N   1      35.255  12.660  12.850  0.00  0.00    -0.002 A 
HETATM   19  C   UNK N   1      34.539  12.055  15.457  0.00  0.00     0.002 A 
HETATM   20  C   UNK N   1      35.372  13.166  15.189  0.00  0.00     0.001 A 
HETATM   21  C   UNK N   1      35.738  13.480  13.866  0.00  0.00     0.014 A 
ENDBRANCH   1  12
TORSDOF 2
ENDMDL
MODEL 9
REMARK VINA RESULT:      -6.5     11.224     12.543
REMARK  2 active torsions:
REMARK  status: ('A' for Active; 'I' for Inactive)
REMARK    1  A    between atoms: C_1  and  C_2 
REMARK    2  A    between atoms: C_1  and  C_11 
ROOT
HETATM    1  C   UNK N   1      27.992  23.797  -3.386  0.00  0.00     0.082 C 
ENDROOT
BRANCH   1   2
HETATM    2  C   UNK N   1      26.956  24.462  -4.268  0.00  0.00    -0.026 A 
HETATM    3  C   UNK N   1      26.340  23.777  -5.312  0.00  0.00     0.096 A 
HETATM    4  N   UNK N   1      25.454  24.586  -5.943  0.00  0.00    -0.365 N 
HETATM    5  C   UNK N   1      25.512  25.770  -5.311  0.00  0.00     0.042 A 
HETATM    6  H   UNK N   1      24.883  24.354  -6.711  0.00  0.00     0.165 HD
HETATM    7  C   UNK N   1      24.769  26.908  -5.615  0.00  0.00     0.030 A 
HETATM    8  C   UNK N   1      26.419  25.741  -4.287  0.00  0.00    -0.002 A 
HETATM    9  C   UNK N   1      24.975  28.057  -4.832  0.00  0.00     0.002 A 
HETATM   10  C   UNK N   1      25.914  28.040  -3.781  0.00  0.00     0.001 A 
HETATM   11  C   UNK N   1      26.644  26.873  -3.507  0.00  0.00     0.014 A 
ENDBRANCH   1   2
BRANCH   1  12
HETATM   12  C   UNK N   1      29.472  23.922  -3.646  0.00  0.00    -0.026 A 
HETATM   13  C   UNK N   1      30.263  25.062  -3.733  0.00  0.00     0.096 A 
HETATM   14  N   UNK N   1      31.551  24.720  -3.982  0.00  0.00    -0.365 N 
HETATM   15  C   UNK N   1      31.570  23.381  -4.042  0.00  0.00     0.042 A 
HETATM   16  H   UNK N   1      32.316  25.329  -4.097  0.00  0.00     0.165 HD
HETATM   17  C   UNK N   1      32.677  22.574  -4.276  0.00  0.00     0.030 A 
HETATM   18  C   UNK N   1      30.323  22.861  -3.837  0.00  0.00    -0.002 A 
HETATM   19  C   UNK N   1      32.478  21.181  -4.293  0.00  0.00     0.002 A 
HETATM   20  C   UNK N   1      31.189  20.640  -4.077  0.00  0.00     0.001 A 
HETATM   21  C   UNK N   1      30.089  21.488  -3.846  0.00  0.00     0.014 A 
ENDBRANCH   1  12
TORSDOF 2
ENDMDL
