REMARK  7 active torsions:
REMARK  status: ('A' for Active; 'I' for Inactive)
REMARK    1  A    between atoms: C_9  and  O_12 
REMARK    2  A    between atoms: O_12  and  C_13 
REMARK    3  A    between atoms: C_21  and  O_30 
REMARK    4  A    between atoms: C_22  and  O_24 
REMARK    5  A    between atoms: O_24  and  C_25 
REMARK    6  A    between atoms: C_25  and  C_26 
REMARK    7  A    between atoms: C_26  and  N_29 
ROOT
HETATM    1  C   UNK N   1      -0.318  -0.294   0.070  0.00  0.00     0.090 A 
HETATM    2  C   UNK N   1      -1.357  -1.227   0.040  0.00  0.00     0.055 A 
HETATM    3  C   UNK N   1      -1.087  -2.592  -0.029  0.00  0.00     0.091 A 
HETATM    4  N   UNK N   1       0.195  -3.029  -0.096  0.00  0.00    -0.365 N 
ATOM      5  HN  UNK N   1       0.380  -4.030  -0.164  1.00  0.00     0.165 HD
HETATM    6  C   UNK N   1       1.237  -2.158  -0.073  0.00  0.00     0.048 A 
HETATM    7  C   UNK N   1       1.002  -0.772   0.031  0.00  0.00     0.027 A 
HETATM    8  C   UNK N   1       2.090   0.109   0.072  0.00  0.00     0.056 A 
HETATM    9  C   UNK N   1       3.405  -0.362  -0.010  0.00  0.00     0.102 A 
HETATM   10  C   UNK N   1       3.632  -1.757  -0.168  0.00  0.00     0.104 A 
HETATM   11  C   UNK N   1       2.535  -2.636  -0.184  0.00  0.00     0.070 A 
ENDROOT
BRANCH   1  12
HETATM   12  O   UNK N   1      -0.527   1.055   0.104  0.00  0.00    -0.307 OA
BRANCH  12  13
HETATM   13  C   UNK N   1      -1.618   1.879   0.065  0.00  0.00     0.115 A 
HETATM   14  C   UNK N   1      -1.344   3.270   0.019  0.00  0.00     0.043 A 
HETATM   15  C   UNK N   1      -2.373   4.227  -0.022  0.00  0.00     0.033 A 
HETATM   16  C   UNK N   1      -3.681   3.766  -0.015  0.00  0.00     0.045 A 
HETATM   17  C   UNK N   1      -3.973   2.437   0.027  0.00  0.00     0.034 A 
HETATM   18  N   UNK N   1      -4.801   4.505  -0.039  0.00  0.00    -0.359 N 
HETATM   19  C   UNK N   1      -5.343   2.303   0.030  0.00  0.00     0.041 A 
HETATM   20  C   UNK N   1      -2.989   1.458   0.066  0.00  0.00     0.162 A 
HETATM   21  C   UNK N   1      -5.815   3.608  -0.010  0.00  0.00     0.006 A 
HETATM   22  C   UNK N   1      -7.252   3.986  -0.013  0.00  0.00     0.068 C 
HETATM   23  F   UNK N   1      -3.396   0.174   0.112  0.00  0.00    -0.202 F 
HETATM   24  H   UNK N   1      -4.871   5.486  -0.070  0.00  0.00     0.166 HD
ENDBRANCH  12  13
ENDBRANCH   1  12
BRANCH   9  25
HETATM   25  O   UNK N   1       4.404   0.559   0.038  0.00  0.00    -0.353 OA
HETATM   26  C   UNK N   1       5.751   0.281  -0.001  0.00  0.00     0.210 C 
ENDBRANCH   9  25
BRANCH  10  27
HETATM   27  O   UNK N   1       4.886  -2.246  -0.324  0.00  0.00    -0.346 OA
BRANCH  27  28
HETATM   28  C   UNK N   1       5.131  -3.459  -0.936  0.00  0.00     0.206 C 
BRANCH  28  29
HETATM   29  C   UNK N   1       5.556  -4.507   0.069  0.00  0.00     0.045 A 
HETATM   30  C   UNK N   1       5.370  -5.931  -0.389  0.00  0.00     0.035 A 
HETATM   31  C   UNK N   1       4.499  -5.358   0.728  0.00  0.00     0.035 A 
BRANCH  29  32
HETATM   32  N   UNK N   1       6.770  -4.303   0.836  0.00  0.00    -0.420 N 
HETATM   33  H   UNK N   1       7.321  -4.971   1.376  0.00  0.00     0.150 HD
HETATM   34  H   UNK N   1       7.127  -3.348   0.836  0.00  0.00     0.150 HD
ENDBRANCH  29  32
ENDBRANCH  28  29
ENDBRANCH  27  28
ENDBRANCH  10  27
TORSDOF 7
