MODEL 1
REMARK VINA RESULT:      -8.6      0.000      0.000
REMARK  7 active torsions:
REMARK  status: ('A' for Active; 'I' for Inactive)
REMARK    1  A    between atoms: N_2  and  C_3 
REMARK       I    between atoms: N_2  and  C_30 
REMARK    2  A    between atoms: C_3  and  C_4 
REMARK    3  A    between atoms: C_9  and  N_24 
REMARK    4  A    between atoms: C_12  and  C_15 
REMARK    5  A    between atoms: C_18  and  O_22 
REMARK    6  A    between atoms: C_34  and  C_38 
REMARK       I    between atoms: C_38  and  N_40 
REMARK    7  A    between atoms: N_40  and  O_41 
ROOT
HETATM    1  C   UNK N   1      27.037  16.632   5.278  0.00  0.00     0.004 A 
HETATM    2  C   UNK N   1      27.006  15.660   6.269  0.00  0.00     0.047 A 
HETATM    3  C   UNK N   1      25.690  15.270   6.571  0.00  0.00     0.055 A 
HETATM    4  C   UNK N   1      24.691  15.924   5.869  0.00  0.00     0.076 A 
HETATM    5  S   UNK N   1      25.465  16.969   4.836  0.00  0.00    -0.087 SA
HETATM    6  C   UNK N   1      23.340  15.671   6.176  0.00  0.00     0.124 A 
HETATM    7  N   UNK N   1      23.084  14.789   7.201  0.00  0.00    -0.327 N 
ATOM      8  HN  UNK N   1      22.117  14.595   7.463  1.00  0.00     0.169 HD
HETATM    9  C   UNK N   1      24.104  14.162   7.883  0.00  0.00     0.119 A 
HETATM   10  N   UNK N   1      25.395  14.407   7.547  0.00  0.00    -0.340 N 
ATOM     11  HN  UNK N   1      26.147  13.928   8.044  1.00  0.00     0.167 HD
ENDROOT
BRANCH   1  12
HETATM   12  C   UNK N   1      28.234  17.418   4.908  0.00  0.00     0.186 C 
BRANCH  12  13
HETATM   13  N   UNK N   1      29.381  16.586   4.642  0.00  0.00    -0.217 N 
HETATM   14  C   UNK N   1      29.339  15.641   3.551  0.00  0.00     0.169 C 
HETATM   15  C   UNK N   1      30.369  16.479   5.646  0.00  0.00     0.679 A 
HETATM   16  N   UNK N   1      31.254  15.444   5.646  0.00  0.00    -0.201 N 
HETATM   17  N   UNK N   1      30.362  17.366   6.677  0.00  0.00    -0.201 N 
HETATM   18  C   UNK N   1      32.097  15.255   6.697  0.00  0.00     0.124 A 
ATOM     19  HN  UNK N   1      31.286  14.806   4.851  1.00  0.00     0.183 HD
HETATM   20  C   UNK N   1      32.062  16.136   7.783  0.00  0.00     0.066 A 
HETATM   21  C   UNK N   1      31.189  17.217   7.733  0.00  0.00     0.124 A 
ATOM     22  HN  UNK N   1      29.719  18.157   6.652  1.00  0.00     0.183 HD
BRANCH  20  23
HETATM   23  C   UNK N   1      32.850  15.894   9.002  0.00  0.00     0.277 C 
HETATM   24  O   UNK N   1      34.010  16.269   9.070  0.00  0.00    -0.265 OA
HETATM   25  N   UNK N   1      32.299  15.197  10.024  0.00  0.00    -0.233 N 
HETATM   26  H   UNK N   1      31.361  14.903   9.960  0.00  0.00     0.197 HD
BRANCH  25  27
HETATM   27  O   UNK N   1      33.008  14.899  11.121  0.00  0.00    -0.287 OA
HETATM   28  H   UNK N   1      32.922  15.437  11.923  0.00  0.00     0.244 HD
ENDBRANCH  25  27
ENDBRANCH  20  23
ENDBRANCH  12  13
ENDBRANCH   1  12
BRANCH   6  29
HETATM   29  N   UNK N   1      22.257  16.367   5.541  0.00  0.00    -0.362 N 
HETATM   30  C   UNK N   1      21.710  17.599   6.078  0.00  0.00     0.150 C 
HETATM   31  C   UNK N   1      21.427  18.559   4.921  0.00  0.00     0.187 C 
HETATM   32  O   UNK N   1      20.567  17.929   4.002  0.00  0.00    -0.388 OA
HETATM   33  C   UNK N   1      21.324  16.922   3.374  0.00  0.00     0.187 C 
HETATM   34  C   UNK N   1      21.609  15.798   4.376  0.00  0.00     0.150 C 
ENDBRANCH   6  29
BRANCH   9  35
HETATM   35  C   UNK N   1      23.873  13.373   9.101  0.00  0.00     0.024 A 
HETATM   36  C   UNK N   1      22.597  13.136   9.619  0.00  0.00     0.021 A 
HETATM   37  C   UNK N   1      22.466  12.517  10.869  0.00  0.00     0.057 A 
HETATM   38  C   UNK N   1      23.614  12.156  11.588  0.00  0.00     0.141 A 
HETATM   39  N   UNK N   1      24.845  12.378  11.052  0.00  0.00    -0.346 N 
HETATM   40  C   UNK N   1      24.992  12.973   9.846  0.00  0.00     0.105 A 
ATOM     41  HN  UNK N   1      25.674  12.090  11.570  1.00  0.00     0.167 HD
BRANCH  38  42
HETATM   42  O   UNK N   1      23.494  11.604  12.815  0.00  0.00    -0.341 OA
HETATM   43  C   UNK N   1      23.573  12.356  13.966  0.00  0.00     0.211 C 
ENDBRANCH  38  42
ENDBRANCH   9  35
TORSDOF 7
ENDMDL
MODEL 2
REMARK VINA RESULT:      -8.5      4.860     10.001
REMARK  7 active torsions:
REMARK  status: ('A' for Active; 'I' for Inactive)
REMARK    1  A    between atoms: N_2  and  C_3 
REMARK       I    between atoms: N_2  and  C_30 
REMARK    2  A    between atoms: C_3  and  C_4 
REMARK    3  A    between atoms: C_9  and  N_24 
REMARK    4  A    between atoms: C_12  and  C_15 
REMARK    5  A    between atoms: C_18  and  O_22 
REMARK    6  A    between atoms: C_34  and  C_38 
REMARK       I    between atoms: C_38  and  N_40 
REMARK    7  A    between atoms: N_40  and  O_41 
ROOT
HETATM    1  C   UNK N   1      28.142  17.793   5.564  0.00  0.00     0.004 A 
HETATM    2  C   UNK N   1      28.869  17.902   6.742  0.00  0.00     0.047 A 
HETATM    3  C   UNK N   1      30.151  17.341   6.613  0.00  0.00     0.055 A 
HETATM    4  C   UNK N   1      30.440  16.773   5.383  0.00  0.00     0.076 A 
HETATM    5  S   UNK N   1      29.094  17.011   4.440  0.00  0.00    -0.087 SA
HETATM    6  C   UNK N   1      31.662  16.099   5.194  0.00  0.00     0.124 A 
HETATM    7  N   UNK N   1      32.507  16.014   6.277  0.00  0.00    -0.327 N 
ATOM      8  HN  UNK N   1      33.394  15.518   6.181  1.00  0.00     0.169 HD
HETATM    9  C   UNK N   1      32.183  16.586   7.488  0.00  0.00     0.119 A 
HETATM   10  N   UNK N   1      31.010  17.252   7.633  0.00  0.00    -0.340 N 
ATOM     11  HN  UNK N   1      30.782  17.687   8.527  1.00  0.00     0.167 HD
ENDROOT
BRANCH   1  12
HETATM   12  C   UNK N   1      26.693  18.063   5.442  0.00  0.00     0.186 C 
BRANCH  12  13
HETATM   13  N   UNK N   1      26.398  19.054   4.436  0.00  0.00    -0.217 N 
HETATM   14  C   UNK N   1      27.349  20.108   4.173  0.00  0.00     0.169 C 
HETATM   15  C   UNK N   1      25.065  19.161   3.982  0.00  0.00     0.679 A 
HETATM   16  N   UNK N   1      24.631  20.288   3.353  0.00  0.00    -0.201 N 
HETATM   17  N   UNK N   1      24.186  18.165   4.274  0.00  0.00    -0.201 N 
HETATM   18  C   UNK N   1      23.313  20.453   3.063  0.00  0.00     0.124 A 
ATOM     19  HN  UNK N   1      25.300  21.014   3.097  1.00  0.00     0.183 HD
HETATM   20  C   UNK N   1      22.395  19.454   3.403  0.00  0.00     0.066 A 
HETATM   21  C   UNK N   1      22.872  18.289   3.993  0.00  0.00     0.124 A 
ATOM     22  HN  UNK N   1      24.525  17.310   4.715  1.00  0.00     0.183 HD
BRANCH  20  23
HETATM   23  C   UNK N   1      20.945  19.645   3.240  0.00  0.00     0.277 C 
HETATM   24  O   UNK N   1      20.376  20.561   3.813  0.00  0.00    -0.265 OA
HETATM   25  N   UNK N   1      20.236  18.759   2.501  0.00  0.00    -0.233 N 
HETATM   26  H   UNK N   1      20.706  18.026   2.040  0.00  0.00     0.197 HD
BRANCH  25  27
HETATM   27  O   UNK N   1      18.905  18.862   2.386  0.00  0.00    -0.287 OA
HETATM   28  H   UNK N   1      18.336  18.777   3.167  0.00  0.00     0.244 HD
ENDBRANCH  25  27
ENDBRANCH  20  23
ENDBRANCH  12  13
ENDBRANCH   1  12
BRANCH   6  29
HETATM   29  N   UNK N   1      31.994  15.423   3.971  0.00  0.00    -0.362 N 
HETATM   30  C   UNK N   1      33.006  15.927   3.061  0.00  0.00     0.150 C 
HETATM   31  C   UNK N   1      33.829  14.749   2.538  0.00  0.00     0.187 C 
HETATM   32  O   UNK N   1      32.965  13.814   1.938  0.00  0.00    -0.388 OA
HETATM   33  C   UNK N   1      32.231  13.223   2.984  0.00  0.00     0.187 C 
HETATM   34  C   UNK N   1      31.251  14.248   3.564  0.00  0.00     0.150 C 
ENDBRANCH   6  29
BRANCH   9  35
HETATM   35  C   UNK N   1      32.966  16.349   8.709  0.00  0.00     0.024 A 
HETATM   36  C   UNK N   1      34.166  17.012   8.980  0.00  0.00     0.021 A 
HETATM   37  C   UNK N   1      34.938  16.616  10.080  0.00  0.00     0.057 A 
HETATM   38  C   UNK N   1      34.505  15.553  10.885  0.00  0.00     0.141 A 
HETATM   39  N   UNK N   1      33.322  14.938  10.613  0.00  0.00    -0.346 N 
HETATM   40  C   UNK N   1      32.562  15.307   9.556  0.00  0.00     0.105 A 
ATOM     41  HN  UNK N   1      33.002  14.182  11.218  1.00  0.00     0.167 HD
BRANCH  38  42
HETATM   42  O   UNK N   1      35.269  15.136  11.917  0.00  0.00    -0.341 OA
HETATM   43  C   UNK N   1      35.312  13.816  12.308  0.00  0.00     0.211 C 
ENDBRANCH  38  42
ENDBRANCH   9  35
TORSDOF 7
ENDMDL
MODEL 3
REMARK VINA RESULT:      -8.3      6.373     12.103
REMARK  7 active torsions:
REMARK  status: ('A' for Active; 'I' for Inactive)
REMARK    1  A    between atoms: N_2  and  C_3 
REMARK       I    between atoms: N_2  and  C_30 
REMARK    2  A    between atoms: C_3  and  C_4 
REMARK    3  A    between atoms: C_9  and  N_24 
REMARK    4  A    between atoms: C_12  and  C_15 
REMARK    5  A    between atoms: C_18  and  O_22 
REMARK    6  A    between atoms: C_34  and  C_38 
REMARK       I    between atoms: C_38  and  N_40 
REMARK    7  A    between atoms: N_40  and  O_41 
ROOT
HETATM    1  C   UNK N   1      35.309  16.011   9.552  0.00  0.00     0.004 A 
HETATM    2  C   UNK N   1      35.171  16.139  10.928  0.00  0.00     0.047 A 
HETATM    3  C   UNK N   1      35.894  15.149  11.615  0.00  0.00     0.055 A 
HETATM    4  C   UNK N   1      36.570  14.236  10.822  0.00  0.00     0.076 A 
HETATM    5  S   UNK N   1      36.291  14.698   9.252  0.00  0.00    -0.087 SA
HETATM    6  C   UNK N   1      37.240  13.151  11.421  0.00  0.00     0.124 A 
HETATM    7  N   UNK N   1      37.156  13.040  12.790  0.00  0.00    -0.327 N 
ATOM      8  HN  UNK N   1      37.614  12.256  13.256  1.00  0.00     0.169 HD
HETATM    9  C   UNK N   1      36.468  13.963  13.546  0.00  0.00     0.119 A 
HETATM   10  N   UNK N   1      35.855  15.013  12.944  0.00  0.00    -0.340 N 
ATOM     11  HN  UNK N   1      35.361  15.704  13.509  1.00  0.00     0.167 HD
ENDROOT
BRANCH   1  12
HETATM   12  C   UNK N   1      34.493  16.736   8.554  0.00  0.00     0.186 C 
BRANCH  12  13
HETATM   13  N   UNK N   1      33.434  15.921   8.010  0.00  0.00    -0.217 N 
HETATM   14  C   UNK N   1      33.763  14.757   7.221  0.00  0.00     0.169 C 
HETATM   15  C   UNK N   1      32.130  16.462   7.981  0.00  0.00     0.679 A 
HETATM   16  N   UNK N   1      31.179  15.945   7.154  0.00  0.00    -0.201 N 
HETATM   17  N   UNK N   1      31.861  17.577   8.711  0.00  0.00    -0.201 N 
HETATM   18  C   UNK N   1      29.977  16.566   7.009  0.00  0.00     0.124 A 
ATOM     19  HN  UNK N   1      31.369  15.085   6.641  1.00  0.00     0.183 HD
HETATM   20  C   UNK N   1      29.711  17.740   7.721  0.00  0.00     0.066 A 
HETATM   21  C   UNK N   1      30.677  18.216   8.601  0.00  0.00     0.124 A 
ATOM     22  HN  UNK N   1      32.566  17.938   9.353  1.00  0.00     0.183 HD
BRANCH  20  23
HETATM   23  C   UNK N   1      28.487  18.524   7.492  0.00  0.00     0.277 C 
HETATM   24  O   UNK N   1      28.026  18.634   6.366  0.00  0.00    -0.265 OA
HETATM   25  N   UNK N   1      27.911  19.177   8.529  0.00  0.00    -0.233 N 
HETATM   26  H   UNK N   1      28.289  19.079   9.434  0.00  0.00     0.197 HD
BRANCH  25  27
HETATM   27  O   UNK N   1      26.836  19.955   8.347  0.00  0.00    -0.287 OA
HETATM   28  H   UNK N   1      26.296  20.234   9.102  0.00  0.00     0.244 HD
ENDBRANCH  25  27
ENDBRANCH  20  23
ENDBRANCH  12  13
ENDBRANCH   1  12
BRANCH   6  29
HETATM   29  N   UNK N   1      37.896  12.128  10.657  0.00  0.00    -0.362 N 
HETATM   30  C   UNK N   1      37.472  10.741  10.698  0.00  0.00     0.150 C 
HETATM   31  C   UNK N   1      37.530  10.165   9.282  0.00  0.00     0.187 C 
HETATM   32  O   UNK N   1      38.831  10.328   8.773  0.00  0.00    -0.388 OA
HETATM   33  C   UNK N   1      38.998  11.706   8.540  0.00  0.00     0.187 C 
HETATM   34  C   UNK N   1      39.078  12.445   9.880  0.00  0.00     0.150 C 
ENDBRANCH   6  29
BRANCH   9  35
HETATM   35  C   UNK N   1      36.196  13.769  14.978  0.00  0.00     0.024 A 
HETATM   36  C   UNK N   1      35.258  12.847  15.451  0.00  0.00     0.021 A 
HETATM   37  C   UNK N   1      34.935  12.834  16.814  0.00  0.00     0.057 A 
HETATM   38  C   UNK N   1      35.545  13.751  17.681  0.00  0.00     0.141 A 
HETATM   39  N   UNK N   1      36.471  14.624  17.199  0.00  0.00    -0.346 N 
HETATM   40  C   UNK N   1      36.797  14.651  15.886  0.00  0.00     0.105 A 
ATOM     41  HN  UNK N   1      36.929  15.271  17.840  1.00  0.00     0.167 HD
BRANCH  38  42
HETATM   42  O   UNK N   1      35.201  13.775  18.987  0.00  0.00    -0.341 OA
HETATM   43  C   UNK N   1      35.186  12.635  19.760  0.00  0.00     0.211 C 
ENDBRANCH  38  42
ENDBRANCH   9  35
TORSDOF 7
ENDMDL
MODEL 4
REMARK VINA RESULT:      -8.2      6.156     10.926
REMARK  7 active torsions:
REMARK  status: ('A' for Active; 'I' for Inactive)
REMARK    1  A    between atoms: N_2  and  C_3 
REMARK       I    between atoms: N_2  and  C_30 
REMARK    2  A    between atoms: C_3  and  C_4 
REMARK    3  A    between atoms: C_9  and  N_24 
REMARK    4  A    between atoms: C_12  and  C_15 
REMARK    5  A    between atoms: C_18  and  O_22 
REMARK    6  A    between atoms: C_34  and  C_38 
REMARK       I    between atoms: C_38  and  N_40 
REMARK    7  A    between atoms: N_40  and  O_41 
ROOT
HETATM    1  C   UNK N   1      34.970  16.033   9.397  0.00  0.00     0.004 A 
HETATM    2  C   UNK N   1      35.306  16.141  10.740  0.00  0.00     0.047 A 
HETATM    3  C   UNK N   1      35.382  14.881  11.357  0.00  0.00     0.055 A 
HETATM    4  C   UNK N   1      35.089  13.795  10.549  0.00  0.00     0.076 A 
HETATM    5  S   UNK N   1      34.773  14.416   9.042  0.00  0.00    -0.087 SA
HETATM    6  C   UNK N   1      35.042  12.501  11.105  0.00  0.00     0.124 A 
HETATM    7  N   UNK N   1      35.265  12.392  12.459  0.00  0.00    -0.327 N 
ATOM      8  HN  UNK N   1      35.221  11.472  12.900  1.00  0.00     0.169 HD
HETATM    9  C   UNK N   1      35.546  13.496  13.233  0.00  0.00     0.119 A 
HETATM   10  N   UNK N   1      35.611  14.726  12.665  0.00  0.00    -0.340 N 
ATOM     11  HN  UNK N   1      35.836  15.539  13.239  1.00  0.00     0.167 HD
ENDROOT
BRANCH   1  12
HETATM   12  C   UNK N   1      34.577  17.169   8.535  0.00  0.00     0.186 C 
BRANCH  12  13
HETATM   13  N   UNK N   1      33.623  16.790   7.523  0.00  0.00    -0.217 N 
HETATM   14  C   UNK N   1      34.081  16.485   6.188  0.00  0.00     0.169 C 
HETATM   15  C   UNK N   1      32.257  17.051   7.769  0.00  0.00     0.679 A 
HETATM   16  N   UNK N   1      31.359  17.093   6.746  0.00  0.00    -0.201 N 
HETATM   17  N   UNK N   1      31.862  17.367   9.032  0.00  0.00    -0.201 N 
HETATM   18  C   UNK N   1      30.080  17.501   6.965  0.00  0.00     0.124 A 
ATOM     19  HN  UNK N   1      31.647  16.814   5.809  1.00  0.00     0.183 HD
HETATM   20  C   UNK N   1      29.679  17.874   8.252  0.00  0.00     0.066 A 
HETATM   21  C   UNK N   1      30.599  17.768   9.290  0.00  0.00     0.124 A 
ATOM     22  HN  UNK N   1      32.532  17.300   9.798  1.00  0.00     0.183 HD
BRANCH  20  23
HETATM   23  C   UNK N   1      28.354  18.455   8.514  0.00  0.00     0.277 C 
HETATM   24  O   UNK N   1      27.643  17.998   9.396  0.00  0.00    -0.265 OA
HETATM   25  N   UNK N   1      27.901  19.461   7.728  0.00  0.00    -0.233 N 
HETATM   26  H   UNK N   1      28.484  19.825   7.022  0.00  0.00     0.197 HD
BRANCH  25  27
HETATM   27  O   UNK N   1      26.672  19.968   7.892  0.00  0.00    -0.287 OA
HETATM   28  H   UNK N   1      26.189  19.828   8.721  0.00  0.00     0.244 HD
ENDBRANCH  25  27
ENDBRANCH  20  23
ENDBRANCH  12  13
ENDBRANCH   1  12
BRANCH   6  29
HETATM   29  N   UNK N   1      34.673  11.342  10.344  0.00  0.00    -0.362 N 
HETATM   30  C   UNK N   1      33.583  10.470  10.742  0.00  0.00     0.150 C 
HETATM   31  C   UNK N   1      32.792  10.067   9.496  0.00  0.00     0.187 C 
HETATM   32  O   UNK N   1      33.667   9.468   8.571  0.00  0.00    -0.388 OA
HETATM   33  C   UNK N   1      34.492  10.497   8.079  0.00  0.00     0.187 C 
HETATM   34  C   UNK N   1      35.451  10.955   9.183  0.00  0.00     0.150 C 
ENDBRANCH   6  29
BRANCH   9  35
HETATM   35  C   UNK N   1      35.595  13.441  14.702  0.00  0.00     0.024 A 
HETATM   36  C   UNK N   1      34.701  12.680  15.460  0.00  0.00     0.021 A 
HETATM   37  C   UNK N   1      34.704  12.806  16.856  0.00  0.00     0.057 A 
HETATM   38  C   UNK N   1      35.591  13.700  17.470  0.00  0.00     0.141 A 
HETATM   39  N   UNK N   1      36.466  14.413  16.711  0.00  0.00    -0.346 N 
HETATM   40  C   UNK N   1      36.479  14.305  15.362  0.00  0.00     0.105 A 
ATOM     41  HN  UNK N   1      37.125  15.044  17.167  1.00  0.00     0.167 HD
BRANCH  38  42
HETATM   42  O   UNK N   1      35.563  13.861  18.811  0.00  0.00    -0.341 OA
HETATM   43  C   UNK N   1      35.127  12.866  19.658  0.00  0.00     0.211 C 
ENDBRANCH  38  42
ENDBRANCH   9  35
TORSDOF 7
ENDMDL
MODEL 5
REMARK VINA RESULT:      -8.2      5.400      8.040
REMARK  7 active torsions:
REMARK  status: ('A' for Active; 'I' for Inactive)
REMARK    1  A    between atoms: N_2  and  C_3 
REMARK       I    between atoms: N_2  and  C_30 
REMARK    2  A    between atoms: C_3  and  C_4 
REMARK    3  A    between atoms: C_9  and  N_24 
REMARK    4  A    between atoms: C_12  and  C_15 
REMARK    5  A    between atoms: C_18  and  O_22 
REMARK    6  A    between atoms: C_34  and  C_38 
REMARK       I    between atoms: C_38  and  N_40 
REMARK    7  A    between atoms: N_40  and  O_41 
ROOT
HETATM    1  C   UNK N   1      32.879  16.179   6.435  0.00  0.00     0.004 A 
HETATM    2  C   UNK N   1      31.913  17.174   6.367  0.00  0.00     0.047 A 
HETATM    3  C   UNK N   1      30.771  16.740   5.673  0.00  0.00     0.055 A 
HETATM    4  C   UNK N   1      30.824  15.450   5.172  0.00  0.00     0.076 A 
HETATM    5  S   UNK N   1      32.295  14.837   5.638  0.00  0.00    -0.087 SA
HETATM    6  C   UNK N   1      29.767  14.964   4.378  0.00  0.00     0.124 A 
HETATM    7  N   UNK N   1      28.731  15.831   4.112  0.00  0.00    -0.327 N 
ATOM      8  HN  UNK N   1      27.957  15.519   3.526  1.00  0.00     0.169 HD
HETATM    9  C   UNK N   1      28.716  17.111   4.622  0.00  0.00     0.119 A 
HETATM   10  N   UNK N   1      29.736  17.542   5.406  0.00  0.00    -0.340 N 
ATOM     11  HN  UNK N   1      29.713  18.485   5.794  1.00  0.00     0.167 HD
ENDROOT
BRANCH   1  12
HETATM   12  C   UNK N   1      34.274  16.391   6.880  0.00  0.00     0.186 C 
BRANCH  12  13
HETATM   13  N   UNK N   1      34.353  17.115   8.124  0.00  0.00    -0.217 N 
HETATM   14  C   UNK N   1      34.617  18.535   8.108  0.00  0.00     0.169 C 
HETATM   15  C   UNK N   1      34.504  16.372   9.316  0.00  0.00     0.679 A 
HETATM   16  N   UNK N   1      34.971  16.961  10.451  0.00  0.00    -0.201 N 
HETATM   17  N   UNK N   1      34.278  15.031   9.290  0.00  0.00    -0.201 N 
HETATM   18  C   UNK N   1      35.267  16.212  11.547  0.00  0.00     0.124 A 
ATOM     19  HN  UNK N   1      35.098  17.972  10.480  1.00  0.00     0.183 HD
HETATM   20  C   UNK N   1      35.083  14.826  11.513  0.00  0.00     0.066 A 
HETATM   21  C   UNK N   1      34.551  14.256  10.361  0.00  0.00     0.124 A 
ATOM     22  HN  UNK N   1      33.897  14.603   8.447  1.00  0.00     0.183 HD
BRANCH  20  23
HETATM   23  C   UNK N   1      35.520  13.958  12.617  0.00  0.00     0.277 C 
HETATM   24  O   UNK N   1      34.706  13.284  13.231  0.00  0.00    -0.265 OA
HETATM   25  N   UNK N   1      36.821  13.959  12.990  0.00  0.00    -0.233 N 
HETATM   26  H   UNK N   1      37.470  14.502  12.485  0.00  0.00     0.197 HD
BRANCH  25  27
HETATM   27  O   UNK N   1      37.243  13.234  14.035  0.00  0.00    -0.287 OA
HETATM   28  H   UNK N   1      38.191  13.101  14.190  0.00  0.00     0.244 HD
ENDBRANCH  25  27
ENDBRANCH  20  23
ENDBRANCH  12  13
ENDBRANCH   1  12
BRANCH   6  29
HETATM   29  N   UNK N   1      29.789  13.666   3.766  0.00  0.00    -0.362 N 
HETATM   30  C   UNK N   1      30.179  13.471   2.382  0.00  0.00     0.150 C 
HETATM   31  C   UNK N   1      31.048  12.215   2.286  0.00  0.00     0.187 C 
HETATM   32  O   UNK N   1      30.337  11.123   2.816  0.00  0.00    -0.388 OA
HETATM   33  C   UNK N   1      30.268  11.331   4.207  0.00  0.00     0.187 C 
HETATM   34  C   UNK N   1      29.329  12.506   4.502  0.00  0.00     0.150 C 
ENDBRANCH   6  29
BRANCH   9  35
HETATM   35  C   UNK N   1      27.731  18.118   4.201  0.00  0.00     0.024 A 
HETATM   36  C   UNK N   1      27.861  19.476   4.505  0.00  0.00     0.021 A 
HETATM   37  C   UNK N   1      26.804  20.349   4.215  0.00  0.00     0.057 A 
HETATM   38  C   UNK N   1      25.629  19.849   3.637  0.00  0.00     0.141 A 
HETATM   39  N   UNK N   1      25.537  18.526   3.330  0.00  0.00    -0.346 N 
HETATM   40  C   UNK N   1      26.546  17.668   3.602  0.00  0.00     0.105 A 
ATOM     41  HN  UNK N   1      24.688  18.174   2.888  1.00  0.00     0.167 HD
BRANCH  38  42
HETATM   42  O   UNK N   1      24.590  20.678   3.401  0.00  0.00    -0.341 OA
HETATM   43  C   UNK N   1      23.333  20.205   3.092  0.00  0.00     0.211 C 
ENDBRANCH  38  42
ENDBRANCH   9  35
TORSDOF 7
ENDMDL
MODEL 6
REMARK VINA RESULT:      -8.2      6.314     10.746
REMARK  7 active torsions:
REMARK  status: ('A' for Active; 'I' for Inactive)
REMARK    1  A    between atoms: N_2  and  C_3 
REMARK       I    between atoms: N_2  and  C_30 
REMARK    2  A    between atoms: C_3  and  C_4 
REMARK    3  A    between atoms: C_9  and  N_24 
REMARK    4  A    between atoms: C_12  and  C_15 
REMARK    5  A    between atoms: C_18  and  O_22 
REMARK    6  A    between atoms: C_34  and  C_38 
REMARK       I    between atoms: C_38  and  N_40 
REMARK    7  A    between atoms: N_40  and  O_41 
ROOT
HETATM    1  C   UNK N   1      35.356  14.014  10.768  0.00  0.00     0.004 A 
HETATM    2  C   UNK N   1      34.193  14.766  10.867  0.00  0.00     0.047 A 
HETATM    3  C   UNK N   1      33.610  14.986   9.607  0.00  0.00     0.055 A 
HETATM    4  C   UNK N   1      34.293  14.456   8.526  0.00  0.00     0.076 A 
HETATM    5  S   UNK N   1      35.614  13.672   9.157  0.00  0.00    -0.087 SA
HETATM    6  C   UNK N   1      33.837  14.711   7.218  0.00  0.00     0.124 A 
HETATM    7  N   UNK N   1      32.731  15.518   7.084  0.00  0.00    -0.327 N 
ATOM      8  HN  UNK N   1      32.383  15.739   6.151  1.00  0.00     0.169 HD
HETATM    9  C   UNK N   1      32.081  16.034   8.184  0.00  0.00     0.119 A 
HETATM   10  N   UNK N   1      32.527  15.749   9.433  0.00  0.00    -0.340 N 
ATOM     11  HN  UNK N   1      32.033  16.121  10.244  1.00  0.00     0.167 HD
ENDROOT
BRANCH   1  12
HETATM   12  C   UNK N   1      36.326  13.817  11.867  0.00  0.00     0.186 C 
BRANCH  12  13
HETATM   13  N   UNK N   1      35.971  12.713  12.725  0.00  0.00    -0.217 N 
HETATM   14  C   UNK N   1      35.331  11.548  12.161  0.00  0.00     0.169 C 
HETATM   15  C   UNK N   1      35.952  12.937  14.120  0.00  0.00     0.679 A 
HETATM   16  N   UNK N   1      35.269  12.102  14.951  0.00  0.00    -0.201 N 
HETATM   17  N   UNK N   1      36.537  14.060  14.616  0.00  0.00    -0.201 N 
HETATM   18  C   UNK N   1      35.118  12.408  16.267  0.00  0.00     0.124 A 
ATOM     19  HN  UNK N   1      34.869  11.239  14.583  1.00  0.00     0.183 HD
HETATM   20  C   UNK N   1      35.676  13.586  16.776  0.00  0.00     0.066 A 
HETATM   21  C   UNK N   1      36.417  14.392  15.919  0.00  0.00     0.124 A 
ATOM     22  HN  UNK N   1      37.075  14.662  13.993  1.00  0.00     0.183 HD
BRANCH  20  23
HETATM   23  C   UNK N   1      35.422  14.032  18.154  0.00  0.00     0.277 C 
HETATM   24  O   UNK N   1      35.559  15.207  18.457  0.00  0.00    -0.265 OA
HETATM   25  N   UNK N   1      35.096  13.119  19.101  0.00  0.00    -0.233 N 
HETATM   26  H   UNK N   1      34.984  12.175  18.844  0.00  0.00     0.197 HD
BRANCH  25  27
HETATM   27  O   UNK N   1      34.925  13.479  20.379  0.00  0.00    -0.287 OA
HETATM   28  H   UNK N   1      35.459  13.074  21.080  0.00  0.00     0.244 HD
ENDBRANCH  25  27
ENDBRANCH  20  23
ENDBRANCH  12  13
ENDBRANCH   1  12
BRANCH   6  29
HETATM   29  N   UNK N   1      34.537  14.256   6.050  0.00  0.00    -0.362 N 
HETATM   30  C   UNK N   1      35.801  14.834   5.632  0.00  0.00     0.150 C 
HETATM   31  C   UNK N   1      36.726  13.711   5.161  0.00  0.00     0.187 C 
HETATM   32  O   UNK N   1      36.087  12.988   4.137  0.00  0.00    -0.388 OA
HETATM   33  C   UNK N   1      35.039  12.273   4.750  0.00  0.00     0.187 C 
HETATM   34  C   UNK N   1      33.945  13.250   5.192  0.00  0.00     0.150 C 
ENDBRANCH   6  29
BRANCH   9  35
HETATM   35  C   UNK N   1      31.023  17.050   8.073  0.00  0.00     0.024 A 
HETATM   36  C   UNK N   1      30.647  17.870   9.140  0.00  0.00     0.021 A 
HETATM   37  C   UNK N   1      29.524  18.698   9.008  0.00  0.00     0.057 A 
HETATM   38  C   UNK N   1      28.787  18.683   7.816  0.00  0.00     0.141 A 
HETATM   39  N   UNK N   1      29.187  17.891   6.784  0.00  0.00    -0.346 N 
HETATM   40  C   UNK N   1      30.269  17.086   6.892  0.00  0.00     0.105 A 
ATOM     41  HN  UNK N   1      28.660  17.904   5.912  1.00  0.00     0.167 HD
BRANCH  38  42
HETATM   42  O   UNK N   1      27.676  19.442   7.703  0.00  0.00    -0.341 OA
HETATM   43  C   UNK N   1      27.387  20.148   6.556  0.00  0.00     0.211 C 
ENDBRANCH  38  42
ENDBRANCH   9  35
TORSDOF 7
ENDMDL
MODEL 7
REMARK VINA RESULT:      -8.1      1.853      2.320
REMARK  7 active torsions:
REMARK  status: ('A' for Active; 'I' for Inactive)
REMARK    1  A    between atoms: N_2  and  C_3 
REMARK       I    between atoms: N_2  and  C_30 
REMARK    2  A    between atoms: C_3  and  C_4 
REMARK    3  A    between atoms: C_9  and  N_24 
REMARK    4  A    between atoms: C_12  and  C_15 
REMARK    5  A    between atoms: C_18  and  O_22 
REMARK    6  A    between atoms: C_34  and  C_38 
REMARK       I    between atoms: C_38  and  N_40 
REMARK    7  A    between atoms: N_40  and  O_41 
ROOT
HETATM    1  C   UNK N   1      26.869  17.164   4.915  0.00  0.00     0.004 A 
HETATM    2  C   UNK N   1      26.412  16.305   5.905  0.00  0.00     0.047 A 
HETATM    3  C   UNK N   1      25.020  16.123   5.829  0.00  0.00     0.055 A 
HETATM    4  C   UNK N   1      24.372  16.832   4.831  0.00  0.00     0.076 A 
HETATM    5  S   UNK N   1      25.557  17.661   4.015  0.00  0.00    -0.087 SA
HETATM    6  C   UNK N   1      22.967  16.789   4.742  0.00  0.00     0.124 A 
HETATM    7  N   UNK N   1      22.300  16.053   5.693  0.00  0.00    -0.327 N 
ATOM      8  HN  UNK N   1      21.280  16.013   5.670  1.00  0.00     0.169 HD
HETATM    9  C   UNK N   1      22.978  15.365   6.676  0.00  0.00     0.119 A 
HETATM   10  N   UNK N   1      24.333  15.404   6.721  0.00  0.00    -0.340 N 
ATOM     11  HN  UNK N   1      24.831  14.880   7.441  1.00  0.00     0.167 HD
ENDROOT
BRANCH   1  12
HETATM   12  C   UNK N   1      28.229  17.747   4.870  0.00  0.00     0.186 C 
BRANCH  12  13
HETATM   13  N   UNK N   1      29.229  16.784   4.483  0.00  0.00    -0.217 N 
HETATM   14  C   UNK N   1      29.086  16.066   3.238  0.00  0.00     0.169 C 
HETATM   15  C   UNK N   1      30.130  16.329   5.472  0.00  0.00     0.679 A 
HETATM   16  N   UNK N   1      30.825  15.170   5.304  0.00  0.00    -0.201 N 
HETATM   17  N   UNK N   1      30.219  17.010   6.646  0.00  0.00    -0.201 N 
HETATM   18  C   UNK N   1      31.565  14.654   6.321  0.00  0.00     0.124 A 
ATOM     19  HN  UNK N   1      30.790  14.686   4.407  1.00  0.00     0.183 HD
HETATM   20  C   UNK N   1      31.623  15.323   7.548  0.00  0.00     0.066 A 
HETATM   21  C   UNK N   1      30.951  16.534   7.676  0.00  0.00     0.124 A 
ATOM     22  HN  UNK N   1      29.723  17.894   6.752  1.00  0.00     0.183 HD
BRANCH  20  23
HETATM   23  C   UNK N   1      32.292  14.736   8.720  0.00  0.00     0.277 C 
HETATM   24  O   UNK N   1      32.568  13.546   8.740  0.00  0.00    -0.265 OA
HETATM   25  N   UNK N   1      32.541  15.511   9.802  0.00  0.00    -0.233 N 
HETATM   26  H   UNK N   1      32.319  16.471   9.773  0.00  0.00     0.197 HD
BRANCH  25  27
HETATM   27  O   UNK N   1      33.086  14.996  10.912  0.00  0.00    -0.287 OA
HETATM   28  H   UNK N   1      34.033  15.106  11.092  0.00  0.00     0.244 HD
ENDBRANCH  25  27
ENDBRANCH  20  23
ENDBRANCH  12  13
ENDBRANCH   1  12
BRANCH   6  29
HETATM   29  N   UNK N   1      22.227  17.558   3.781  0.00  0.00    -0.362 N 
HETATM   30  C   UNK N   1      21.432  16.934   2.740  0.00  0.00     0.150 C 
HETATM   31  C   UNK N   1      20.121  17.708   2.591  0.00  0.00     0.187 C 
HETATM   32  O   UNK N   1      20.412  19.059   2.325  0.00  0.00    -0.388 OA
HETATM   33  C   UNK N   1      20.939  19.594   3.517  0.00  0.00     0.187 C 
HETATM   34  C   UNK N   1      22.330  19.004   3.771  0.00  0.00     0.150 C 
ENDBRANCH   6  29
BRANCH   9  35
HETATM   35  C   UNK N   1      22.294  14.734   7.815  0.00  0.00     0.024 A 
HETATM   36  C   UNK N   1      22.653  13.478   8.311  0.00  0.00     0.021 A 
HETATM   37  C   UNK N   1      21.853  12.871   9.288  0.00  0.00     0.057 A 
HETATM   38  C   UNK N   1      20.699  13.523   9.744  0.00  0.00     0.141 A 
HETATM   39  N   UNK N   1      20.383  14.754   9.261  0.00  0.00    -0.346 N 
HETATM   40  C   UNK N   1      21.144  15.358   8.318  0.00  0.00     0.105 A 
ATOM     41  HN  UNK N   1      19.556  15.233   9.615  1.00  0.00     0.167 HD
BRANCH  38  42
HETATM   42  O   UNK N   1      19.899  12.920  10.649  0.00  0.00    -0.341 OA
HETATM   43  C   UNK N   1      20.401  12.114  11.648  0.00  0.00     0.211 C 
ENDBRANCH  38  42
ENDBRANCH   9  35
TORSDOF 7
ENDMDL
MODEL 8
REMARK VINA RESULT:      -7.9      2.390      6.223
REMARK  7 active torsions:
REMARK  status: ('A' for Active; 'I' for Inactive)
REMARK    1  A    between atoms: N_2  and  C_3 
REMARK       I    between atoms: N_2  and  C_30 
REMARK    2  A    between atoms: C_3  and  C_4 
REMARK    3  A    between atoms: C_9  and  N_24 
REMARK    4  A    between atoms: C_12  and  C_15 
REMARK    5  A    between atoms: C_18  and  O_22 
REMARK    6  A    between atoms: C_34  and  C_38 
REMARK       I    between atoms: C_38  and  N_40 
REMARK    7  A    between atoms: N_40  and  O_41 
ROOT
HETATM    1  C   UNK N   1      27.734  15.371   5.525  0.00  0.00     0.004 A 
HETATM    2  C   UNK N   1      27.203  16.566   5.058  0.00  0.00     0.047 A 
HETATM    3  C   UNK N   1      25.817  16.637   5.281  0.00  0.00     0.055 A 
HETATM    4  C   UNK N   1      25.244  15.528   5.880  0.00  0.00     0.076 A 
HETATM    5  S   UNK N   1      26.489  14.468   6.169  0.00  0.00    -0.087 SA
HETATM    6  C   UNK N   1      23.847  15.469   6.051  0.00  0.00     0.124 A 
HETATM    7  N   UNK N   1      23.110  16.529   5.574  0.00  0.00    -0.327 N 
ATOM      8  HN  UNK N   1      22.094  16.512   5.664  1.00  0.00     0.169 HD
HETATM    9  C   UNK N   1      23.714  17.613   4.976  0.00  0.00     0.119 A 
HETATM   10  N   UNK N   1      25.065  17.654   4.848  0.00  0.00    -0.340 N 
ATOM     11  HN  UNK N   1      25.508  18.466   4.420  1.00  0.00     0.167 HD
ENDROOT
BRANCH   1  12
HETATM   12  C   UNK N   1      29.101  14.887   5.230  0.00  0.00     0.186 C 
BRANCH  12  13
HETATM   13  N   UNK N   1      29.949  15.921   4.691  0.00  0.00    -0.217 N 
HETATM   14  C   UNK N   1      30.073  16.069   3.260  0.00  0.00     0.169 C 
HETATM   15  C   UNK N   1      30.881  16.532   5.558  0.00  0.00     0.679 A 
HETATM   16  N   UNK N   1      31.955  17.209   5.064  0.00  0.00    -0.201 N 
HETATM   17  N   UNK N   1      30.755  16.348   6.900  0.00  0.00    -0.201 N 
HETATM   18  C   UNK N   1      32.933  17.656   5.895  0.00  0.00     0.124 A 
ATOM     19  HN  UNK N   1      32.024  17.383   4.061  1.00  0.00     0.183 HD
HETATM   20  C   UNK N   1      32.834  17.428   7.272  0.00  0.00     0.066 A 
HETATM   21  C   UNK N   1      31.701  16.786   7.758  0.00  0.00     0.124 A 
ATOM     22  HN  UNK N   1      29.932  15.870   7.265  1.00  0.00     0.183 HD
BRANCH  20  23
HETATM   23  C   UNK N   1      33.930  17.765   8.194  0.00  0.00     0.277 C 
HETATM   24  O   UNK N   1      34.850  18.479   7.824  0.00  0.00    -0.265 OA
HETATM   25  N   UNK N   1      33.944  17.227   9.437  0.00  0.00    -0.233 N 
HETATM   26  H   UNK N   1      33.195  16.656   9.726  0.00  0.00     0.197 HD
BRANCH  25  27
HETATM   27  O   UNK N   1      34.960  17.456  10.279  0.00  0.00    -0.287 OA
HETATM   28  H   UNK N   1      35.381  16.722  10.753  0.00  0.00     0.244 HD
ENDBRANCH  25  27
ENDBRANCH  20  23
ENDBRANCH  12  13
ENDBRANCH   1  12
BRANCH   6  29
HETATM   29  N   UNK N   1      23.180  14.320   6.595  0.00  0.00    -0.362 N 
HETATM   30  C   UNK N   1      23.134  13.049   5.896  0.00  0.00     0.150 C 
HETATM   31  C   UNK N   1      23.342  11.921   6.908  0.00  0.00     0.187 C 
HETATM   32  O   UNK N   1      22.370  12.027   7.920  0.00  0.00    -0.388 OA
HETATM   33  C   UNK N   1      22.705  13.168   8.674  0.00  0.00     0.187 C 
HETATM   34  C   UNK N   1      22.445  14.427   7.840  0.00  0.00     0.150 C 
ENDBRANCH   6  29
BRANCH   9  35
HETATM   35  C   UNK N   1      22.951  18.662   4.285  0.00  0.00     0.024 A 
HETATM   36  C   UNK N   1      21.555  18.661   4.216  0.00  0.00     0.021 A 
HETATM   37  C   UNK N   1      20.907  19.601   3.403  0.00  0.00     0.057 A 
HETATM   38  C   UNK N   1      21.664  20.518   2.662  0.00  0.00     0.141 A 
HETATM   39  N   UNK N   1      23.021  20.512   2.763  0.00  0.00    -0.346 N 
HETATM   40  C   UNK N   1      23.666  19.614   3.544  0.00  0.00     0.105 A 
ATOM     41  HN  UNK N   1      23.564  21.198   2.240  1.00  0.00     0.167 HD
BRANCH  38  42
HETATM   42  O   UNK N   1      21.046  21.392   1.839  0.00  0.00    -0.341 OA
HETATM   43  C   UNK N   1      20.681  21.056   0.554  0.00  0.00     0.211 C 
ENDBRANCH  38  42
ENDBRANCH   9  35
TORSDOF 7
ENDMDL
MODEL 9
REMARK VINA RESULT:      -7.9      2.128      2.218
REMARK  7 active torsions:
REMARK  status: ('A' for Active; 'I' for Inactive)
REMARK    1  A    between atoms: N_2  and  C_3 
REMARK       I    between atoms: N_2  and  C_30 
REMARK    2  A    between atoms: C_3  and  C_4 
REMARK    3  A    between atoms: C_9  and  N_24 
REMARK    4  A    between atoms: C_12  and  C_15 
REMARK    5  A    between atoms: C_18  and  O_22 
REMARK    6  A    between atoms: C_34  and  C_38 
REMARK       I    between atoms: C_38  and  N_40 
REMARK    7  A    between atoms: N_40  and  O_41 
ROOT
HETATM    1  C   UNK N   1      26.307  16.827   4.585  0.00  0.00     0.004 A 
HETATM    2  C   UNK N   1      26.160  15.840   5.550  0.00  0.00     0.047 A 
HETATM    3  C   UNK N   1      24.806  15.592   5.834  0.00  0.00     0.055 A 
HETATM    4  C   UNK N   1      23.892  16.371   5.145  0.00  0.00     0.076 A 
HETATM    5  S   UNK N   1      24.786  17.349   4.143  0.00  0.00    -0.087 SA
HETATM    6  C   UNK N   1      22.519  16.262   5.437  0.00  0.00     0.124 A 
HETATM    7  N   UNK N   1      22.157  15.389   6.438  0.00  0.00    -0.327 N 
ATOM      8  HN  UNK N   1      21.172  15.297   6.689  1.00  0.00     0.169 HD
HETATM    9  C   UNK N   1      23.095  14.635   7.108  0.00  0.00     0.119 A 
HETATM   10  N   UNK N   1      24.409  14.742   6.786  0.00  0.00    -0.340 N 
ATOM     11  HN  UNK N   1      25.099  14.170   7.274  1.00  0.00     0.167 HD
ENDROOT
BRANCH   1  12
HETATM   12  C   UNK N   1      27.587  17.485   4.242  0.00  0.00     0.186 C 
BRANCH  12  13
HETATM   13  N   UNK N   1      28.470  16.619   3.500  0.00  0.00    -0.217 N 
HETATM   14  C   UNK N   1      27.920  15.527   2.732  0.00  0.00     0.169 C 
HETATM   15  C   UNK N   1      29.848  16.655   3.810  0.00  0.00     0.679 A 
HETATM   16  N   UNK N   1      30.670  15.629   3.456  0.00  0.00    -0.201 N 
HETATM   17  N   UNK N   1      30.329  17.681   4.562  0.00  0.00    -0.201 N 
HETATM   18  C   UNK N   1      31.956  15.591   3.894  0.00  0.00     0.124 A 
ATOM     19  HN  UNK N   1      30.317  14.883   2.856  1.00  0.00     0.183 HD
HETATM   20  C   UNK N   1      32.445  16.618   4.708  0.00  0.00     0.066 A 
HETATM   21  C   UNK N   1      31.603  17.683   5.008  0.00  0.00     0.124 A 
ATOM     22  HN  UNK N   1      29.716  18.462   4.794  1.00  0.00     0.183 HD
BRANCH  20  23
HETATM   23  C   UNK N   1      33.780  16.552   5.323  0.00  0.00     0.277 C 
HETATM   24  O   UNK N   1      34.259  17.537   5.863  0.00  0.00    -0.265 OA
HETATM   25  N   UNK N   1      34.501  15.410   5.229  0.00  0.00    -0.233 N 
HETATM   26  H   UNK N   1      34.103  14.620   4.795  0.00  0.00     0.197 HD
BRANCH  25  27
HETATM   27  O   UNK N   1      35.746  15.335   5.716  0.00  0.00    -0.287 OA
HETATM   28  H   UNK N   1      35.912  14.931   6.582  0.00  0.00     0.244 HD
ENDBRANCH  25  27
ENDBRANCH  20  23
ENDBRANCH  12  13
ENDBRANCH   1  12
BRANCH   6  29
HETATM   29  N   UNK N   1      21.525  17.090   4.816  0.00  0.00    -0.362 N 
HETATM   30  C   UNK N   1      21.350  18.486   5.170  0.00  0.00     0.150 C 
HETATM   31  C   UNK N   1      21.101  19.293   3.894  0.00  0.00     0.187 C 
HETATM   32  O   UNK N   1      19.991  18.754   3.219  0.00  0.00    -0.388 OA
HETATM   33  C   UNK N   1      20.402  17.508   2.708  0.00  0.00     0.187 C 
HETATM   34  C   UNK N   1      20.593  16.519   3.863  0.00  0.00     0.150 C 
ENDBRANCH   6  29
BRANCH   9  35
HETATM   35  C   UNK N   1      22.768  13.846   8.304  0.00  0.00     0.024 A 
HETATM   36  C   UNK N   1      21.514  13.888   8.919  0.00  0.00     0.021 A 
HETATM   37  C   UNK N   1      21.328  13.238  10.146  0.00  0.00     0.057 A 
HETATM   38  C   UNK N   1      22.402  12.566  10.746  0.00  0.00     0.141 A 
HETATM   39  N   UNK N   1      23.607  12.521  10.116  0.00  0.00    -0.346 N 
HETATM   40  C   UNK N   1      23.807  13.142   8.931  0.00  0.00     0.105 A 
ATOM     41  HN  UNK N   1      24.377  12.010  10.547  1.00  0.00     0.167 HD
BRANCH  38  42
HETATM   42  O   UNK N   1      22.240  11.980  11.952  0.00  0.00    -0.341 OA
HETATM   43  C   UNK N   1      23.246  11.950  12.892  0.00  0.00     0.211 C 
ENDBRANCH  38  42
ENDBRANCH   9  35
TORSDOF 7
ENDMDL
