MODEL 1
REMARK VINA RESULT:      -8.6      0.000      0.000
REMARK  8 active torsions:
REMARK  status: ('A' for Active; 'I' for Inactive)
REMARK    1  A    between atoms: O_2  and  C_3 
REMARK    2  A    between atoms: C_8  and  O_9 
REMARK    3  A    between atoms: O_9  and  C_10 
REMARK    4  A    between atoms: C_10  and  C_11 
REMARK    5  A    between atoms: C_11  and  C_12 
REMARK    6  A    between atoms: C_12  and  O_13 
REMARK    7  A    between atoms: O_13  and  C_14 
REMARK    8  A    between atoms: C_19  and  O_20 
ROOT
HETATM    1  C   UNK N   1      25.267  13.998   2.154  0.00  0.00     0.053 C 
ENDROOT
BRANCH   1   2
HETATM    2  C   UNK N   1      23.986  14.722   2.569  0.00  0.00     0.178 C 
BRANCH   2   3
HETATM    3  O   UNK N   1      23.024  13.825   2.982  0.00  0.00    -0.348 OA
BRANCH   3   4
HETATM    4  C   UNK N   1      22.686  13.587   4.274  0.00  0.00     0.104 A 
HETATM    5  C   UNK N   1      23.335  12.608   5.041  0.00  0.00     0.070 A 
HETATM    6  C   UNK N   1      23.010  12.396   6.391  0.00  0.00     0.050 A 
HETATM    7  C   UNK N   1      21.967  13.176   6.983  0.00  0.00     0.061 A 
HETATM    8  N   UNK N   1      23.681  11.327   7.053  0.00  0.00    -0.367 N 
HETATM    9  C   UNK N   1      21.312  14.125   6.187  0.00  0.00     0.059 A 
HETATM   10  C   UNK N   1      21.469  13.036   8.384  0.00  0.00     0.257 C 
HETATM   11  C   UNK N   1      21.669  14.350   4.853  0.00  0.00     0.102 A 
HETATM   12  N   UNK N   1      22.251  12.592   9.404  0.00  0.00    -0.334 N 
HETATM   13  O   UNK N   1      20.320  13.388   8.629  0.00  0.00    -0.267 OA
HETATM   14  C   UNK N   1      21.749  12.482  10.748  0.00  0.00     0.160 A 
HETATM   15  C   UNK N   1      23.665  12.343   9.263  0.00  0.00     0.130 A 
HETATM   16  C   UNK N   1      22.957  12.100  11.501  0.00  0.00    -0.069 A 
HETATM   17  C   UNK N   1      24.171  11.968  10.656  0.00  0.00     0.065 A 
HETATM   18  C   UNK N   1      22.960  11.897  12.814  0.00  0.00     0.016 C 
HETATM   19  C   UNK N   1      23.930  11.236   8.312  0.00  0.00     0.087 C 
ATOM     20  HN  UNK N   1      23.998  10.553   6.468  1.00  0.00     0.165 HD
BRANCH  11  21
HETATM   21  O   UNK N   1      21.054  15.306   4.116  0.00  0.00    -0.353 OA
HETATM   22  C   UNK N   1      19.809  15.140   3.551  0.00  0.00     0.210 C 
ENDBRANCH  11  21
ENDBRANCH   3   4
ENDBRANCH   2   3
ENDBRANCH   1   2
BRANCH   1  23
HETATM   23  C   UNK N   1      26.450  14.943   1.949  0.00  0.00     0.178 C 
BRANCH  23  24
HETATM   24  O   UNK N   1      26.370  15.956   2.876  0.00  0.00    -0.348 OA
BRANCH  24  25
HETATM   25  C   UNK N   1      27.314  16.255   3.798  0.00  0.00     0.104 A 
HETATM   26  C   UNK N   1      28.604  16.674   3.436  0.00  0.00     0.070 A 
HETATM   27  C   UNK N   1      29.569  17.008   4.402  0.00  0.00     0.050 A 
HETATM   28  C   UNK N   1      29.223  16.914   5.787  0.00  0.00     0.061 A 
HETATM   29  N   UNK N   1      30.780  17.578   3.911  0.00  0.00    -0.367 N 
HETATM   30  C   UNK N   1      27.920  16.512   6.117  0.00  0.00     0.059 A 
HETATM   31  C   UNK N   1      30.080  17.326   6.943  0.00  0.00     0.257 C 
HETATM   32  C   UNK N   1      26.971  16.186   5.146  0.00  0.00     0.102 A 
HETATM   33  O   UNK N   1      29.523  17.573   8.006  0.00  0.00    -0.267 OA
HETATM   34  N   UNK N   1      31.436  17.425   6.881  0.00  0.00    -0.334 N 
HETATM   35  C   UNK N   1      32.194  17.905   8.008  0.00  0.00     0.160 A 
HETATM   36  C   UNK N   1      32.230  16.960   5.773  0.00  0.00     0.130 A 
HETATM   37  C   UNK N   1      33.578  17.797   7.522  0.00  0.00    -0.069 A 
HETATM   38  C   UNK N   1      34.626  18.213   8.227  0.00  0.00     0.016 C 
HETATM   39  C   UNK N   1      33.686  17.243   6.148  0.00  0.00     0.065 A 
HETATM   40  C   UNK N   1      31.918  17.655   4.503  0.00  0.00     0.087 C 
ATOM     41  HN  UNK N   1      30.738  17.976   2.972  1.00  0.00     0.165 HD
BRANCH  32  42
HETATM   42  O   UNK N   1      25.709  15.835   5.492  0.00  0.00    -0.353 OA
HETATM   43  C   UNK N   1      25.402  15.175   6.660  0.00  0.00     0.210 C 
ENDBRANCH  32  42
ENDBRANCH  24  25
ENDBRANCH  23  24
ENDBRANCH   1  23
TORSDOF 8
ENDMDL
MODEL 2
REMARK VINA RESULT:      -8.6      6.371     11.569
REMARK  8 active torsions:
REMARK  status: ('A' for Active; 'I' for Inactive)
REMARK    1  A    between atoms: O_2  and  C_3 
REMARK    2  A    between atoms: C_8  and  O_9 
REMARK    3  A    between atoms: O_9  and  C_10 
REMARK    4  A    between atoms: C_10  and  C_11 
REMARK    5  A    between atoms: C_11  and  C_12 
REMARK    6  A    between atoms: C_12  and  O_13 
REMARK    7  A    between atoms: O_13  and  C_14 
REMARK    8  A    between atoms: C_19  and  O_20 
ROOT
HETATM    1  C   UNK N   1      34.025  17.103   8.973  0.00  0.00     0.053 C 
ENDROOT
BRANCH   1   2
HETATM    2  C   UNK N   1      35.111  16.869  10.024  0.00  0.00     0.178 C 
BRANCH   2   3
HETATM    3  O   UNK N   1      35.596  15.581   9.954  0.00  0.00    -0.348 OA
BRANCH   3   4
HETATM    4  C   UNK N   1      35.625  14.703  10.988  0.00  0.00     0.104 A 
HETATM    5  C   UNK N   1      36.207  15.030  12.221  0.00  0.00     0.070 A 
HETATM    6  C   UNK N   1      36.196  14.133  13.301  0.00  0.00     0.050 A 
HETATM    7  C   UNK N   1      35.605  12.842  13.123  0.00  0.00     0.061 A 
HETATM    8  N   UNK N   1      36.880  14.541  14.483  0.00  0.00    -0.367 N 
HETATM    9  C   UNK N   1      35.058  12.528  11.872  0.00  0.00     0.059 A 
HETATM   10  C   UNK N   1      35.559  11.761  14.152  0.00  0.00     0.257 C 
HETATM   11  C   UNK N   1      35.046  13.443  10.815  0.00  0.00     0.102 A 
HETATM   12  N   UNK N   1      35.549  12.013  15.489  0.00  0.00    -0.334 N 
HETATM   13  O   UNK N   1      35.474  10.599  13.769  0.00  0.00    -0.267 OA
HETATM   14  C   UNK N   1      35.488  10.951  16.458  0.00  0.00     0.160 A 
HETATM   15  C   UNK N   1      35.445  13.342  16.039  0.00  0.00     0.130 A 
HETATM   16  C   UNK N   1      35.366  11.694  17.725  0.00  0.00    -0.069 A 
HETATM   17  C   UNK N   1      35.359  13.169  17.555  0.00  0.00     0.065 A 
HETATM   18  C   UNK N   1      35.268  11.098  18.909  0.00  0.00     0.016 C 
HETATM   19  C   UNK N   1      36.625  14.171  15.688  0.00  0.00     0.087 C 
ATOM     20  HN  UNK N   1      37.653  15.196  14.362  1.00  0.00     0.165 HD
BRANCH  11  21
HETATM   21  O   UNK N   1      34.470  13.135   9.628  0.00  0.00    -0.353 OA
HETATM   22  C   UNK N   1      35.041  12.282   8.710  0.00  0.00     0.210 C 
ENDBRANCH  11  21
ENDBRANCH   3   4
ENDBRANCH   2   3
ENDBRANCH   1   2
BRANCH   1  23
HETATM   23  C   UNK N   1      34.271  18.350   8.125  0.00  0.00     0.178 C 
BRANCH  23  24
HETATM   24  O   UNK N   1      34.538  17.958   6.833  0.00  0.00    -0.348 OA
BRANCH  24  25
HETATM   25  C   UNK N   1      33.784  17.107   6.098  0.00  0.00     0.104 A 
HETATM   26  C   UNK N   1      32.455  17.399   5.752  0.00  0.00     0.070 A 
HETATM   27  C   UNK N   1      31.689  16.521   4.965  0.00  0.00     0.050 A 
HETATM   28  C   UNK N   1      32.285  15.301   4.510  0.00  0.00     0.061 A 
HETATM   29  N   UNK N   1      30.416  17.002   4.542  0.00  0.00    -0.367 N 
HETATM   30  C   UNK N   1      33.621  15.049   4.855  0.00  0.00     0.059 A 
HETATM   31  C   UNK N   1      31.661  14.305   3.584  0.00  0.00     0.257 C 
HETATM   32  C   UNK N   1      34.370  15.932   5.636  0.00  0.00     0.102 A 
HETATM   33  O   UNK N   1      32.409  13.551   2.971  0.00  0.00    -0.267 OA
HETATM   34  N   UNK N   1      30.319  14.182   3.398  0.00  0.00    -0.334 N 
HETATM   35  C   UNK N   1      29.789  13.256   2.430  0.00  0.00     0.160 A 
HETATM   36  C   UNK N   1      29.328  14.846   4.205  0.00  0.00     0.130 A 
HETATM   37  C   UNK N   1      28.337  13.419   2.605  0.00  0.00    -0.069 A 
HETATM   38  C   UNK N   1      27.443  12.795   1.844  0.00  0.00     0.016 C 
HETATM   39  C   UNK N   1      27.970  14.393   3.664  0.00  0.00     0.065 A 
HETATM   40  C   UNK N   1      29.408  16.322   4.127  0.00  0.00     0.087 C 
ATOM     41  HN  UNK N   1      30.290  18.014   4.573  1.00  0.00     0.165 HD
BRANCH  32  42
HETATM   42  O   UNK N   1      35.670  15.680   5.924  0.00  0.00    -0.353 OA
HETATM   43  C   UNK N   1      36.254  14.445   5.758  0.00  0.00     0.210 C 
ENDBRANCH  32  42
ENDBRANCH  24  25
ENDBRANCH  23  24
ENDBRANCH   1  23
TORSDOF 8
ENDMDL
MODEL 3
REMARK VINA RESULT:      -8.4      6.637     11.524
REMARK  8 active torsions:
REMARK  status: ('A' for Active; 'I' for Inactive)
REMARK    1  A    between atoms: O_2  and  C_3 
REMARK    2  A    between atoms: C_8  and  O_9 
REMARK    3  A    between atoms: O_9  and  C_10 
REMARK    4  A    between atoms: C_10  and  C_11 
REMARK    5  A    between atoms: C_11  and  C_12 
REMARK    6  A    between atoms: C_12  and  O_13 
REMARK    7  A    between atoms: O_13  and  C_14 
REMARK    8  A    between atoms: C_19  and  O_20 
ROOT
HETATM    1  C   UNK N   1      34.709  14.321   7.630  0.00  0.00     0.053 C 
ENDROOT
BRANCH   1   2
HETATM    2  C   UNK N   1      34.971  14.627   9.105  0.00  0.00     0.178 C 
BRANCH   2   3
HETATM    3  O   UNK N   1      35.920  13.774   9.625  0.00  0.00    -0.348 OA
BRANCH   3   4
HETATM    4  C   UNK N   1      35.888  13.243  10.873  0.00  0.00     0.104 A 
HETATM    5  C   UNK N   1      36.449  13.906  11.974  0.00  0.00     0.070 A 
HETATM    6  C   UNK N   1      36.375  13.372  13.271  0.00  0.00     0.050 A 
HETATM    7  C   UNK N   1      35.743  12.104  13.462  0.00  0.00     0.061 A 
HETATM    8  N   UNK N   1      37.043  14.095  14.303  0.00  0.00    -0.367 N 
HETATM    9  C   UNK N   1      35.219  11.445  12.341  0.00  0.00     0.059 A 
HETATM   10  C   UNK N   1      35.630  11.380  14.763  0.00  0.00     0.257 C 
HETATM   11  C   UNK N   1      35.269  12.005  11.060  0.00  0.00     0.102 A 
HETATM   12  N   UNK N   1      35.592  12.018  15.963  0.00  0.00    -0.334 N 
HETATM   13  O   UNK N   1      35.512  10.158  14.739  0.00  0.00    -0.267 OA
HETATM   14  C   UNK N   1      35.467  11.294  17.201  0.00  0.00     0.160 A 
HETATM   15  C   UNK N   1      35.523  13.453  16.090  0.00  0.00     0.130 A 
HETATM   16  C   UNK N   1      35.338  12.384  18.185  0.00  0.00    -0.069 A 
HETATM   17  C   UNK N   1      35.390  13.742  17.585  0.00  0.00     0.065 A 
HETATM   18  C   UNK N   1      35.186  12.171  19.488  0.00  0.00     0.016 C 
HETATM   19  C   UNK N   1      36.742  14.107  15.553  0.00  0.00     0.087 C 
ATOM     20  HN  UNK N   1      37.842  14.663  14.021  1.00  0.00     0.165 HD
BRANCH  11  21
HETATM   21  O   UNK N   1      34.714  11.373   9.999  0.00  0.00    -0.353 OA
HETATM   22  C   UNK N   1      34.026  10.184  10.102  0.00  0.00     0.210 C 
ENDBRANCH  11  21
ENDBRANCH   3   4
ENDBRANCH   2   3
ENDBRANCH   1   2
BRANCH   1  23
HETATM   23  C   UNK N   1      35.889  14.671   6.726  0.00  0.00     0.178 C 
BRANCH  23  24
HETATM   24  O   UNK N   1      35.465  15.575   5.779  0.00  0.00    -0.348 OA
BRANCH  24  25
HETATM   25  C   UNK N   1      34.175  15.815   5.443  0.00  0.00     0.104 A 
HETATM   26  C   UNK N   1      33.393  14.867   4.765  0.00  0.00     0.070 A 
HETATM   27  C   UNK N   1      32.047  15.116   4.446  0.00  0.00     0.050 A 
HETATM   28  C   UNK N   1      31.466  16.369   4.823  0.00  0.00     0.061 A 
HETATM   29  N   UNK N   1      31.314  14.018   3.909  0.00  0.00    -0.367 N 
HETATM   30  C   UNK N   1      32.267  17.286   5.518  0.00  0.00     0.059 A 
HETATM   31  C   UNK N   1      30.031  16.762   4.661  0.00  0.00     0.257 C 
HETATM   32  C   UNK N   1      33.603  17.024   5.831  0.00  0.00     0.102 A 
HETATM   33  O   UNK N   1      29.602  17.660   5.378  0.00  0.00    -0.267 OA
HETATM   34  N   UNK N   1      29.188  16.193   3.758  0.00  0.00    -0.334 N 
HETATM   35  C   UNK N   1      27.797  16.563   3.709  0.00  0.00     0.160 A 
HETATM   36  C   UNK N   1      29.610  15.291   2.716  0.00  0.00     0.130 A 
HETATM   37  C   UNK N   1      27.298  15.760   2.582  0.00  0.00    -0.069 A 
HETATM   38  C   UNK N   1      26.019  15.733   2.224  0.00  0.00     0.016 C 
HETATM   39  C   UNK N   1      28.346  14.934   1.930  0.00  0.00     0.065 A 
HETATM   40  C   UNK N   1      30.219  14.046   3.237  0.00  0.00     0.087 C 
ATOM     41  HN  UNK N   1      31.708  13.092   4.081  1.00  0.00     0.165 HD
BRANCH  32  42
HETATM   42  O   UNK N   1      34.344  17.913   6.534  0.00  0.00    -0.353 OA
HETATM   43  C   UNK N   1      34.082  18.246   7.844  0.00  0.00     0.210 C 
ENDBRANCH  32  42
ENDBRANCH  24  25
ENDBRANCH  23  24
ENDBRANCH   1  23
TORSDOF 8
ENDMDL
MODEL 4
REMARK VINA RESULT:      -8.3      2.679      4.464
REMARK  8 active torsions:
REMARK  status: ('A' for Active; 'I' for Inactive)
REMARK    1  A    between atoms: O_2  and  C_3 
REMARK    2  A    between atoms: C_8  and  O_9 
REMARK    3  A    between atoms: O_9  and  C_10 
REMARK    4  A    between atoms: C_10  and  C_11 
REMARK    5  A    between atoms: C_11  and  C_12 
REMARK    6  A    between atoms: C_12  and  O_13 
REMARK    7  A    between atoms: O_13  and  C_14 
REMARK    8  A    between atoms: C_19  and  O_20 
ROOT
HETATM    1  C   UNK N   1      19.495  16.717   3.849  0.00  0.00     0.053 C 
ENDROOT
BRANCH   1   2
HETATM    2  C   UNK N   1      19.491  15.199   3.669  0.00  0.00     0.178 C 
BRANCH   2   3
HETATM    3  O   UNK N   1      20.765  14.684   3.786  0.00  0.00    -0.348 OA
BRANCH   3   4
HETATM    4  C   UNK N   1      21.376  14.378   4.957  0.00  0.00     0.104 A 
HETATM    5  C   UNK N   1      20.762  14.614   6.197  0.00  0.00     0.070 A 
HETATM    6  C   UNK N   1      21.382  14.256   7.404  0.00  0.00     0.050 A 
HETATM    7  C   UNK N   1      22.685  13.667   7.366  0.00  0.00     0.061 A 
HETATM    8  N   UNK N   1      20.700  14.609   8.606  0.00  0.00    -0.367 N 
HETATM    9  C   UNK N   1      23.290  13.471   6.118  0.00  0.00     0.059 A 
HETATM   10  C   UNK N   1      23.495  13.280   8.559  0.00  0.00     0.257 C 
HETATM   11  C   UNK N   1      22.647  13.801   4.921  0.00  0.00     0.102 A 
HETATM   12  N   UNK N   1      22.938  12.915   9.745  0.00  0.00    -0.334 N 
HETATM   13  O   UNK N   1      24.716  13.240   8.443  0.00  0.00    -0.267 OA
HETATM   14  C   UNK N   1      23.744  12.530  10.873  0.00  0.00     0.160 A 
HETATM   15  C   UNK N   1      21.517  12.736   9.925  0.00  0.00     0.130 A 
HETATM   16  C   UNK N   1      22.726  12.105  11.851  0.00  0.00    -0.069 A 
HETATM   17  C   UNK N   1      21.332  12.226  11.355  0.00  0.00     0.065 A 
HETATM   18  C   UNK N   1      23.029  11.651  13.063  0.00  0.00     0.016 C 
HETATM   19  C   UNK N   1      20.781  14.011   9.742  0.00  0.00     0.087 C 
ATOM     20  HN  UNK N   1      20.083  15.420   8.560  1.00  0.00     0.165 HD
BRANCH  11  21
HETATM   21  O   UNK N   1      23.232  13.559   3.723  0.00  0.00    -0.353 OA
HETATM   22  C   UNK N   1      23.262  12.314   3.135  0.00  0.00     0.210 C 
ENDBRANCH  11  21
ENDBRANCH   3   4
ENDBRANCH   2   3
ENDBRANCH   1   2
BRANCH   1  23
HETATM   23  C   UNK N   1      20.438  17.433   2.883  0.00  0.00     0.178 C 
BRANCH  23  24
HETATM   24  O   UNK N   1      21.108  18.418   3.571  0.00  0.00    -0.348 OA
BRANCH  24  25
HETATM   25  C   UNK N   1      22.449  18.482   3.745  0.00  0.00     0.104 A 
HETATM   26  C   UNK N   1      23.206  17.360   4.118  0.00  0.00     0.070 A 
HETATM   27  C   UNK N   1      24.602  17.431   4.269  0.00  0.00     0.050 A 
HETATM   28  C   UNK N   1      25.261  18.680   4.037  0.00  0.00     0.061 A 
HETATM   29  N   UNK N   1      25.275  16.193   4.485  0.00  0.00    -0.367 N 
HETATM   30  C   UNK N   1      24.480  19.777   3.646  0.00  0.00     0.059 A 
HETATM   31  C   UNK N   1      26.739  18.915   4.048  0.00  0.00     0.257 C 
HETATM   32  C   UNK N   1      23.093  19.691   3.496  0.00  0.00     0.102 A 
HETATM   33  O   UNK N   1      27.164  19.895   3.445  0.00  0.00    -0.267 OA
HETATM   34  N   UNK N   1      27.628  18.116   4.698  0.00  0.00    -0.334 N 
HETATM   35  C   UNK N   1      29.045  18.354   4.601  0.00  0.00     0.160 A 
HETATM   36  C   UNK N   1      27.252  17.069   5.614  0.00  0.00     0.130 A 
HETATM   37  C   UNK N   1      29.598  17.311   5.479  0.00  0.00    -0.069 A 
HETATM   38  C   UNK N   1      30.903  17.110   5.629  0.00  0.00     0.016 C 
HETATM   39  C   UNK N   1      28.562  16.465   6.125  0.00  0.00     0.065 A 
HETATM   40  C   UNK N   1      26.446  16.002   4.979  0.00  0.00     0.087 C 
ATOM     41  HN  UNK N   1      24.763  15.353   4.214  1.00  0.00     0.165 HD
BRANCH  32  42
HETATM   42  O   UNK N   1      22.367  20.756   3.082  0.00  0.00    -0.353 OA
HETATM   43  C   UNK N   1      21.489  20.706   2.023  0.00  0.00     0.210 C 
ENDBRANCH  32  42
ENDBRANCH  24  25
ENDBRANCH  23  24
ENDBRANCH   1  23
TORSDOF 8
ENDMDL
MODEL 5
REMARK VINA RESULT:      -8.2      6.595     11.286
REMARK  8 active torsions:
REMARK  status: ('A' for Active; 'I' for Inactive)
REMARK    1  A    between atoms: O_2  and  C_3 
REMARK    2  A    between atoms: C_8  and  O_9 
REMARK    3  A    between atoms: O_9  and  C_10 
REMARK    4  A    between atoms: C_10  and  C_11 
REMARK    5  A    between atoms: C_11  and  C_12 
REMARK    6  A    between atoms: C_12  and  O_13 
REMARK    7  A    between atoms: O_13  and  C_14 
REMARK    8  A    between atoms: C_19  and  O_20 
ROOT
HETATM    1  C   UNK N   1      35.323  12.198   6.815  0.00  0.00     0.053 C 
ENDROOT
BRANCH   1   2
HETATM    2  C   UNK N   1      34.888  11.486   8.097  0.00  0.00     0.178 C 
BRANCH   2   3
HETATM    3  O   UNK N   1      35.923  11.431   9.006  0.00  0.00    -0.348 OA
BRANCH   3   4
HETATM    4  C   UNK N   1      35.863  11.887  10.282  0.00  0.00     0.104 A 
HETATM    5  C   UNK N   1      34.967  11.352  11.218  0.00  0.00     0.070 A 
HETATM    6  C   UNK N   1      34.939  11.799  12.549  0.00  0.00     0.050 A 
HETATM    7  C   UNK N   1      35.824  12.851  12.945  0.00  0.00     0.061 A 
HETATM    8  N   UNK N   1      33.938  11.237  13.395  0.00  0.00    -0.367 N 
HETATM    9  C   UNK N   1      36.687  13.391  11.983  0.00  0.00     0.059 A 
HETATM   10  C   UNK N   1      35.880  13.470  14.303  0.00  0.00     0.257 C 
HETATM   11  C   UNK N   1      36.728  12.913  10.669  0.00  0.00     0.102 A 
HETATM   12  N   UNK N   1      35.541  12.799  15.436  0.00  0.00    -0.334 N 
HETATM   13  O   UNK N   1      36.301  14.619  14.399  0.00  0.00    -0.267 OA
HETATM   14  C   UNK N   1      35.620  13.417  16.733  0.00  0.00     0.160 A 
HETATM   15  C   UNK N   1      35.226  11.391  15.453  0.00  0.00     0.130 A 
HETATM   16  C   UNK N   1      35.294  12.295  17.632  0.00  0.00    -0.069 A 
HETATM   17  C   UNK N   1      35.012  11.022  16.921  0.00  0.00     0.065 A 
HETATM   18  C   UNK N   1      35.259  12.412  18.955  0.00  0.00     0.016 C 
HETATM   19  C   UNK N   1      33.998  11.099  14.673  0.00  0.00     0.087 C 
ATOM     20  HN  UNK N   1      33.086  10.908  12.941  1.00  0.00     0.165 HD
BRANCH  11  21
HETATM   21  O   UNK N   1      37.605  13.419   9.768  0.00  0.00    -0.353 OA
HETATM   22  C   UNK N   1      38.931  13.052   9.717  0.00  0.00     0.210 C 
ENDBRANCH  11  21
ENDBRANCH   3   4
ENDBRANCH   2   3
ENDBRANCH   1   2
BRANCH   1  23
HETATM   23  C   UNK N   1      34.663  13.564   6.634  0.00  0.00     0.178 C 
BRANCH  23  24
HETATM   24  O   UNK N   1      33.563  13.634   7.459  0.00  0.00    -0.348 OA
BRANCH  24  25
HETATM   25  C   UNK N   1      32.650  14.633   7.468  0.00  0.00     0.104 A 
HETATM   26  C   UNK N   1      31.671  14.757   6.470  0.00  0.00     0.070 A 
HETATM   27  C   UNK N   1      30.710  15.783   6.504  0.00  0.00     0.050 A 
HETATM   28  C   UNK N   1      30.738  16.722   7.584  0.00  0.00     0.061 A 
HETATM   29  N   UNK N   1      29.671  15.704   5.532  0.00  0.00    -0.367 N 
HETATM   30  C   UNK N   1      31.716  16.559   8.576  0.00  0.00     0.059 A 
HETATM   31  C   UNK N   1      29.739  17.806   7.838  0.00  0.00     0.257 C 
HETATM   32  C   UNK N   1      32.662  15.533   8.531  0.00  0.00     0.102 A 
HETATM   33  O   UNK N   1      29.654  18.247   8.979  0.00  0.00    -0.267 OA
HETATM   34  N   UNK N   1      28.936  18.336   6.876  0.00  0.00    -0.334 N 
HETATM   35  C   UNK N   1      27.939  19.323   7.205  0.00  0.00     0.160 A 
HETATM   36  C   UNK N   1      29.080  18.070   5.468  0.00  0.00     0.130 A 
HETATM   37  C   UNK N   1      27.365  19.638   5.888  0.00  0.00    -0.069 A 
HETATM   38  C   UNK N   1      26.337  20.465   5.728  0.00  0.00     0.016 C 
HETATM   39  C   UNK N   1      27.997  18.895   4.769  0.00  0.00     0.065 A 
HETATM   40  C   UNK N   1      28.892  16.642   5.124  0.00  0.00     0.087 C 
ATOM     41  HN  UNK N   1      29.526  14.788   5.107  1.00  0.00     0.165 HD
BRANCH  32  42
HETATM   42  O   UNK N   1      33.573  15.377   9.521  0.00  0.00    -0.353 OA
HETATM   43  C   UNK N   1      34.617  16.249   9.731  0.00  0.00     0.210 C 
ENDBRANCH  32  42
ENDBRANCH  24  25
ENDBRANCH  23  24
ENDBRANCH   1  23
TORSDOF 8
ENDMDL
MODEL 6
REMARK VINA RESULT:      -8.2      5.857     11.101
REMARK  8 active torsions:
REMARK  status: ('A' for Active; 'I' for Inactive)
REMARK    1  A    between atoms: O_2  and  C_3 
REMARK    2  A    between atoms: C_8  and  O_9 
REMARK    3  A    between atoms: O_9  and  C_10 
REMARK    4  A    between atoms: C_10  and  C_11 
REMARK    5  A    between atoms: C_11  and  C_12 
REMARK    6  A    between atoms: C_12  and  O_13 
REMARK    7  A    between atoms: O_13  and  C_14 
REMARK    8  A    between atoms: C_19  and  O_20 
ROOT
HETATM    1  C   UNK N   1      34.611  17.308   7.968  0.00  0.00     0.053 C 
ENDROOT
BRANCH   1   2
HETATM    2  C   UNK N   1      34.517  16.616   9.328  0.00  0.00     0.178 C 
BRANCH   2   3
HETATM    3  O   UNK N   1      35.469  15.627   9.446  0.00  0.00    -0.348 OA
BRANCH   3   4
HETATM    4  C   UNK N   1      35.547  14.740  10.469  0.00  0.00     0.104 A 
HETATM    5  C   UNK N   1      36.099  15.088  11.711  0.00  0.00     0.070 A 
HETATM    6  C   UNK N   1      36.137  14.178  12.779  0.00  0.00     0.050 A 
HETATM    7  C   UNK N   1      35.633  12.855  12.581  0.00  0.00     0.061 A 
HETATM    8  N   UNK N   1      36.786  14.615  13.972  0.00  0.00    -0.367 N 
HETATM    9  C   UNK N   1      35.116  12.521  11.322  0.00  0.00     0.059 A 
HETATM   10  C   UNK N   1      35.650  11.760  13.597  0.00  0.00     0.257 C 
HETATM   11  C   UNK N   1      35.052  13.448  10.276  0.00  0.00     0.102 A 
HETATM   12  N   UNK N   1      35.613  11.994  14.936  0.00  0.00    -0.334 N 
HETATM   13  O   UNK N   1      35.642  10.600  13.199  0.00  0.00    -0.267 OA
HETATM   14  C   UNK N   1      35.615  10.918  15.892  0.00  0.00     0.160 A 
HETATM   15  C   UNK N   1      35.420  13.307  15.501  0.00  0.00     0.130 A 
HETATM   16  C   UNK N   1      35.437  11.636  17.167  0.00  0.00    -0.069 A 
HETATM   17  C   UNK N   1      35.336  13.110  17.015  0.00  0.00     0.065 A 
HETATM   18  C   UNK N   1      35.369  11.020  18.343  0.00  0.00     0.016 C 
HETATM   19  C   UNK N   1      36.547  14.214  15.170  0.00  0.00     0.087 C 
ATOM     20  HN  UNK N   1      37.516  15.320  13.864  1.00  0.00     0.165 HD
BRANCH  11  21
HETATM   21  O   UNK N   1      34.505  13.117   9.081  0.00  0.00    -0.353 OA
HETATM   22  C   UNK N   1      33.147  13.031   8.871  0.00  0.00     0.210 C 
ENDBRANCH  11  21
ENDBRANCH   3   4
ENDBRANCH   2   3
ENDBRANCH   1   2
BRANCH   1  23
HETATM   23  C   UNK N   1      33.303  17.970   7.540  0.00  0.00     0.178 C 
BRANCH  23  24
HETATM   24  O   UNK N   1      32.255  17.174   7.942  0.00  0.00    -0.348 OA
BRANCH  24  25
HETATM   25  C   UNK N   1      31.113  16.965   7.244  0.00  0.00     0.104 A 
HETATM   26  C   UNK N   1      31.046  16.052   6.181  0.00  0.00     0.070 A 
HETATM   27  C   UNK N   1      29.849  15.823   5.481  0.00  0.00     0.050 A 
HETATM   28  C   UNK N   1      28.673  16.543   5.866  0.00  0.00     0.061 A 
HETATM   29  N   UNK N   1      29.866  14.756   4.536  0.00  0.00    -0.367 N 
HETATM   30  C   UNK N   1      28.768  17.433   6.946  0.00  0.00     0.059 A 
HETATM   31  C   UNK N   1      27.298  16.353   5.308  0.00  0.00     0.257 C 
HETATM   32  C   UNK N   1      29.964  17.649   7.634  0.00  0.00     0.102 A 
HETATM   33  O   UNK N   1      26.350  16.722   5.993  0.00  0.00    -0.267 OA
HETATM   34  N   UNK N   1      27.045  15.811   4.086  0.00  0.00    -0.334 N 
HETATM   35  C   UNK N   1      25.693  15.583   3.644  0.00  0.00     0.160 A 
HETATM   36  C   UNK N   1      28.058  15.539   3.099  0.00  0.00     0.130 A 
HETATM   37  C   UNK N   1      25.894  15.050   2.287  0.00  0.00    -0.069 A 
HETATM   38  C   UNK N   1      24.894  14.624   1.523  0.00  0.00     0.016 C 
HETATM   39  C   UNK N   1      27.321  14.973   1.883  0.00  0.00     0.065 A 
HETATM   40  C   UNK N   1      29.063  14.552   3.554  0.00  0.00     0.087 C 
ATOM     41  HN  UNK N   1      30.608  14.066   4.656  1.00  0.00     0.165 HD
BRANCH  32  42
HETATM   42  O   UNK N   1      30.018  18.487   8.697  0.00  0.00    -0.353 OA
HETATM   43  C   UNK N   1      29.167  18.395   9.775  0.00  0.00     0.210 C 
ENDBRANCH  32  42
ENDBRANCH  24  25
ENDBRANCH  23  24
ENDBRANCH   1  23
TORSDOF 8
ENDMDL
MODEL 7
REMARK VINA RESULT:      -8.2      6.991     11.575
REMARK  8 active torsions:
REMARK  status: ('A' for Active; 'I' for Inactive)
REMARK    1  A    between atoms: O_2  and  C_3 
REMARK    2  A    between atoms: C_8  and  O_9 
REMARK    3  A    between atoms: O_9  and  C_10 
REMARK    4  A    between atoms: C_10  and  C_11 
REMARK    5  A    between atoms: C_11  and  C_12 
REMARK    6  A    between atoms: C_12  and  O_13 
REMARK    7  A    between atoms: O_13  and  C_14 
REMARK    8  A    between atoms: C_19  and  O_20 
ROOT
HETATM    1  C   UNK N   1      34.980  16.630   9.849  0.00  0.00     0.053 C 
ENDROOT
BRANCH   1   2
HETATM    2  C   UNK N   1      34.023  17.205   8.804  0.00  0.00     0.178 C 
BRANCH   2   3
HETATM    3  O   UNK N   1      32.756  16.684   8.953  0.00  0.00    -0.348 OA
BRANCH   3   4
HETATM    4  C   UNK N   1      31.740  16.844   8.070  0.00  0.00     0.104 A 
HETATM    5  C   UNK N   1      30.667  17.712   8.323  0.00  0.00     0.070 A 
HETATM    6  C   UNK N   1      29.640  17.905   7.386  0.00  0.00     0.050 A 
HETATM    7  C   UNK N   1      29.675  17.171   6.159  0.00  0.00     0.061 A 
HETATM    8  N   UNK N   1      28.563  18.754   7.778  0.00  0.00    -0.367 N 
HETATM    9  C   UNK N   1      30.739  16.286   5.943  0.00  0.00     0.059 A 
HETATM   10  C   UNK N   1      28.636  17.225   5.088  0.00  0.00     0.257 C 
HETATM   11  C   UNK N   1      31.774  16.128   6.871  0.00  0.00     0.102 A 
HETATM   12  N   UNK N   1      27.861  18.320   4.864  0.00  0.00    -0.334 N 
HETATM   13  O   UNK N   1      28.517  16.255   4.346  0.00  0.00    -0.267 OA
HETATM   14  C   UNK N   1      26.878  18.349   3.813  0.00  0.00     0.160 A 
HETATM   15  C   UNK N   1      28.057  19.576   5.546  0.00  0.00     0.130 A 
HETATM   16  C   UNK N   1      26.403  19.743   3.873  0.00  0.00    -0.069 A 
HETATM   17  C   UNK N   1      27.059  20.555   4.929  0.00  0.00     0.065 A 
HETATM   18  C   UNK N   1      25.475  20.229   3.054  0.00  0.00     0.016 C 
HETATM   19  C   UNK N   1      27.809  19.449   7.003  0.00  0.00     0.087 C 
ATOM     20  HN  UNK N   1      28.372  18.817   8.778  1.00  0.00     0.165 HD
BRANCH  11  21
HETATM   21  O   UNK N   1      32.818  15.302   6.620  0.00  0.00    -0.353 OA
HETATM   22  C   UNK N   1      32.782  13.946   6.854  0.00  0.00     0.210 C 
ENDBRANCH  11  21
ENDBRANCH   3   4
ENDBRANCH   2   3
ENDBRANCH   1   2
BRANCH   1  23
HETATM   23  C   UNK N   1      35.167  15.119   9.723  0.00  0.00     0.178 C 
BRANCH  23  24
HETATM   24  O   UNK N   1      36.347  14.769  10.339  0.00  0.00    -0.348 OA
BRANCH  24  25
HETATM   25  C   UNK N   1      36.462  13.942  11.404  0.00  0.00     0.104 A 
HETATM   26  C   UNK N   1      35.537  13.953  12.459  0.00  0.00     0.070 A 
HETATM   27  C   UNK N   1      35.650  13.070  13.548  0.00  0.00     0.050 A 
HETATM   28  C   UNK N   1      36.739  12.142  13.576  0.00  0.00     0.061 A 
HETATM   29  N   UNK N   1      34.562  13.063  14.468  0.00  0.00    -0.367 N 
HETATM   30  C   UNK N   1      37.635  12.142  12.497  0.00  0.00     0.059 A 
HETATM   31  C   UNK N   1      36.958  11.067  14.593  0.00  0.00     0.257 C 
HETATM   32  C   UNK N   1      37.508  13.023  11.420  0.00  0.00     0.102 A 
HETATM   33  O   UNK N   1      37.667  10.118  14.275  0.00  0.00    -0.267 OA
HETATM   34  N   UNK N   1      36.431  11.092  15.847  0.00  0.00    -0.334 N 
HETATM   35  C   UNK N   1      36.615   9.985  16.749  0.00  0.00     0.160 A 
HETATM   36  C   UNK N   1      35.768  12.236  16.420  0.00  0.00     0.130 A 
HETATM   37  C   UNK N   1      35.939  10.458  17.967  0.00  0.00    -0.069 A 
HETATM   38  C   UNK N   1      35.798   9.707  19.054  0.00  0.00     0.016 C 
HETATM   39  C   UNK N   1      35.373  11.826  17.841  0.00  0.00     0.065 A 
HETATM   40  C   UNK N   1      34.549  12.634  15.680  0.00  0.00     0.087 C 
ATOM     41  HN  UNK N   1      33.682  13.446  14.122  1.00  0.00     0.165 HD
BRANCH  32  42
HETATM   42  O   UNK N   1      38.367  12.976  10.374  0.00  0.00    -0.353 OA
HETATM   43  C   UNK N   1      38.484  11.886   9.541  0.00  0.00     0.210 C 
ENDBRANCH  32  42
ENDBRANCH  24  25
ENDBRANCH  23  24
ENDBRANCH   1  23
TORSDOF 8
ENDMDL
MODEL 8
REMARK VINA RESULT:      -7.9      6.794     11.838
REMARK  8 active torsions:
REMARK  status: ('A' for Active; 'I' for Inactive)
REMARK    1  A    between atoms: O_2  and  C_3 
REMARK    2  A    between atoms: C_8  and  O_9 
REMARK    3  A    between atoms: O_9  and  C_10 
REMARK    4  A    between atoms: C_10  and  C_11 
REMARK    5  A    between atoms: C_11  and  C_12 
REMARK    6  A    between atoms: C_12  and  O_13 
REMARK    7  A    between atoms: O_13  and  C_14 
REMARK    8  A    between atoms: C_19  and  O_20 
ROOT
HETATM    1  C   UNK N   1      36.334  13.203   7.891  0.00  0.00     0.053 C 
ENDROOT
BRANCH   1   2
HETATM    2  C   UNK N   1      37.623  13.235   8.714  0.00  0.00     0.178 C 
BRANCH   2   3
HETATM    3  O   UNK N   1      37.473  14.020   9.837  0.00  0.00    -0.348 OA
BRANCH   3   4
HETATM    4  C   UNK N   1      36.963  13.597  11.019  0.00  0.00     0.104 A 
HETATM    5  C   UNK N   1      37.050  12.257  11.427  0.00  0.00     0.070 A 
HETATM    6  C   UNK N   1      36.558  11.833  12.672  0.00  0.00     0.050 A 
HETATM    7  C   UNK N   1      35.921  12.788  13.526  0.00  0.00     0.061 A 
HETATM    8  N   UNK N   1      36.634  10.437  12.952  0.00  0.00    -0.367 N 
HETATM    9  C   UNK N   1      35.817  14.113  13.083  0.00  0.00     0.059 A 
HETATM   10  C   UNK N   1      35.302  12.486  14.851  0.00  0.00     0.257 C 
HETATM   11  C   UNK N   1      36.342  14.529  11.855  0.00  0.00     0.102 A 
HETATM   12  N   UNK N   1      35.724  11.469  15.650  0.00  0.00    -0.334 N 
HETATM   13  O   UNK N   1      34.410  13.225  15.256  0.00  0.00    -0.267 OA
HETATM   14  C   UNK N   1      35.119  11.212  16.930  0.00  0.00     0.160 A 
HETATM   15  C   UNK N   1      36.890  10.671  15.359  0.00  0.00     0.130 A 
HETATM   16  C   UNK N   1      35.971  10.135  17.465  0.00  0.00    -0.069 A 
HETATM   17  C   UNK N   1      37.066   9.727  16.549  0.00  0.00     0.065 A 
HETATM   18  C   UNK N   1      35.779   9.584  18.659  0.00  0.00     0.016 C 
HETATM   19  C   UNK N   1      36.716   9.887  14.111  0.00  0.00     0.087 C 
ATOM     20  HN  UNK N   1      36.624   9.809  12.148  1.00  0.00     0.165 HD
BRANCH  11  21
HETATM   21  O   UNK N   1      36.272  15.825  11.467  0.00  0.00    -0.353 OA
HETATM   22  C   UNK N   1      35.153  16.381  10.888  0.00  0.00     0.210 C 
ENDBRANCH  11  21
ENDBRANCH   3   4
ENDBRANCH   2   3
ENDBRANCH   1   2
BRANCH   1  23
HETATM   23  C   UNK N   1      36.157  14.437   7.008  0.00  0.00     0.178 C 
BRANCH  23  24
HETATM   24  O   UNK N   1      35.080  15.159   7.470  0.00  0.00    -0.348 OA
BRANCH  24  25
HETATM   25  C   UNK N   1      33.966  15.451   6.760  0.00  0.00     0.104 A 
HETATM   26  C   UNK N   1      33.036  14.465   6.393  0.00  0.00     0.070 A 
HETATM   27  C   UNK N   1      31.868  14.784   5.679  0.00  0.00     0.050 A 
HETATM   28  C   UNK N   1      31.628  16.148   5.318  0.00  0.00     0.061 A 
HETATM   29  N   UNK N   1      30.924  13.729   5.513  0.00  0.00    -0.367 N 
HETATM   30  C   UNK N   1      32.565  17.112   5.716  0.00  0.00     0.059 A 
HETATM   31  C   UNK N   1      30.398  16.683   4.654  0.00  0.00     0.257 C 
HETATM   32  C   UNK N   1      33.720  16.781   6.428  0.00  0.00     0.102 A 
HETATM   33  O   UNK N   1      30.158  17.879   4.779  0.00  0.00    -0.267 OA
HETATM   34  N   UNK N   1      29.546  15.924   3.913  0.00  0.00    -0.334 N 
HETATM   35  C   UNK N   1      28.337  16.485   3.369  0.00  0.00     0.160 A 
HETATM   36  C   UNK N   1      29.819  14.568   3.507  0.00  0.00     0.130 A 
HETATM   37  C   UNK N   1      27.774  15.351   2.621  0.00  0.00    -0.069 A 
HETATM   38  C   UNK N   1      26.595  15.402   2.009  0.00  0.00     0.016 C 
HETATM   39  C   UNK N   1      28.614  14.127   2.672  0.00  0.00     0.065 A 
HETATM   40  C   UNK N   1      29.976  13.640   4.650  0.00  0.00     0.087 C 
ATOM     41  HN  UNK N   1      31.012  12.945   6.161  1.00  0.00     0.165 HD
BRANCH  32  42
HETATM   42  O   UNK N   1      34.590  17.737   6.832  0.00  0.00    -0.353 OA
HETATM   43  C   UNK N   1      34.452  18.435   8.011  0.00  0.00     0.210 C 
ENDBRANCH  32  42
ENDBRANCH  24  25
ENDBRANCH  23  24
ENDBRANCH   1  23
TORSDOF 8
ENDMDL
MODEL 9
REMARK VINA RESULT:      -7.9      7.138     11.768
REMARK  8 active torsions:
REMARK  status: ('A' for Active; 'I' for Inactive)
REMARK    1  A    between atoms: O_2  and  C_3 
REMARK    2  A    between atoms: C_8  and  O_9 
REMARK    3  A    between atoms: O_9  and  C_10 
REMARK    4  A    between atoms: C_10  and  C_11 
REMARK    5  A    between atoms: C_11  and  C_12 
REMARK    6  A    between atoms: C_12  and  O_13 
REMARK    7  A    between atoms: O_13  and  C_14 
REMARK    8  A    between atoms: C_19  and  O_20 
ROOT
HETATM    1  C   UNK N   1      37.636  13.279   8.260  0.00  0.00     0.053 C 
ENDROOT
BRANCH   1   2
HETATM    2  C   UNK N   1      37.153  14.128   9.436  0.00  0.00     0.178 C 
BRANCH   2   3
HETATM    3  O   UNK N   1      36.048  13.562  10.033  0.00  0.00    -0.348 OA
BRANCH   3   4
HETATM    4  C   UNK N   1      36.010  13.079  11.300  0.00  0.00     0.104 A 
HETATM    5  C   UNK N   1      36.508  13.813  12.387  0.00  0.00     0.070 A 
HETATM    6  C   UNK N   1      36.427  13.326  13.702  0.00  0.00     0.050 A 
HETATM    7  C   UNK N   1      35.854  12.035  13.929  0.00  0.00     0.061 A 
HETATM    8  N   UNK N   1      37.030  14.121  14.720  0.00  0.00    -0.367 N 
HETATM    9  C   UNK N   1      35.393  11.308  12.823  0.00  0.00     0.059 A 
HETATM   10  C   UNK N   1      35.743  11.358  15.255  0.00  0.00     0.257 C 
HETATM   11  C   UNK N   1      35.448  11.820  11.522  0.00  0.00     0.102 A 
HETATM   12  N   UNK N   1      35.642  12.040  16.427  0.00  0.00    -0.334 N 
HETATM   13  O   UNK N   1      35.687  10.132  15.277  0.00  0.00    -0.267 OA
HETATM   14  C   UNK N   1      35.521  11.360  17.689  0.00  0.00     0.160 A 
HETATM   15  C   UNK N   1      35.498  13.474  16.494  0.00  0.00     0.130 A 
HETATM   16  C   UNK N   1      35.313  12.479  18.626  0.00  0.00    -0.069 A 
HETATM   17  C   UNK N   1      35.312  13.813  17.974  0.00  0.00     0.065 A 
HETATM   18  C   UNK N   1      35.138  12.309  19.932  0.00  0.00     0.016 C 
HETATM   19  C   UNK N   1      36.696  14.167  15.961  0.00  0.00     0.087 C 
ATOM     20  HN  UNK N   1      37.807  14.718  14.435  1.00  0.00     0.165 HD
BRANCH  11  21
HETATM   21  O   UNK N   1      34.953  11.119  10.474  0.00  0.00    -0.353 OA
HETATM   22  C   UNK N   1      33.877  10.265  10.576  0.00  0.00     0.210 C 
ENDBRANCH  11  21
ENDBRANCH   3   4
ENDBRANCH   2   3
ENDBRANCH   1   2
BRANCH   1  23
HETATM   23  C   UNK N   1      37.494  13.985   6.912  0.00  0.00     0.178 C 
BRANCH  23  24
HETATM   24  O   UNK N   1      36.344  13.540   6.301  0.00  0.00    -0.348 OA
BRANCH  24  25
HETATM   25  C   UNK N   1      35.119  14.100   6.429  0.00  0.00     0.104 A 
HETATM   26  C   UNK N   1      34.938  15.383   6.969  0.00  0.00     0.070 A 
HETATM   27  C   UNK N   1      33.664  15.968   7.071  0.00  0.00     0.050 A 
HETATM   28  C   UNK N   1      32.526  15.229   6.614  0.00  0.00     0.061 A 
HETATM   29  N   UNK N   1      33.628  17.333   7.478  0.00  0.00    -0.367 N 
HETATM   30  C   UNK N   1      32.740  13.959   6.061  0.00  0.00     0.059 A 
HETATM   31  C   UNK N   1      31.116  15.729   6.549  0.00  0.00     0.257 C 
HETATM   32  C   UNK N   1      34.014  13.392   5.963  0.00  0.00     0.102 A 
HETATM   33  O   UNK N   1      30.347  15.165   5.778  0.00  0.00    -0.267 OA
HETATM   34  N   UNK N   1      30.642  16.757   7.303  0.00  0.00    -0.334 N 
HETATM   35  C   UNK N   1      29.296  17.240   7.132  0.00  0.00     0.160 A 
HETATM   36  C   UNK N   1      31.367  17.360   8.393  0.00  0.00     0.130 A 
HETATM   37  C   UNK N   1      29.207  18.288   8.161  0.00  0.00    -0.069 A 
HETATM   38  C   UNK N   1      28.139  19.064   8.312  0.00  0.00     0.016 C 
HETATM   39  C   UNK N   1      30.445  18.439   8.967  0.00  0.00     0.065 A 
HETATM   40  C   UNK N   1      32.638  17.989   7.969  0.00  0.00     0.087 C 
ATOM     41  HN  UNK N   1      34.497  17.855   7.366  1.00  0.00     0.165 HD
BRANCH  32  42
HETATM   42  O   UNK N   1      34.197  12.178   5.391  0.00  0.00    -0.353 OA
HETATM   43  C   UNK N   1      33.420  11.080   5.684  0.00  0.00     0.210 C 
ENDBRANCH  32  42
ENDBRANCH  24  25
ENDBRANCH  23  24
ENDBRANCH   1  23
TORSDOF 8
ENDMDL
