MODEL 1
REMARK VINA RESULT:      -7.1      0.000      0.000
REMARK  8 active torsions:
REMARK  status: ('A' for Active; 'I' for Inactive)
REMARK    1  A    between atoms: C_4  and  C_3 
REMARK    2  A    between atoms: N_16  and  C_4 
REMARK    3  A    between atoms: C_9  and  C_5 
REMARK    4  A    between atoms: O_24  and  C_5 
REMARK    5  A    between atoms: C_11  and  O_25 
REMARK    6  A    between atoms: C_12  and  O_26 
REMARK    7  A    between atoms: N_16  and  C_13 
REMARK    8  A    between atoms: C_15  and  N_23 
ROOT
HETATM    1  C   UNK N   1      29.652  18.293   9.808  0.00  0.00     0.183 A 
HETATM    2  C   UNK N   1      31.347  15.943   6.470  0.00  0.00     0.188 A 
HETATM    3  C   UNK N   1      29.776  17.055   7.389  0.00  0.00     0.122 A 
HETATM    4  C   UNK N   1      28.569  17.566   7.809  0.00  0.00     0.133 A 
HETATM    5  C   UNK N   1      30.850  17.115   8.189  0.00  0.00     0.142 A 
HETATM    6  N   UNK N   1      28.527  18.198   9.025  0.00  0.00    -0.337 N 
ATOM      7  HN  UNK N   1      27.649  18.601   9.352  1.00  0.00     0.168 HD
HETATM    8  N   UNK N   1      30.821  17.710   9.408  0.00  0.00    -0.336 N 
ATOM      9  HN  UNK N   1      31.646  17.723  10.007  1.00  0.00     0.168 HD
HETATM   10  N   UNK N   1      30.064  16.351   6.279  0.00  0.00    -0.346 N 
ATOM     11  HN  UNK N   1      29.459  16.165   5.478  1.00  0.00     0.167 HD
HETATM   12  N   UNK N   1      31.843  16.407   7.647  0.00  0.00    -0.297 N 
ENDROOT
BRANCH  12  13
HETATM   13  C   UNK N   1      32.987  15.850   8.354  0.00  0.00     0.262 C 
HETATM   14  C   UNK N   1      32.727  14.721   9.325  0.00  0.00     0.198 C 
HETATM   15  C   UNK N   1      34.090  14.667  10.017  0.00  0.00     0.182 C 
HETATM   16  C   UNK N   1      34.717  16.032   9.650  0.00  0.00     0.179 C 
HETATM   17  O   UNK N   1      33.683  16.816   9.105  0.00  0.00    -0.353 OA
BRANCH  14  18
HETATM   18  O   UNK N   1      31.752  15.125  10.242  0.00  0.00    -0.388 OA
HETATM   19  H   UNK N   1      30.985  15.481  10.716  0.00  0.00     0.210 HD
ENDBRANCH  14  18
BRANCH  15  20
HETATM   20  O   UNK N   1      34.883  13.643   9.492  0.00  0.00    -0.390 OA
HETATM   21  H   UNK N   1      35.173  12.722   9.590  0.00  0.00     0.210 HD
ENDBRANCH  15  20
BRANCH  16  22
HETATM   22  C   UNK N   1      35.422  16.710  10.810  0.00  0.00     0.198 C 
BRANCH  22  23
HETATM   23  O   UNK N   1      36.735  16.244  10.894  0.00  0.00    -0.398 OA
HETATM   24  H   UNK N   1      37.533  16.775  10.744  0.00  0.00     0.209 HD
ENDBRANCH  22  23
ENDBRANCH  16  22
ENDBRANCH  12  13
BRANCH   4  25
HETATM   25  N   UNK N   1      27.402  17.355   7.045  0.00  0.00    -0.371 N 
HETATM   26  H   UNK N   1      26.782  16.637   7.308  0.00  0.00     0.161 HD
BRANCH  25  27
HETATM   27  C   UNK N   1      27.095  18.156   5.896  0.00  0.00     0.148 C 
BRANCH  27  28
HETATM   28  C   UNK N   1      27.242  19.575   6.314  0.00  0.00    -0.005 C 
HETATM   29  C   UNK N   1      27.014  20.584   5.469  0.00  0.00    -0.090 C 
HETATM   30  C   UNK N   1      27.089  21.977   5.977  0.00  0.00     0.042 C 
HETATM   31  C   UNK N   1      26.645  20.350   4.037  0.00  0.00     0.042 C 
ENDBRANCH  27  28
ENDBRANCH  25  27
ENDBRANCH   4  25
TORSDOF 8
ENDMDL
MODEL 2
REMARK VINA RESULT:      -6.8      8.112     11.864
REMARK  8 active torsions:
REMARK  status: ('A' for Active; 'I' for Inactive)
REMARK    1  A    between atoms: C_4  and  C_3 
REMARK    2  A    between atoms: N_16  and  C_4 
REMARK    3  A    between atoms: C_9  and  C_5 
REMARK    4  A    between atoms: O_24  and  C_5 
REMARK    5  A    between atoms: C_11  and  O_25 
REMARK    6  A    between atoms: C_12  and  O_26 
REMARK    7  A    between atoms: N_16  and  C_13 
REMARK    8  A    between atoms: C_15  and  N_23 
ROOT
HETATM    1  C   UNK N   1      35.242  13.371  17.198  0.00  0.00     0.183 A 
HETATM    2  C   UNK N   1      34.672  10.269  14.101  0.00  0.00     0.188 A 
HETATM    3  C   UNK N   1      34.798  10.908  16.132  0.00  0.00     0.122 A 
HETATM    4  C   UNK N   1      35.000  11.015  17.489  0.00  0.00     0.133 A 
HETATM    5  C   UNK N   1      34.884  11.993  15.349  0.00  0.00     0.142 A 
HETATM    6  N   UNK N   1      35.209  12.265  18.011  0.00  0.00    -0.337 N 
ATOM      7  HN  UNK N   1      35.343  12.374  19.017  1.00  0.00     0.168 HD
HETATM    8  N   UNK N   1      35.118  13.234  15.844  0.00  0.00    -0.336 N 
ATOM      9  HN  UNK N   1      35.200  14.041  15.225  1.00  0.00     0.168 HD
HETATM   10  N   UNK N   1      34.632   9.805  15.379  0.00  0.00    -0.346 N 
ATOM     11  HN  UNK N   1      34.506   8.843  15.692  1.00  0.00     0.167 HD
HETATM   12  N   UNK N   1      34.829  11.619  14.069  0.00  0.00    -0.297 N 
ENDROOT
BRANCH  12  13
HETATM   13  C   UNK N   1      35.316  12.381  12.929  0.00  0.00     0.262 C 
HETATM   14  C   UNK N   1      36.803  12.365  12.660  0.00  0.00     0.198 C 
HETATM   15  C   UNK N   1      36.882  13.481  11.618  0.00  0.00     0.182 C 
HETATM   16  C   UNK N   1      35.539  14.224  11.807  0.00  0.00     0.179 C 
HETATM   17  O   UNK N   1      34.981  13.747  13.007  0.00  0.00    -0.353 OA
BRANCH  14  18
HETATM   18  O   UNK N   1      37.479  12.759  13.820  0.00  0.00    -0.388 OA
HETATM   19  H   UNK N   1      37.877  12.859  14.698  0.00  0.00     0.210 HD
ENDBRANCH  14  18
BRANCH  15  20
HETATM   20  O   UNK N   1      36.939  12.959  10.323  0.00  0.00    -0.390 OA
HETATM   21  H   UNK N   1      37.148  13.141   9.393  0.00  0.00     0.210 HD
ENDBRANCH  15  20
BRANCH  16  22
HETATM   22  C   UNK N   1      35.670  15.735  11.779  0.00  0.00     0.198 C 
BRANCH  22  23
HETATM   23  O   UNK N   1      36.775  16.093  11.003  0.00  0.00    -0.398 OA
HETATM   24  H   UNK N   1      37.027  15.686  10.159  0.00  0.00     0.209 HD
ENDBRANCH  22  23
ENDBRANCH  16  22
ENDBRANCH  12  13
BRANCH   4  25
HETATM   25  N   UNK N   1      35.081   9.856  18.289  0.00  0.00    -0.371 N 
HETATM   26  H   UNK N   1      35.603   9.086  17.966  0.00  0.00     0.161 HD
BRANCH  25  27
HETATM   27  C   UNK N   1      34.424   9.768  19.561  0.00  0.00     0.148 C 
BRANCH  27  28
HETATM   28  C   UNK N   1      33.236   8.895  19.368  0.00  0.00    -0.005 C 
HETATM   29  C   UNK N   1      32.253   8.837  20.270  0.00  0.00    -0.090 C 
HETATM   30  C   UNK N   1      31.053   8.015  19.972  0.00  0.00     0.042 C 
HETATM   31  C   UNK N   1      32.308   9.606  21.553  0.00  0.00     0.042 C 
ENDBRANCH  27  28
ENDBRANCH  25  27
ENDBRANCH   4  25
TORSDOF 8
ENDMDL
MODEL 3
REMARK VINA RESULT:      -6.8      6.293     10.231
REMARK  8 active torsions:
REMARK  status: ('A' for Active; 'I' for Inactive)
REMARK    1  A    between atoms: C_4  and  C_3 
REMARK    2  A    between atoms: N_16  and  C_4 
REMARK    3  A    between atoms: C_9  and  C_5 
REMARK    4  A    between atoms: O_24  and  C_5 
REMARK    5  A    between atoms: C_11  and  O_25 
REMARK    6  A    between atoms: C_12  and  O_26 
REMARK    7  A    between atoms: N_16  and  C_13 
REMARK    8  A    between atoms: C_15  and  N_23 
ROOT
HETATM    1  C   UNK N   1      33.842  10.732  11.363  0.00  0.00     0.183 A 
HETATM    2  C   UNK N   1      35.971  14.016  13.418  0.00  0.00     0.188 A 
HETATM    3  C   UNK N   1      34.951  12.142  13.407  0.00  0.00     0.122 A 
HETATM    4  C   UNK N   1      34.199  11.028  13.703  0.00  0.00     0.133 A 
HETATM    5  C   UNK N   1      35.077  12.553  12.137  0.00  0.00     0.142 A 
HETATM    6  N   UNK N   1      33.658  10.322  12.661  0.00  0.00    -0.337 N 
ATOM      7  HN  UNK N   1      33.111   9.482  12.852  1.00  0.00     0.168 HD
HETATM    8  N   UNK N   1      34.526  11.884  11.094  0.00  0.00    -0.336 N 
ATOM      9  HN  UNK N   1      34.618  12.229  10.139  1.00  0.00     0.168 HD
HETATM   10  N   UNK N   1      35.532  13.026  14.240  0.00  0.00    -0.346 N 
ATOM     11  HN  UNK N   1      35.623  12.967  15.254  1.00  0.00     0.167 HD
HETATM   12  N   UNK N   1      35.694  13.737  12.116  0.00  0.00    -0.297 N 
ENDROOT
BRANCH  12  13
HETATM   13  C   UNK N   1      35.639  14.716  11.041  0.00  0.00     0.262 C 
HETATM   14  C   UNK N   1      34.481  15.688  11.038  0.00  0.00     0.198 C 
HETATM   15  C   UNK N   1      34.660  16.287   9.643  0.00  0.00     0.182 C 
HETATM   16  C   UNK N   1      35.579  15.261   8.942  0.00  0.00     0.179 C 
HETATM   17  O   UNK N   1      35.609  14.120   9.766  0.00  0.00    -0.353 OA
BRANCH  14  18
HETATM   18  O   UNK N   1      33.283  14.968  11.088  0.00  0.00    -0.388 OA
HETATM   19  H   UNK N   1      32.501  14.442  11.316  0.00  0.00     0.210 HD
ENDBRANCH  14  18
BRANCH  15  20
HETATM   20  O   UNK N   1      35.315  17.521   9.704  0.00  0.00    -0.390 OA
HETATM   21  H   UNK N   1      35.703  18.249   9.194  0.00  0.00     0.210 HD
ENDBRANCH  15  20
BRANCH  16  22
HETATM   22  C   UNK N   1      35.164  14.946   7.517  0.00  0.00     0.198 C 
BRANCH  22  23
HETATM   23  O   UNK N   1      34.985  16.137   6.810  0.00  0.00    -0.398 OA
HETATM   24  H   UNK N   1      35.199  16.275   5.874  0.00  0.00     0.209 HD
ENDBRANCH  22  23
ENDBRANCH  16  22
ENDBRANCH  12  13
BRANCH   4  25
HETATM   25  N   UNK N   1      33.924  10.693  15.045  0.00  0.00    -0.371 N 
HETATM   26  H   UNK N   1      33.084  11.006  15.455  0.00  0.00     0.161 HD
BRANCH  25  27
HETATM   27  C   UNK N   1      34.832   9.909  15.831  0.00  0.00     0.148 C 
BRANCH  27  28
HETATM   28  C   UNK N   1      35.247  10.758  16.978  0.00  0.00    -0.005 C 
HETATM   29  C   UNK N   1      34.990  10.408  18.241  0.00  0.00    -0.090 C 
HETATM   30  C   UNK N   1      35.513  11.256  19.342  0.00  0.00     0.042 C 
HETATM   31  C   UNK N   1      34.224   9.167  18.579  0.00  0.00     0.042 C 
ENDBRANCH  27  28
ENDBRANCH  25  27
ENDBRANCH   4  25
TORSDOF 8
ENDMDL
MODEL 4
REMARK VINA RESULT:      -6.7      3.997      5.864
REMARK  8 active torsions:
REMARK  status: ('A' for Active; 'I' for Inactive)
REMARK    1  A    between atoms: C_4  and  C_3 
REMARK    2  A    between atoms: N_16  and  C_4 
REMARK    3  A    between atoms: C_9  and  C_5 
REMARK    4  A    between atoms: O_24  and  C_5 
REMARK    5  A    between atoms: C_11  and  O_25 
REMARK    6  A    between atoms: C_12  and  O_26 
REMARK    7  A    between atoms: N_16  and  C_13 
REMARK    8  A    between atoms: C_15  and  N_23 
ROOT
HETATM    1  C   UNK N   1      33.244  13.637   8.786  0.00  0.00     0.183 A 
HETATM    2  C   UNK N   1      35.500  16.512  11.273  0.00  0.00     0.188 A 
HETATM    3  C   UNK N   1      34.497  15.951   9.476  0.00  0.00     0.122 A 
HETATM    4  C   UNK N   1      34.073  15.790   8.177  0.00  0.00     0.133 A 
HETATM    5  C   UNK N   1      34.349  14.955  10.363  0.00  0.00     0.142 A 
HETATM    6  N   UNK N   1      33.432  14.624   7.849  0.00  0.00    -0.337 N 
ATOM      7  HN  UNK N   1      33.091  14.487   6.898  1.00  0.00     0.168 HD
HETATM    8  N   UNK N   1      33.743  13.783  10.050  0.00  0.00    -0.336 N 
ATOM      9  HN  UNK N   1      33.661  13.033  10.737  1.00  0.00     0.168 HD
HETATM   10  N   UNK N   1      35.192  16.963  10.028  0.00  0.00    -0.346 N 
ATOM     11  HN  UNK N   1      35.432  17.862   9.610  1.00  0.00     0.167 HD
HETATM   12  N   UNK N   1      34.987  15.272  11.492  0.00  0.00    -0.297 N 
ENDROOT
BRANCH  12  13
HETATM   13  C   UNK N   1      35.449  14.339  12.508  0.00  0.00     0.262 C 
HETATM   14  C   UNK N   1      36.747  13.608  12.250  0.00  0.00     0.198 C 
HETATM   15  C   UNK N   1      36.680  12.573  13.373  0.00  0.00     0.182 C 
HETATM   16  C   UNK N   1      35.188  12.599  13.777  0.00  0.00     0.179 C 
HETATM   17  O   UNK N   1      34.513  13.322  12.776  0.00  0.00    -0.353 OA
BRANCH  14  18
HETATM   18  O   UNK N   1      36.667  12.962  11.012  0.00  0.00    -0.388 OA
HETATM   19  H   UNK N   1      36.413  12.510  10.192  0.00  0.00     0.210 HD
ENDBRANCH  14  18
BRANCH  15  20
HETATM   20  O   UNK N   1      37.458  12.964  14.467  0.00  0.00    -0.390 OA
HETATM   21  H   UNK N   1      38.341  13.228  14.771  0.00  0.00     0.210 HD
ENDBRANCH  15  20
BRANCH  16  22
HETATM   22  C   UNK N   1      34.596  11.221  14.009  0.00  0.00     0.198 C 
BRANCH  22  23
HETATM   23  O   UNK N   1      33.789  10.872  12.924  0.00  0.00    -0.398 OA
HETATM   24  H   UNK N   1      34.009  11.012  11.990  0.00  0.00     0.209 HD
ENDBRANCH  22  23
ENDBRANCH  16  22
ENDBRANCH  12  13
BRANCH   4  25
HETATM   25  N   UNK N   1      34.380  16.764   7.204  0.00  0.00    -0.371 N 
HETATM   26  H   UNK N   1      35.299  16.817   6.853  0.00  0.00     0.161 HD
BRANCH  25  27
HETATM   27  C   UNK N   1      33.391  17.678   6.710  0.00  0.00     0.148 C 
BRANCH  27  28
HETATM   28  C   UNK N   1      33.362  17.518   5.232  0.00  0.00    -0.005 C 
HETATM   29  C   UNK N   1      32.247  17.170   4.585  0.00  0.00    -0.090 C 
HETATM   30  C   UNK N   1      32.265  17.118   3.101  0.00  0.00     0.042 C 
HETATM   31  C   UNK N   1      30.972  16.869   5.309  0.00  0.00     0.042 C 
ENDBRANCH  27  28
ENDBRANCH  25  27
ENDBRANCH   4  25
TORSDOF 8
ENDMDL
MODEL 5
REMARK VINA RESULT:      -6.7      8.980     12.027
REMARK  8 active torsions:
REMARK  status: ('A' for Active; 'I' for Inactive)
REMARK    1  A    between atoms: C_4  and  C_3 
REMARK    2  A    between atoms: N_16  and  C_4 
REMARK    3  A    between atoms: C_9  and  C_5 
REMARK    4  A    between atoms: O_24  and  C_5 
REMARK    5  A    between atoms: C_11  and  O_25 
REMARK    6  A    between atoms: C_12  and  O_26 
REMARK    7  A    between atoms: N_16  and  C_13 
REMARK    8  A    between atoms: C_15  and  N_23 
ROOT
HETATM    1  C   UNK N   1      24.367  16.080   5.729  0.00  0.00     0.183 A 
HETATM    2  C   UNK N   1      20.052  16.262   6.674  0.00  0.00     0.188 A 
HETATM    3  C   UNK N   1      22.004  15.434   6.913  0.00  0.00     0.122 A 
HETATM    4  C   UNK N   1      23.094  14.621   7.125  0.00  0.00     0.133 A 
HETATM    5  C   UNK N   1      22.097  16.486   6.086  0.00  0.00     0.142 A 
HETATM    6  N   UNK N   1      24.280  14.968   6.531  0.00  0.00    -0.337 N 
ATOM      7  HN  UNK N   1      25.108  14.393   6.687  1.00  0.00     0.168 HD
HETATM    8  N   UNK N   1      23.254  16.829   5.467  0.00  0.00    -0.336 N 
ATOM      9  HN  UNK N   1      23.294  17.622   4.827  1.00  0.00     0.168 HD
HETATM   10  N   UNK N   1      20.733  15.282   7.328  0.00  0.00    -0.346 N 
ATOM     11  HN  UNK N   1      20.364  14.593   7.983  1.00  0.00     0.167 HD
HETATM   12  N   UNK N   1      20.883  17.011   5.903  0.00  0.00    -0.297 N 
ENDROOT
BRANCH  12  13
HETATM   13  C   UNK N   1      20.468  17.843   4.784  0.00  0.00     0.262 C 
HETATM   14  C   UNK N   1      20.133  17.150   3.482  0.00  0.00     0.198 C 
HETATM   15  C   UNK N   1      20.052  18.369   2.562  0.00  0.00     0.182 C 
HETATM   16  C   UNK N   1      20.781  19.463   3.376  0.00  0.00     0.179 C 
HETATM   17  O   UNK N   1      21.432  18.808   4.438  0.00  0.00    -0.353 OA
BRANCH  14  18
HETATM   18  O   UNK N   1      21.215  16.349   3.103  0.00  0.00    -0.388 OA
HETATM   19  H   UNK N   1      21.823  15.658   2.795  0.00  0.00     0.210 HD
ENDBRANCH  14  18
BRANCH  15  20
HETATM   20  O   UNK N   1      18.726  18.759   2.357  0.00  0.00    -0.390 OA
HETATM   21  H   UNK N   1      17.892  19.023   2.778  0.00  0.00     0.210 HD
ENDBRANCH  15  20
BRANCH  16  22
HETATM   22  C   UNK N   1      21.722  20.314   2.544  0.00  0.00     0.198 C 
BRANCH  22  23
HETATM   23  O   UNK N   1      21.157  21.575   2.344  0.00  0.00    -0.398 OA
HETATM   24  H   UNK N   1      20.491  21.795   1.674  0.00  0.00     0.209 HD
ENDBRANCH  22  23
ENDBRANCH  16  22
ENDBRANCH  12  13
BRANCH   4  25
HETATM   25  N   UNK N   1      22.955  13.422   7.854  0.00  0.00    -0.371 N 
HETATM   26  H   UNK N   1      22.711  12.596   7.376  0.00  0.00     0.161 HD
BRANCH  25  27
HETATM   27  C   UNK N   1      23.160  13.371   9.272  0.00  0.00     0.148 C 
BRANCH  27  28
HETATM   28  C   UNK N   1      21.853  13.009   9.880  0.00  0.00    -0.005 C 
HETATM   29  C   UNK N   1      21.774  12.354  11.041  0.00  0.00    -0.090 C 
HETATM   30  C   UNK N   1      20.437  12.105  11.637  0.00  0.00     0.042 C 
HETATM   31  C   UNK N   1      22.995  11.900  11.779  0.00  0.00     0.042 C 
ENDBRANCH  27  28
ENDBRANCH  25  27
ENDBRANCH   4  25
TORSDOF 8
ENDMDL
MODEL 6
REMARK VINA RESULT:      -6.7      5.264      9.309
REMARK  8 active torsions:
REMARK  status: ('A' for Active; 'I' for Inactive)
REMARK    1  A    between atoms: C_4  and  C_3 
REMARK    2  A    between atoms: N_16  and  C_4 
REMARK    3  A    between atoms: C_9  and  C_5 
REMARK    4  A    between atoms: O_24  and  C_5 
REMARK    5  A    between atoms: C_11  and  O_25 
REMARK    6  A    between atoms: C_12  and  O_26 
REMARK    7  A    between atoms: N_16  and  C_13 
REMARK    8  A    between atoms: C_15  and  N_23 
ROOT
HETATM    1  C   UNK N   1      34.484  11.933  10.666  0.00  0.00     0.183 A 
HETATM    2  C   UNK N   1      36.216  15.989  10.964  0.00  0.00     0.188 A 
HETATM    3  C   UNK N   1      35.673  14.102  11.798  0.00  0.00     0.122 A 
HETATM    4  C   UNK N   1      35.280  13.063  12.611  0.00  0.00     0.133 A 
HETATM    5  C   UNK N   1      35.414  14.064  10.483  0.00  0.00     0.142 A 
HETATM    6  N   UNK N   1      34.694  11.973  12.023  0.00  0.00    -0.337 N 
ATOM      7  HN  UNK N   1      34.410  11.182  12.601  1.00  0.00     0.168 HD
HETATM    8  N   UNK N   1      34.810  13.006   9.887  0.00  0.00    -0.336 N 
ATOM      9  HN  UNK N   1      34.605  13.011   8.887  1.00  0.00     0.168 HD
HETATM   10  N   UNK N   1      36.210  15.290  12.131  0.00  0.00    -0.346 N 
ATOM     11  HN  UNK N   1      36.537  15.597  13.047  1.00  0.00     0.167 HD
HETATM   12  N   UNK N   1      35.726  15.243   9.939  0.00  0.00    -0.297 N 
ENDROOT
BRANCH  12  13
HETATM   13  C   UNK N   1      35.209  15.774   8.686  0.00  0.00     0.262 C 
HETATM   14  C   UNK N   1      34.186  16.884   8.765  0.00  0.00     0.198 C 
HETATM   15  C   UNK N   1      33.731  16.911   7.306  0.00  0.00     0.182 C 
HETATM   16  C   UNK N   1      34.226  15.549   6.766  0.00  0.00     0.179 C 
HETATM   17  O   UNK N   1      34.604  14.786   7.886  0.00  0.00    -0.353 OA
BRANCH  14  18
HETATM   18  O   UNK N   1      33.127  16.469   9.578  0.00  0.00    -0.388 OA
HETATM   19  H   UNK N   1      32.427  16.001  10.059  0.00  0.00     0.210 HD
ENDBRANCH  14  18
BRANCH  15  20
HETATM   20  O   UNK N   1      34.361  17.939   6.599  0.00  0.00    -0.390 OA
HETATM   21  H   UNK N   1      34.738  18.832   6.647  0.00  0.00     0.210 HD
ENDBRANCH  15  20
BRANCH  16  22
HETATM   22  C   UNK N   1      33.214  14.839   5.886  0.00  0.00     0.198 C 
BRANCH  22  23
HETATM   23  O   UNK N   1      32.365  15.780   5.300  0.00  0.00    -0.398 OA
HETATM   24  H   UNK N   1      31.837  16.439   5.778  0.00  0.00     0.209 HD
ENDBRANCH  22  23
ENDBRANCH  16  22
ENDBRANCH  12  13
BRANCH   4  25
HETATM   25  N   UNK N   1      35.396  13.175  14.012  0.00  0.00    -0.371 N 
HETATM   26  H   UNK N   1      36.021  13.836  14.390  0.00  0.00     0.161 HD
BRANCH  25  27
HETATM   27  C   UNK N   1      34.629  12.353  14.903  0.00  0.00     0.148 C 
BRANCH  27  28
HETATM   28  C   UNK N   1      34.611  13.048  16.217  0.00  0.00    -0.005 C 
HETATM   29  C   UNK N   1      35.151  12.502  17.309  0.00  0.00    -0.090 C 
HETATM   30  C   UNK N   1      35.180  13.290  18.567  0.00  0.00     0.042 C 
HETATM   31  C   UNK N   1      35.764  11.136  17.291  0.00  0.00     0.042 C 
ENDBRANCH  27  28
ENDBRANCH  25  27
ENDBRANCH   4  25
TORSDOF 8
ENDMDL
MODEL 7
REMARK VINA RESULT:      -6.5      1.429      2.188
REMARK  8 active torsions:
REMARK  status: ('A' for Active; 'I' for Inactive)
REMARK    1  A    between atoms: C_4  and  C_3 
REMARK    2  A    between atoms: N_16  and  C_4 
REMARK    3  A    between atoms: C_9  and  C_5 
REMARK    4  A    between atoms: O_24  and  C_5 
REMARK    5  A    between atoms: C_11  and  O_25 
REMARK    6  A    between atoms: C_12  and  O_26 
REMARK    7  A    between atoms: N_16  and  C_13 
REMARK    8  A    between atoms: C_15  and  N_23 
ROOT
HETATM    1  C   UNK N   1      28.555  17.747   9.002  0.00  0.00     0.183 A 
HETATM    2  C   UNK N   1      31.777  17.065   6.054  0.00  0.00     0.188 A 
HETATM    3  C   UNK N   1      29.732  17.368   6.579  0.00  0.00     0.122 A 
HETATM    4  C   UNK N   1      28.358  17.371   6.654  0.00  0.00     0.133 A 
HETATM    5  C   UNK N   1      30.469  17.487   7.693  0.00  0.00     0.142 A 
HETATM    6  N   UNK N   1      27.781  17.576   7.880  0.00  0.00    -0.337 N 
ATOM      7  HN  UNK N   1      26.764  17.601   7.960  1.00  0.00     0.168 HD
HETATM    8  N   UNK N   1      29.916  17.661   8.920  0.00  0.00    -0.336 N 
ATOM      9  HN  UNK N   1      30.498  17.728   9.755  1.00  0.00     0.168 HD
HETATM   10  N   UNK N   1      30.529  17.133   5.520  0.00  0.00    -0.346 N 
ATOM     11  HN  UNK N   1      30.259  17.030   4.542  1.00  0.00     0.167 HD
HETATM   12  N   UNK N   1      31.754  17.280   7.396  0.00  0.00    -0.297 N 
ENDROOT
BRANCH  12  13
HETATM   13  C   UNK N   1      32.798  16.883   8.328  0.00  0.00     0.262 C 
HETATM   14  C   UNK N   1      33.971  17.820   8.506  0.00  0.00     0.198 C 
HETATM   15  C   UNK N   1      34.906  16.904   9.296  0.00  0.00     0.182 C 
HETATM   16  C   UNK N   1      34.309  15.501   9.044  0.00  0.00     0.179 C 
HETATM   17  O   UNK N   1      33.377  15.643   7.999  0.00  0.00    -0.353 OA
BRANCH  14  18
HETATM   18  O   UNK N   1      34.530  18.090   7.253  0.00  0.00    -0.388 OA
HETATM   19  H   UNK N   1      34.905  18.079   6.358  0.00  0.00     0.210 HD
ENDBRANCH  14  18
BRANCH  15  20
HETATM   20  O   UNK N   1      34.851  17.185  10.665  0.00  0.00    -0.390 OA
HETATM   21  H   UNK N   1      34.333  17.101  11.481  0.00  0.00     0.210 HD
ENDBRANCH  15  20
BRANCH  16  22
HETATM   22  C   UNK N   1      35.353  14.437   8.760  0.00  0.00     0.198 C 
BRANCH  22  23
HETATM   23  O   UNK N   1      36.500  14.697   9.513  0.00  0.00    -0.398 OA
HETATM   24  H   UNK N   1      36.769  14.221  10.314  0.00  0.00     0.209 HD
ENDBRANCH  22  23
ENDBRANCH  16  22
ENDBRANCH  12  13
BRANCH   4  25
HETATM   25  N   UNK N   1      27.583  17.076   5.512  0.00  0.00    -0.371 N 
HETATM   26  H   UNK N   1      27.986  16.550   4.783  0.00  0.00     0.161 HD
BRANCH  25  27
HETATM   27  C   UNK N   1      26.226  17.520   5.383  0.00  0.00     0.148 C 
BRANCH  27  28
HETATM   28  C   UNK N   1      26.182  18.420   4.200  0.00  0.00    -0.005 C 
HETATM   29  C   UNK N   1      26.218  19.749   4.326  0.00  0.00    -0.090 C 
HETATM   30  C   UNK N   1      26.264  20.585   3.100  0.00  0.00     0.042 C 
HETATM   31  C   UNK N   1      26.253  20.417   5.665  0.00  0.00     0.042 C 
ENDBRANCH  27  28
ENDBRANCH  25  27
ENDBRANCH   4  25
TORSDOF 8
ENDMDL
MODEL 8
REMARK VINA RESULT:      -6.5      4.054      8.841
REMARK  8 active torsions:
REMARK  status: ('A' for Active; 'I' for Inactive)
REMARK    1  A    between atoms: C_4  and  C_3 
REMARK    2  A    between atoms: N_16  and  C_4 
REMARK    3  A    between atoms: C_9  and  C_5 
REMARK    4  A    between atoms: O_24  and  C_5 
REMARK    5  A    between atoms: C_11  and  O_25 
REMARK    6  A    between atoms: C_12  and  O_26 
REMARK    7  A    between atoms: N_16  and  C_13 
REMARK    8  A    between atoms: C_15  and  N_23 
ROOT
HETATM    1  C   UNK N   1      36.263  12.636   9.269  0.00  0.00     0.183 A 
HETATM    2  C   UNK N   1      35.328  16.784  10.473  0.00  0.00     0.188 A 
HETATM    3  C   UNK N   1      36.211  14.873  10.815  0.00  0.00     0.122 A 
HETATM    4  C   UNK N   1      36.712  13.709  11.352  0.00  0.00     0.133 A 
HETATM    5  C   UNK N   1      35.702  14.879   9.574  0.00  0.00     0.142 A 
HETATM    6  N   UNK N   1      36.742  12.594  10.555  0.00  0.00    -0.337 N 
ATOM      7  HN  UNK N   1      37.126  11.723  10.923  1.00  0.00     0.168 HD
HETATM    8  N   UNK N   1      35.698  13.779   8.780  0.00  0.00    -0.336 N 
ATOM      9  HN  UNK N   1      35.286  13.805   7.847  1.00  0.00     0.168 HD
HETATM   10  N   UNK N   1      36.021  16.070  11.400  0.00  0.00    -0.346 N 
ATOM     11  HN  UNK N   1      36.326  16.373  12.325  1.00  0.00     0.167 HD
HETATM   12  N   UNK N   1      35.124  16.060   9.341  0.00  0.00    -0.297 N 
ENDROOT
BRANCH  12  13
HETATM   13  C   UNK N   1      34.101  16.333   8.342  0.00  0.00     0.262 C 
HETATM   14  C   UNK N   1      34.369  17.444   7.352  0.00  0.00     0.198 C 
HETATM   15  C   UNK N   1      32.978  17.567   6.731  0.00  0.00     0.182 C 
HETATM   16  C   UNK N   1      32.076  16.846   7.759  0.00  0.00     0.179 C 
HETATM   17  O   UNK N   1      32.856  16.656   8.915  0.00  0.00    -0.353 OA
BRANCH  14  18
HETATM   18  O   UNK N   1      34.673  18.615   8.054  0.00  0.00    -0.388 OA
HETATM   19  H   UNK N   1      34.959  19.300   8.678  0.00  0.00     0.210 HD
ENDBRANCH  14  18
BRANCH  15  20
HETATM   20  O   UNK N   1      32.909  16.891   5.509  0.00  0.00    -0.390 OA
HETATM   21  H   UNK N   1      33.026  16.042   5.054  0.00  0.00     0.210 HD
ENDBRANCH  15  20
BRANCH  16  22
HETATM   22  C   UNK N   1      30.773  17.571   8.041  0.00  0.00     0.198 C 
BRANCH  22  23
HETATM   23  O   UNK N   1      30.899  18.315   9.216  0.00  0.00    -0.398 OA
HETATM   24  H   UNK N   1      30.712  19.263   9.306  0.00  0.00     0.209 HD
ENDBRANCH  22  23
ENDBRANCH  16  22
ENDBRANCH  12  13
BRANCH   4  25
HETATM   25  N   UNK N   1      37.088  13.657  12.711  0.00  0.00    -0.371 N 
HETATM   26  H   UNK N   1      38.038  13.532  12.940  0.00  0.00     0.161 HD
BRANCH  25  27
HETATM   27  C   UNK N   1      36.127  13.783  13.767  0.00  0.00     0.148 C 
BRANCH  27  28
HETATM   28  C   UNK N   1      35.275  12.566  13.717  0.00  0.00    -0.005 C 
HETATM   29  C   UNK N   1      34.602  12.134  14.786  0.00  0.00    -0.090 C 
HETATM   30  C   UNK N   1      33.698  10.965  14.642  0.00  0.00     0.042 C 
HETATM   31  C   UNK N   1      34.701  12.818  16.114  0.00  0.00     0.042 C 
ENDBRANCH  27  28
ENDBRANCH  25  27
ENDBRANCH   4  25
TORSDOF 8
ENDMDL
MODEL 9
REMARK VINA RESULT:      -6.4      1.789      3.106
REMARK  8 active torsions:
REMARK  status: ('A' for Active; 'I' for Inactive)
REMARK    1  A    between atoms: C_4  and  C_3 
REMARK    2  A    between atoms: N_16  and  C_4 
REMARK    3  A    between atoms: C_9  and  C_5 
REMARK    4  A    between atoms: O_24  and  C_5 
REMARK    5  A    between atoms: C_11  and  O_25 
REMARK    6  A    between atoms: C_12  and  O_26 
REMARK    7  A    between atoms: N_16  and  C_13 
REMARK    8  A    between atoms: C_15  and  N_23 
ROOT
HETATM    1  C   UNK N   1      31.825  16.370   4.217  0.00  0.00     0.183 A 
HETATM    2  C   UNK N   1      30.267  17.391   8.226  0.00  0.00     0.188 A 
HETATM    3  C   UNK N   1      30.121  17.349   6.099  0.00  0.00     0.122 A 
HETATM    4  C   UNK N   1      29.859  17.604   4.771  0.00  0.00     0.133 A 
HETATM    5  C   UNK N   1      31.232  16.685   6.452  0.00  0.00     0.142 A 
HETATM    6  N   UNK N   1      30.721  17.093   3.836  0.00  0.00    -0.337 N 
ATOM      7  HN  UNK N   1      30.539  17.251   2.845  1.00  0.00     0.168 HD
HETATM    8  N   UNK N   1      32.111  16.196   5.542  0.00  0.00    -0.336 N 
ATOM      9  HN  UNK N   1      32.959  15.712   5.837  1.00  0.00     0.168 HD
HETATM   10  N   UNK N   1      29.471  17.781   7.195  0.00  0.00    -0.346 N 
ATOM     11  HN  UNK N   1      28.586  18.285   7.242  1.00  0.00     0.167 HD
HETATM   12  N   UNK N   1      31.358  16.714   7.780  0.00  0.00    -0.297 N 
ENDROOT
BRANCH  12  13
HETATM   13  C   UNK N   1      32.591  16.520   8.530  0.00  0.00     0.262 C 
HETATM   14  C   UNK N   1      33.568  17.673   8.581  0.00  0.00     0.198 C 
HETATM   15  C   UNK N   1      34.775  16.952   9.180  0.00  0.00     0.182 C 
HETATM   16  C   UNK N   1      34.437  15.461   8.947  0.00  0.00     0.179 C 
HETATM   17  O   UNK N   1      33.347  15.431   8.057  0.00  0.00    -0.353 OA
BRANCH  14  18
HETATM   18  O   UNK N   1      33.864  18.076   7.276  0.00  0.00    -0.388 OA
HETATM   19  H   UNK N   1      34.003  18.173   6.321  0.00  0.00     0.210 HD
ENDBRANCH  14  18
BRANCH  15  20
HETATM   20  O   UNK N   1      34.874  17.189  10.555  0.00  0.00    -0.390 OA
HETATM   21  H   UNK N   1      34.401  17.450  11.360  0.00  0.00     0.210 HD
ENDBRANCH  15  20
BRANCH  16  22
HETATM   22  C   UNK N   1      35.616  14.638   8.461  0.00  0.00     0.198 C 
BRANCH  22  23
HETATM   23  O   UNK N   1      36.657  14.724   9.388  0.00  0.00    -0.398 OA
HETATM   24  H   UNK N   1      37.297  14.021   9.584  0.00  0.00     0.209 HD
ENDBRANCH  22  23
ENDBRANCH  16  22
ENDBRANCH  12  13
BRANCH   4  25
HETATM   25  N   UNK N   1      28.788  18.446   4.408  0.00  0.00    -0.371 N 
HETATM   26  H   UNK N   1      28.984  19.329   4.018  0.00  0.00     0.161 HD
BRANCH  25  27
HETATM   27  C   UNK N   1      27.421  18.052   4.589  0.00  0.00     0.148 C 
BRANCH  27  28
HETATM   28  C   UNK N   1      26.635  18.738   3.530  0.00  0.00    -0.005 C 
HETATM   29  C   UNK N   1      26.023  19.904   3.753  0.00  0.00    -0.090 C 
HETATM   30  C   UNK N   1      25.332  20.580   2.626  0.00  0.00     0.042 C 
HETATM   31  C   UNK N   1      26.046  20.567   5.095  0.00  0.00     0.042 C 
ENDBRANCH  27  28
ENDBRANCH  25  27
ENDBRANCH   4  25
TORSDOF 8
ENDMDL
