MODEL 1
REMARK VINA RESULT:      -8.3      0.000      0.000
REMARK  10 active torsions:
REMARK  status: ('A' for Active; 'I' for Inactive)
REMARK    1  A    between atoms: C_2  and  O_3 
REMARK    2  A    between atoms: O_3  and  C_4 
REMARK    3  A    between atoms: C_7  and  C_11 
REMARK    4  A    between atoms: C_11  and  C_12 
REMARK    5  A    between atoms: C_19  and  C_14 
REMARK    6  A    between atoms: C_20  and  O_31 
REMARK    7  A    between atoms: C_21  and  O_30 
REMARK    8  A    between atoms: C_22  and  O_29 
REMARK    9  A    between atoms: C_23  and  C_27 
REMARK   10  A    between atoms: C_27  and  O_28 
ROOT
HETATM    1  C   UNK N   1      30.915  16.906   5.687  0.00  0.00    -0.032 C 
HETATM    2  C   UNK N   1      31.761  16.976   6.805  0.00  0.00     0.022 C 
HETATM    3  C   UNK N   1      33.163  17.110   6.684  0.00  0.00     0.007 C 
HETATM    4  C   UNK N   1      33.658  17.271   5.360  0.00  0.00     0.014 C 
HETATM    5  C   UNK N   1      32.855  17.131   4.248  0.00  0.00     0.025 C 
HETATM    6  C   UNK N   1      31.497  16.899   4.388  0.00  0.00     0.040 C 
HETATM    7 Cl   UNK N   1      30.649  16.513   2.901  0.00  0.00    -0.084 Cl
ENDROOT
BRANCH   3   8
HETATM    8  C   UNK N   1      34.084  17.148   7.991  0.00  0.00     0.223 C 
HETATM    9  C   UNK N   1      32.888  16.987   9.021  0.00  0.00     0.217 C 
HETATM   10  C   UNK N   1      32.490  15.533   9.247  0.00  0.00     0.184 C 
HETATM   11  C   UNK N   1      33.756  14.766   9.691  0.00  0.00     0.188 C 
HETATM   12  C   UNK N   1      35.049  15.505   9.217  0.00  0.00     0.135 C 
HETATM   13  O   UNK N   1      34.866  16.925   9.172  0.00  0.00    -0.330 OA
HETATM   14  C   UNK N   1      35.260  15.189   7.811  0.00  0.00     0.215 C 
HETATM   15  O   UNK N   1      35.036  16.413   7.218  0.00  0.00    -0.346 OA
BRANCH   9  16
HETATM   16  O   UNK N   1      31.847  17.928   8.926  0.00  0.00    -0.387 OA
HETATM   17  H   UNK N   1      31.601  18.662   8.343  0.00  0.00     0.210 HD
ENDBRANCH   9  16
BRANCH  10  18
HETATM   18  O   UNK N   1      31.477  15.451  10.206  0.00  0.00    -0.390 OA
HETATM   19  H   UNK N   1      30.546  15.546   9.949  0.00  0.00     0.210 HD
ENDBRANCH  10  18
BRANCH  11  20
HETATM   20  O   UNK N   1      33.756  14.583  11.073  0.00  0.00    -0.390 OA
HETATM   21  H   UNK N   1      33.885  15.341  11.665  0.00  0.00     0.210 HD
ENDBRANCH  11  20
BRANCH  12  22
HETATM   22  C   UNK N   1      36.269  15.121  10.042  0.00  0.00     0.207 C 
BRANCH  22  23
HETATM   23  O   UNK N   1      36.659  16.178  10.865  0.00  0.00    -0.398 OA
HETATM   24  H   UNK N   1      36.229  16.532  11.659  0.00  0.00     0.209 HD
ENDBRANCH  22  23
ENDBRANCH  12  22
ENDBRANCH   3   8
BRANCH   1  25
HETATM   25  C   UNK N   1      29.459  16.672   6.002  0.00  0.00     0.078 C 
BRANCH  25  26
HETATM   26  C   UNK N   1      28.368  17.656   5.673  0.00  0.00    -0.051 A 
HETATM   27  C   UNK N   1      27.655  17.427   4.498  0.00  0.00     0.010 A 
HETATM   28  C   UNK N   1      26.792  18.399   3.991  0.00  0.00     0.040 A 
HETATM   29  C   UNK N   1      26.653  19.625   4.636  0.00  0.00     0.107 A 
HETATM   30  C   UNK N   1      27.316  19.841   5.867  0.00  0.00     0.150 A 
HETATM   31  C   UNK N   1      28.156  18.844   6.380  0.00  0.00     0.052 A 
HETATM   32  F   UNK N   1      27.212  21.012   6.539  0.00  0.00    -0.203 F 
BRANCH  29  33
HETATM   33  O   UNK N   1      25.905  20.584   4.023  0.00  0.00    -0.348 OA
BRANCH  33  34
HETATM   34  C   UNK N   1      25.318  20.437   2.789  0.00  0.00     0.171 C 
HETATM   35  C   UNK N   1      23.811  20.544   2.938  0.00  0.00     0.034 C 
ENDBRANCH  33  34
ENDBRANCH  29  33
ENDBRANCH  25  26
ENDBRANCH   1  25
TORSDOF 10
ENDMDL
MODEL 2
REMARK VINA RESULT:      -8.3     11.535     14.330
REMARK  10 active torsions:
REMARK  status: ('A' for Active; 'I' for Inactive)
REMARK    1  A    between atoms: C_2  and  O_3 
REMARK    2  A    between atoms: O_3  and  C_4 
REMARK    3  A    between atoms: C_7  and  C_11 
REMARK    4  A    between atoms: C_11  and  C_12 
REMARK    5  A    between atoms: C_19  and  C_14 
REMARK    6  A    between atoms: C_20  and  O_31 
REMARK    7  A    between atoms: C_21  and  O_30 
REMARK    8  A    between atoms: C_22  and  O_29 
REMARK    9  A    between atoms: C_23  and  C_27 
REMARK   10  A    between atoms: C_27  and  O_28 
ROOT
HETATM    1  C   UNK N   1      28.374  25.259  -6.668  0.00  0.00    -0.032 C 
HETATM    2  C   UNK N   1      29.682  25.080  -6.191  0.00  0.00     0.022 C 
HETATM    3  C   UNK N   1      30.131  23.849  -5.662  0.00  0.00     0.007 C 
HETATM    4  C   UNK N   1      29.207  22.769  -5.734  0.00  0.00     0.014 C 
HETATM    5  C   UNK N   1      27.897  22.942  -6.128  0.00  0.00     0.025 C 
HETATM    6  C   UNK N   1      27.448  24.183  -6.549  0.00  0.00     0.040 C 
HETATM    7 Cl   UNK N   1      25.715  24.306  -6.796  0.00  0.00    -0.084 Cl
ENDROOT
BRANCH   3   8
HETATM    8  C   UNK N   1      31.621  23.710  -5.099  0.00  0.00     0.223 C 
HETATM    9  C   UNK N   1      31.223  23.898  -3.575  0.00  0.00     0.217 C 
HETATM   10  C   UNK N   1      30.768  22.601  -2.916  0.00  0.00     0.184 C 
HETATM   11  C   UNK N   1      31.894  21.560  -3.105  0.00  0.00     0.188 C 
HETATM   12  C   UNK N   1      32.794  21.931  -4.329  0.00  0.00     0.135 C 
HETATM   13  O   UNK N   1      32.881  23.348  -4.517  0.00  0.00    -0.330 OA
HETATM   14  C   UNK N   1      32.102  21.513  -5.541  0.00  0.00     0.215 C 
HETATM   15  O   UNK N   1      31.808  22.728  -6.121  0.00  0.00    -0.346 OA
BRANCH   9  16
HETATM   16  O   UNK N   1      30.507  25.064  -3.253  0.00  0.00    -0.387 OA
HETATM   17  H   UNK N   1      30.652  25.869  -2.732  0.00  0.00     0.210 HD
ENDBRANCH   9  16
BRANCH  10  18
HETATM   18  O   UNK N   1      30.490  22.815  -1.563  0.00  0.00    -0.390 OA
HETATM   19  H   UNK N   1      30.305  23.709  -1.233  0.00  0.00     0.210 HD
ENDBRANCH  10  18
BRANCH  11  20
HETATM   20  O   UNK N   1      32.650  21.442  -1.940  0.00  0.00    -0.390 OA
HETATM   21  H   UNK N   1      32.569  20.650  -1.384  0.00  0.00     0.210 HD
ENDBRANCH  11  20
BRANCH  12  22
HETATM   22  C   UNK N   1      34.172  21.289  -4.249  0.00  0.00     0.207 C 
BRANCH  22  23
HETATM   23  O   UNK N   1      34.069  19.947  -3.882  0.00  0.00    -0.398 OA
HETATM   24  H   UNK N   1      34.764  19.276  -3.796  0.00  0.00     0.209 HD
ENDBRANCH  22  23
ENDBRANCH  12  22
ENDBRANCH   3   8
BRANCH   1  25
HETATM   25  C   UNK N   1      28.041  26.661  -7.111  0.00  0.00     0.078 C 
BRANCH  25  26
HETATM   26  C   UNK N   1      27.427  27.696  -6.207  0.00  0.00    -0.051 A 
HETATM   27  C   UNK N   1      27.998  28.968  -6.237  0.00  0.00     0.010 A 
HETATM   28  C   UNK N   1      27.656  29.921  -5.278  0.00  0.00     0.040 A 
HETATM   29  C   UNK N   1      26.762  29.607  -4.257  0.00  0.00     0.107 A 
HETATM   30  C   UNK N   1      26.123  28.344  -4.259  0.00  0.00     0.150 A 
HETATM   31  C   UNK N   1      26.453  27.407  -5.246  0.00  0.00     0.052 A 
HETATM   32  F   UNK N   1      25.242  27.988  -3.293  0.00  0.00    -0.203 F 
BRANCH  29  33
HETATM   33  O   UNK N   1      26.573  30.528  -3.274  0.00  0.00    -0.348 OA
BRANCH  33  34
HETATM   34  C   UNK N   1      27.572  31.019  -2.468  0.00  0.00     0.171 C 
HETATM   35  C   UNK N   1      28.073  29.908  -1.563  0.00  0.00     0.034 C 
ENDBRANCH  33  34
ENDBRANCH  29  33
ENDBRANCH  25  26
ENDBRANCH   1  25
TORSDOF 10
ENDMDL
MODEL 3
REMARK VINA RESULT:      -8.1      9.761     14.475
REMARK  10 active torsions:
REMARK  status: ('A' for Active; 'I' for Inactive)
REMARK    1  A    between atoms: C_2  and  O_3 
REMARK    2  A    between atoms: O_3  and  C_4 
REMARK    3  A    between atoms: C_7  and  C_11 
REMARK    4  A    between atoms: C_11  and  C_12 
REMARK    5  A    between atoms: C_19  and  C_14 
REMARK    6  A    between atoms: C_20  and  O_31 
REMARK    7  A    between atoms: C_21  and  O_30 
REMARK    8  A    between atoms: C_22  and  O_29 
REMARK    9  A    between atoms: C_23  and  C_27 
REMARK   10  A    between atoms: C_27  and  O_28 
ROOT
HETATM    1  C   UNK N   1      35.532   8.971  16.911  0.00  0.00    -0.032 C 
HETATM    2  C   UNK N   1      34.883   9.950  16.142  0.00  0.00     0.022 C 
HETATM    3  C   UNK N   1      35.570  10.753  15.205  0.00  0.00     0.007 C 
HETATM    4  C   UNK N   1      36.945  10.442  15.013  0.00  0.00     0.014 C 
HETATM    5  C   UNK N   1      37.617   9.538  15.809  0.00  0.00     0.025 C 
HETATM    6  C   UNK N   1      36.944   8.833  16.792  0.00  0.00     0.040 C 
HETATM    7 Cl   UNK N   1      37.964   7.899  17.873  0.00  0.00    -0.084 Cl
ENDROOT
BRANCH   3   8
HETATM    8  C   UNK N   1      34.788  11.878  14.381  0.00  0.00     0.223 C 
HETATM    9  C   UNK N   1      35.430  13.104  15.155  0.00  0.00     0.217 C 
HETATM   10  C   UNK N   1      36.784  13.520  14.591  0.00  0.00     0.184 C 
HETATM   11  C   UNK N   1      36.594  13.810  13.085  0.00  0.00     0.188 C 
HETATM   12  C   UNK N   1      35.338  13.063  12.530  0.00  0.00     0.135 C 
HETATM   13  O   UNK N   1      34.316  12.926  13.523  0.00  0.00    -0.330 OA
HETATM   14  C   UNK N   1      35.707  11.674  12.291  0.00  0.00     0.215 C 
HETATM   15  O   UNK N   1      34.958  11.023  13.247  0.00  0.00    -0.346 OA
BRANCH   9  16
HETATM   16  O   UNK N   1      35.294  13.103  16.555  0.00  0.00    -0.387 OA
HETATM   17  H   UNK N   1      35.720  12.675  17.313  0.00  0.00     0.210 HD
ENDBRANCH   9  16
BRANCH  10  18
HETATM   18  O   UNK N   1      37.272  14.639  15.272  0.00  0.00    -0.390 OA
HETATM   19  H   UNK N   1      37.935  14.539  15.973  0.00  0.00     0.210 HD
ENDBRANCH  10  18
BRANCH  11  20
HETATM   20  O   UNK N   1      36.506  15.183  12.860  0.00  0.00    -0.390 OA
HETATM   21  H   UNK N   1      36.009  15.521  12.099  0.00  0.00     0.210 HD
ENDBRANCH  11  20
BRANCH  12  22
HETATM   22  C   UNK N   1      34.802  13.702  11.256  0.00  0.00     0.207 C 
BRANCH  22  23
HETATM   23  O   UNK N   1      33.894  14.716  11.559  0.00  0.00    -0.398 OA
HETATM   24  H   UNK N   1      32.998  14.863  11.218  0.00  0.00     0.209 HD
ENDBRANCH  22  23
ENDBRANCH  12  22
ENDBRANCH   3   8
BRANCH   1  25
HETATM   25  C   UNK N   1      34.661   8.273  17.925  0.00  0.00     0.078 C 
BRANCH  25  26
HETATM   26  C   UNK N   1      33.992   8.978  19.074  0.00  0.00    -0.051 A 
HETATM   27  C   UNK N   1      34.726   9.984  19.700  0.00  0.00     0.010 A 
HETATM   28  C   UNK N   1      34.292  10.532  20.908  0.00  0.00     0.040 A 
HETATM   29  C   UNK N   1      33.135  10.059  21.522  0.00  0.00     0.107 A 
HETATM   30  C   UNK N   1      32.345   9.089  20.861  0.00  0.00     0.150 A 
HETATM   31  C   UNK N   1      32.776   8.570  19.633  0.00  0.00     0.052 A 
HETATM   32  F   UNK N   1      31.208   8.599  21.410  0.00  0.00    -0.203 F 
BRANCH  29  33
HETATM   33  O   UNK N   1      32.837  10.532  22.763  0.00  0.00    -0.348 OA
BRANCH  33  34
HETATM   34  C   UNK N   1      33.167   9.896  23.936  0.00  0.00     0.171 C 
HETATM   35  C   UNK N   1      31.896   9.567  24.699  0.00  0.00     0.034 C 
ENDBRANCH  33  34
ENDBRANCH  29  33
ENDBRANCH  25  26
ENDBRANCH   1  25
TORSDOF 10
ENDMDL
MODEL 4
REMARK VINA RESULT:      -8.1     10.032     14.647
REMARK  10 active torsions:
REMARK  status: ('A' for Active; 'I' for Inactive)
REMARK    1  A    between atoms: C_2  and  O_3 
REMARK    2  A    between atoms: O_3  and  C_4 
REMARK    3  A    between atoms: C_7  and  C_11 
REMARK    4  A    between atoms: C_11  and  C_12 
REMARK    5  A    between atoms: C_19  and  C_14 
REMARK    6  A    between atoms: C_20  and  O_31 
REMARK    7  A    between atoms: C_21  and  O_30 
REMARK    8  A    between atoms: C_22  and  O_29 
REMARK    9  A    between atoms: C_23  and  C_27 
REMARK   10  A    between atoms: C_27  and  O_28 
ROOT
HETATM    1  C   UNK N   1      35.316   9.682  18.217  0.00  0.00    -0.032 C 
HETATM    2  C   UNK N   1      34.757  10.571  17.286  0.00  0.00     0.022 C 
HETATM    3  C   UNK N   1      35.395  10.886  16.065  0.00  0.00     0.007 C 
HETATM    4  C   UNK N   1      36.593  10.170  15.789  0.00  0.00     0.014 C 
HETATM    5  C   UNK N   1      37.197   9.351  16.721  0.00  0.00     0.025 C 
HETATM    6  C   UNK N   1      36.604   9.135  17.953  0.00  0.00     0.040 C 
HETATM    7 Cl   UNK N   1      37.592   8.265  19.114  0.00  0.00    -0.084 Cl
ENDROOT
BRANCH   3   8
HETATM    8  C   UNK N   1      34.730  11.933  15.056  0.00  0.00     0.223 C 
HETATM    9  C   UNK N   1      35.533  13.190  15.595  0.00  0.00     0.217 C 
HETATM   10  C   UNK N   1      36.911  13.332  14.960  0.00  0.00     0.184 C 
HETATM   11  C   UNK N   1      36.718  13.371  13.428  0.00  0.00     0.188 C 
HETATM   12  C   UNK N   1      35.369  12.694  13.020  0.00  0.00     0.135 C 
HETATM   13  O   UNK N   1      34.363  12.861  14.026  0.00  0.00    -0.330 OA
HETATM   14  C   UNK N   1      35.565  11.251  13.033  0.00  0.00     0.215 C 
HETATM   15  O   UNK N   1      34.769  10.876  14.093  0.00  0.00    -0.346 OA
BRANCH   9  16
HETATM   16  O   UNK N   1      35.432  13.454  16.972  0.00  0.00    -0.387 OA
HETATM   17  H   UNK N   1      35.975  13.325  17.765  0.00  0.00     0.210 HD
ENDBRANCH   9  16
BRANCH  10  18
HETATM   18  O   UNK N   1      37.544  14.487  15.427  0.00  0.00    -0.390 OA
HETATM   19  H   UNK N   1      37.651  15.259  14.848  0.00  0.00     0.210 HD
ENDBRANCH  10  18
BRANCH  11  20
HETATM   20  O   UNK N   1      36.787  14.682  12.960  0.00  0.00    -0.390 OA
HETATM   21  H   UNK N   1      36.928  14.857  12.016  0.00  0.00     0.210 HD
ENDBRANCH  11  20
BRANCH  12  22
HETATM   22  C   UNK N   1      34.880  13.157  11.654  0.00  0.00     0.207 C 
BRANCH  22  23
HETATM   23  O   UNK N   1      34.107  14.312  11.773  0.00  0.00    -0.398 OA
HETATM   24  H   UNK N   1      33.145  14.418  11.715  0.00  0.00     0.209 HD
ENDBRANCH  22  23
ENDBRANCH  12  22
ENDBRANCH   3   8
BRANCH   1  25
HETATM   25  C   UNK N   1      34.544   9.535  19.504  0.00  0.00     0.078 C 
BRANCH  25  26
HETATM   26  C   UNK N   1      33.596   8.398  19.780  0.00  0.00    -0.051 A 
HETATM   27  C   UNK N   1      34.138   7.115  19.758  0.00  0.00     0.010 A 
HETATM   28  C   UNK N   1      33.308   5.994  19.771  0.00  0.00     0.040 A 
HETATM   29  C   UNK N   1      31.923   6.141  19.773  0.00  0.00     0.107 A 
HETATM   30  C   UNK N   1      31.363   7.437  19.868  0.00  0.00     0.150 A 
HETATM   31  C   UNK N   1      32.210   8.553  19.886  0.00  0.00     0.052 A 
HETATM   32  F   UNK N   1      30.024   7.637  19.879  0.00  0.00    -0.203 F 
BRANCH  29  33
HETATM   33  O   UNK N   1      31.165   5.018  19.645  0.00  0.00    -0.348 OA
BRANCH  33  34
HETATM   34  C   UNK N   1      31.466   3.971  18.806  0.00  0.00     0.171 C 
HETATM   35  C   UNK N   1      31.067   4.340  17.388  0.00  0.00     0.034 C 
ENDBRANCH  33  34
ENDBRANCH  29  33
ENDBRANCH  25  26
ENDBRANCH   1  25
TORSDOF 10
ENDMDL
MODEL 5
REMARK VINA RESULT:      -8.0      2.157      3.518
REMARK  10 active torsions:
REMARK  status: ('A' for Active; 'I' for Inactive)
REMARK    1  A    between atoms: C_2  and  O_3 
REMARK    2  A    between atoms: O_3  and  C_4 
REMARK    3  A    between atoms: C_7  and  C_11 
REMARK    4  A    between atoms: C_11  and  C_12 
REMARK    5  A    between atoms: C_19  and  C_14 
REMARK    6  A    between atoms: C_20  and  O_31 
REMARK    7  A    between atoms: C_21  and  O_30 
REMARK    8  A    between atoms: C_22  and  O_29 
REMARK    9  A    between atoms: C_23  and  C_27 
REMARK   10  A    between atoms: C_27  and  O_28 
ROOT
HETATM    1  C   UNK N   1      32.249  15.749   6.984  0.00  0.00    -0.032 C 
HETATM    2  C   UNK N   1      32.602  14.922   8.061  0.00  0.00     0.022 C 
HETATM    3  C   UNK N   1      33.843  15.037   8.728  0.00  0.00     0.007 C 
HETATM    4  C   UNK N   1      34.675  16.112   8.306  0.00  0.00     0.014 C 
HETATM    5  C   UNK N   1      34.381  16.886   7.204  0.00  0.00     0.025 C 
HETATM    6  C   UNK N   1      33.204  16.689   6.502  0.00  0.00     0.040 C 
HETATM    7 Cl   UNK N   1      33.074  17.583   4.997  0.00  0.00    -0.084 Cl
ENDROOT
BRANCH   3   8
HETATM    8  C   UNK N   1      34.209  14.045   9.927  0.00  0.00     0.223 C 
HETATM    9  C   UNK N   1      35.439  13.368   9.190  0.00  0.00     0.217 C 
HETATM   10  C   UNK N   1      36.733  14.158   9.345  0.00  0.00     0.184 C 
HETATM   11  C   UNK N   1      36.986  14.350  10.857  0.00  0.00     0.188 C 
HETATM   12  C   UNK N   1      35.652  14.229  11.663  0.00  0.00     0.135 C 
HETATM   13  O   UNK N   1      34.736  13.318  11.045  0.00  0.00    -0.330 OA
HETATM   14  C   UNK N   1      34.938  15.493  11.548  0.00  0.00     0.215 C 
HETATM   15  O   UNK N   1      33.845  15.122  10.795  0.00  0.00    -0.346 OA
BRANCH   9  16
HETATM   16  O   UNK N   1      35.181  12.803   7.929  0.00  0.00    -0.387 OA
HETATM   17  H   UNK N   1      35.346  13.026   7.000  0.00  0.00     0.210 HD
ENDBRANCH   9  16
BRANCH  10  18
HETATM   18  O   UNK N   1      37.791  13.484   8.728  0.00  0.00    -0.390 OA
HETATM   19  H   UNK N   1      38.709  13.751   8.895  0.00  0.00     0.210 HD
ENDBRANCH  10  18
BRANCH  11  20
HETATM   20  O   UNK N   1      37.937  13.437  11.312  0.00  0.00    -0.390 OA
HETATM   21  H   UNK N   1      38.222  13.452  12.239  0.00  0.00     0.210 HD
ENDBRANCH  11  20
BRANCH  12  22
HETATM   22  C   UNK N   1      35.892  13.880  13.126  0.00  0.00     0.207 C 
BRANCH  22  23
HETATM   23  O   UNK N   1      36.812  14.758  13.697  0.00  0.00    -0.398 OA
HETATM   24  H   UNK N   1      37.548  14.573  14.301  0.00  0.00     0.209 HD
ENDBRANCH  22  23
ENDBRANCH  12  22
ENDBRANCH   3   8
BRANCH   1  25
HETATM   25  C   UNK N   1      30.927  15.424   6.335  0.00  0.00     0.078 C 
BRANCH  25  26
HETATM   26  C   UNK N   1      29.749  16.362   6.332  0.00  0.00    -0.051 A 
HETATM   27  C   UNK N   1      29.048  16.478   5.133  0.00  0.00     0.010 A 
HETATM   28  C   UNK N   1      28.097  17.483   4.963  0.00  0.00     0.040 A 
HETATM   29  C   UNK N   1      27.855  18.406   5.977  0.00  0.00     0.107 A 
HETATM   30  C   UNK N   1      28.508  18.254   7.223  0.00  0.00     0.150 A 
HETATM   31  C   UNK N   1      29.439  17.221   7.391  0.00  0.00     0.052 A 
HETATM   32  F   UNK N   1      28.306  19.119   8.245  0.00  0.00    -0.203 F 
BRANCH  29  33
HETATM   33  O   UNK N   1      27.019  19.445   5.704  0.00  0.00    -0.348 OA
BRANCH  33  34
HETATM   34  C   UNK N   1      27.437  20.703   5.344  0.00  0.00     0.171 C 
HETATM   35  C   UNK N   1      27.059  21.687   6.437  0.00  0.00     0.034 C 
ENDBRANCH  33  34
ENDBRANCH  29  33
ENDBRANCH  25  26
ENDBRANCH   1  25
TORSDOF 10
ENDMDL
MODEL 6
REMARK VINA RESULT:      -8.0      2.798      3.619
REMARK  10 active torsions:
REMARK  status: ('A' for Active; 'I' for Inactive)
REMARK    1  A    between atoms: C_2  and  O_3 
REMARK    2  A    between atoms: O_3  and  C_4 
REMARK    3  A    between atoms: C_7  and  C_11 
REMARK    4  A    between atoms: C_11  and  C_12 
REMARK    5  A    between atoms: C_19  and  C_14 
REMARK    6  A    between atoms: C_20  and  O_31 
REMARK    7  A    between atoms: C_21  and  O_30 
REMARK    8  A    between atoms: C_22  and  O_29 
REMARK    9  A    between atoms: C_23  and  C_27 
REMARK   10  A    between atoms: C_27  and  O_28 
ROOT
HETATM    1  C   UNK N   1      30.387  17.141   5.962  0.00  0.00    -0.032 C 
HETATM    2  C   UNK N   1      31.618  16.473   6.050  0.00  0.00     0.022 C 
HETATM    3  C   UNK N   1      32.254  16.221   7.287  0.00  0.00     0.007 C 
HETATM    4  C   UNK N   1      31.522  16.597   8.448  0.00  0.00     0.014 C 
HETATM    5  C   UNK N   1      30.350  17.320   8.381  0.00  0.00     0.025 C 
HETATM    6  C   UNK N   1      29.795  17.645   7.155  0.00  0.00     0.040 C 
HETATM    7 Cl   UNK N   1      28.439  18.758   7.220  0.00  0.00    -0.084 Cl
ENDROOT
BRANCH   3   8
HETATM    8  C   UNK N   1      33.674  15.487   7.328  0.00  0.00     0.223 C 
HETATM    9  C   UNK N   1      34.504  16.787   7.694  0.00  0.00     0.217 C 
HETATM   10  C   UNK N   1      34.523  17.079   9.190  0.00  0.00     0.184 C 
HETATM   11  C   UNK N   1      35.059  15.819   9.905  0.00  0.00     0.188 C 
HETATM   12  C   UNK N   1      34.849  14.546   9.022  0.00  0.00     0.135 C 
HETATM   13  O   UNK N   1      34.924  14.849   7.624  0.00  0.00    -0.330 OA
HETATM   14  C   UNK N   1      33.461  14.125   9.159  0.00  0.00     0.215 C 
HETATM   15  O   UNK N   1      32.971  14.379   7.897  0.00  0.00    -0.346 OA
BRANCH   9  16
HETATM   16  O   UNK N   1      34.361  17.887   6.830  0.00  0.00    -0.387 OA
HETATM   17  H   UNK N   1      34.661  18.143   5.944  0.00  0.00     0.210 HD
ENDBRANCH   9  16
BRANCH  10  18
HETATM   18  O   UNK N   1      35.317  18.198   9.458  0.00  0.00    -0.390 OA
HETATM   19  H   UNK N   1      35.296  18.968   8.868  0.00  0.00     0.210 HD
ENDBRANCH  10  18
BRANCH  11  20
HETATM   20  O   UNK N   1      36.401  15.983  10.244  0.00  0.00    -0.390 OA
HETATM   21  H   UNK N   1      37.091  15.867   9.571  0.00  0.00     0.210 HD
ENDBRANCH  11  20
BRANCH  12  22
HETATM   22  C   UNK N   1      35.793  13.415   9.404  0.00  0.00     0.207 C 
BRANCH  22  23
HETATM   23  O   UNK N   1      36.979  13.496   8.673  0.00  0.00    -0.398 OA
HETATM   24  H   UNK N   1      37.878  13.236   8.925  0.00  0.00     0.209 HD
ENDBRANCH  22  23
ENDBRANCH  12  22
ENDBRANCH   3   8
BRANCH   1  25
HETATM   25  C   UNK N   1      29.902  17.404   4.559  0.00  0.00     0.078 C 
BRANCH  25  26
HETATM   26  C   UNK N   1      28.702  16.726   3.952  0.00  0.00    -0.051 A 
HETATM   27  C   UNK N   1      28.957  15.647   3.108  0.00  0.00     0.010 A 
HETATM   28  C   UNK N   1      27.938  15.106   2.323  0.00  0.00     0.040 A 
HETATM   29  C   UNK N   1      26.659  15.655   2.348  0.00  0.00     0.107 A 
HETATM   30  C   UNK N   1      26.372  16.704   3.254  0.00  0.00     0.150 A 
HETATM   31  C   UNK N   1      27.397  17.218   4.059  0.00  0.00     0.052 A 
HETATM   32  F   UNK N   1      25.145  17.272   3.324  0.00  0.00    -0.203 F 
BRANCH  29  33
HETATM   33  O   UNK N   1      25.745  15.176   1.461  0.00  0.00    -0.348 OA
BRANCH  33  34
HETATM   34  C   UNK N   1      24.749  14.284   1.780  0.00  0.00     0.171 C 
HETATM   35  C   UNK N   1      23.840  14.101   0.578  0.00  0.00     0.034 C 
ENDBRANCH  33  34
ENDBRANCH  29  33
ENDBRANCH  25  26
ENDBRANCH   1  25
TORSDOF 10
ENDMDL
MODEL 7
REMARK VINA RESULT:      -7.9      2.091      3.024
REMARK  10 active torsions:
REMARK  status: ('A' for Active; 'I' for Inactive)
REMARK    1  A    between atoms: C_2  and  O_3 
REMARK    2  A    between atoms: O_3  and  C_4 
REMARK    3  A    between atoms: C_7  and  C_11 
REMARK    4  A    between atoms: C_11  and  C_12 
REMARK    5  A    between atoms: C_19  and  C_14 
REMARK    6  A    between atoms: C_20  and  O_31 
REMARK    7  A    between atoms: C_21  and  O_30 
REMARK    8  A    between atoms: C_22  and  O_29 
REMARK    9  A    between atoms: C_23  and  C_27 
REMARK   10  A    between atoms: C_27  and  O_28 
ROOT
HETATM    1  C   UNK N   1      29.329  17.547   6.184  0.00  0.00    -0.032 C 
HETATM    2  C   UNK N   1      30.488  16.756   6.221  0.00  0.00     0.022 C 
HETATM    3  C   UNK N   1      31.326  16.698   7.357  0.00  0.00     0.007 C 
HETATM    4  C   UNK N   1      30.870  17.411   8.501  0.00  0.00     0.014 C 
HETATM    5  C   UNK N   1      29.777  18.251   8.462  0.00  0.00     0.025 C 
HETATM    6  C   UNK N   1      29.026  18.372   7.304  0.00  0.00     0.040 C 
HETATM    7 Cl   UNK N   1      27.816  19.642   7.329  0.00  0.00    -0.084 Cl
ENDROOT
BRANCH   3   8
HETATM    8  C   UNK N   1      32.655  15.808   7.333  0.00  0.00     0.223 C 
HETATM    9  C   UNK N   1      33.657  17.037   7.342  0.00  0.00     0.217 C 
HETATM   10  C   UNK N   1      33.940  17.564   8.744  0.00  0.00     0.184 C 
HETATM   11  C   UNK N   1      34.454  16.381   9.593  0.00  0.00     0.188 C 
HETATM   12  C   UNK N   1      33.982  15.018   8.990  0.00  0.00     0.135 C 
HETATM   13  O   UNK N   1      33.866  15.076   7.564  0.00  0.00    -0.330 OA
HETATM   14  C   UNK N   1      32.599  14.801   9.391  0.00  0.00     0.215 C 
HETATM   15  O   UNK N   1      31.944  14.904   8.184  0.00  0.00    -0.346 OA
BRANCH   9  16
HETATM   16  O   UNK N   1      33.489  17.991   6.322  0.00  0.00    -0.387 OA
HETATM   17  H   UNK N   1      33.850  18.860   6.091  0.00  0.00     0.210 HD
ENDBRANCH   9  16
BRANCH  10  18
HETATM   18  O   UNK N   1      34.873  18.604   8.693  0.00  0.00    -0.390 OA
HETATM   19  H   UNK N   1      35.343  18.804   7.868  0.00  0.00     0.210 HD
ENDBRANCH  10  18
BRANCH  11  20
HETATM   20  O   UNK N   1      35.843  16.429   9.707  0.00  0.00    -0.390 OA
HETATM   21  H   UNK N   1      36.266  16.286  10.568  0.00  0.00     0.210 HD
ENDBRANCH  11  20
BRANCH  12  22
HETATM   22  C   UNK N   1      34.859  13.855   9.435  0.00  0.00     0.207 C 
BRANCH  22  23
HETATM   23  O   UNK N   1      35.978  13.739   8.611  0.00  0.00    -0.398 OA
HETATM   24  H   UNK N   1      36.236  13.014   8.021  0.00  0.00     0.209 HD
ENDBRANCH  22  23
ENDBRANCH  12  22
ENDBRANCH   3   8
BRANCH   1  25
HETATM   25  C   UNK N   1      28.606  17.560   4.860  0.00  0.00     0.078 C 
BRANCH  25  26
HETATM   26  C   UNK N   1      27.383  18.394   4.587  0.00  0.00    -0.051 A 
HETATM   27  C   UNK N   1      26.159  17.849   4.972  0.00  0.00     0.010 A 
HETATM   28  C   UNK N   1      24.962  18.433   4.557  0.00  0.00     0.040 A 
HETATM   29  C   UNK N   1      24.972  19.551   3.726  0.00  0.00     0.107 A 
HETATM   30  C   UNK N   1      26.207  20.153   3.389  0.00  0.00     0.150 A 
HETATM   31  C   UNK N   1      27.401  19.574   3.838  0.00  0.00     0.052 A 
HETATM   32  F   UNK N   1      26.274  21.244   2.589  0.00  0.00    -0.203 F 
BRANCH  29  33
HETATM   33  O   UNK N   1      23.779  19.992   3.243  0.00  0.00    -0.348 OA
BRANCH  33  34
HETATM   34  C   UNK N   1      22.564  19.417   3.532  0.00  0.00     0.171 C 
HETATM   35  C   UNK N   1      21.472  20.156   2.779  0.00  0.00     0.034 C 
ENDBRANCH  33  34
ENDBRANCH  29  33
ENDBRANCH  25  26
ENDBRANCH   1  25
TORSDOF 10
ENDMDL
MODEL 8
REMARK VINA RESULT:      -7.9      2.684      9.335
REMARK  10 active torsions:
REMARK  status: ('A' for Active; 'I' for Inactive)
REMARK    1  A    between atoms: C_2  and  O_3 
REMARK    2  A    between atoms: O_3  and  C_4 
REMARK    3  A    between atoms: C_7  and  C_11 
REMARK    4  A    between atoms: C_11  and  C_12 
REMARK    5  A    between atoms: C_19  and  C_14 
REMARK    6  A    between atoms: C_20  and  O_31 
REMARK    7  A    between atoms: C_21  and  O_30 
REMARK    8  A    between atoms: C_22  and  O_29 
REMARK    9  A    between atoms: C_23  and  C_27 
REMARK   10  A    between atoms: C_27  and  O_28 
ROOT
HETATM    1  C   UNK N   1      30.031  17.390   6.734  0.00  0.00    -0.032 C 
HETATM    2  C   UNK N   1      29.288  17.698   5.584  0.00  0.00     0.022 C 
HETATM    3  C   UNK N   1      28.071  18.413   5.639  0.00  0.00     0.007 C 
HETATM    4  C   UNK N   1      27.692  18.892   6.925  0.00  0.00     0.014 C 
HETATM    5  C   UNK N   1      28.366  18.538   8.074  0.00  0.00     0.025 C 
HETATM    6  C   UNK N   1      29.502  17.750   8.007  0.00  0.00     0.040 C 
HETATM    7 Cl   UNK N   1      30.116  17.190   9.553  0.00  0.00    -0.084 Cl
ENDROOT
BRANCH   3   8
HETATM    8  C   UNK N   1      27.247  18.705   4.300  0.00  0.00     0.223 C 
HETATM    9  C   UNK N   1      26.471  17.322   4.298  0.00  0.00     0.217 C 
HETATM   10  C   UNK N   1      25.219  17.341   5.168  0.00  0.00     0.184 C 
HETATM   11  C   UNK N   1      24.334  18.513   4.687  0.00  0.00     0.188 C 
HETATM   12  C   UNK N   1      25.191  19.590   3.946  0.00  0.00     0.135 C 
HETATM   13  O   UNK N   1      26.306  19.006   3.261  0.00  0.00    -0.330 OA
HETATM   14  C   UNK N   1      25.857  20.408   4.951  0.00  0.00     0.215 C 
HETATM   15  O   UNK N   1      27.175  20.058   4.760  0.00  0.00    -0.346 OA
BRANCH   9  16
HETATM   16  O   UNK N   1      27.260  16.160   4.340  0.00  0.00    -0.387 OA
HETATM   17  H   UNK N   1      27.121  15.206   4.445  0.00  0.00     0.210 HD
ENDBRANCH   9  16
BRANCH  10  18
HETATM   18  O   UNK N   1      24.546  16.119   5.078  0.00  0.00    -0.390 OA
HETATM   19  H   UNK N   1      23.670  16.069   4.664  0.00  0.00     0.210 HD
ENDBRANCH  10  18
BRANCH  11  20
HETATM   20  O   UNK N   1      23.301  18.044   3.876  0.00  0.00    -0.390 OA
HETATM   21  H   UNK N   1      23.140  17.091   3.795  0.00  0.00     0.210 HD
ENDBRANCH  11  20
BRANCH  12  22
HETATM   22  C   UNK N   1      24.353  20.458   3.017  0.00  0.00     0.207 C 
BRANCH  22  23
HETATM   23  O   UNK N   1      25.117  20.908   1.941  0.00  0.00    -0.398 OA
HETATM   24  H   UNK N   1      25.438  21.801   1.743  0.00  0.00     0.209 HD
ENDBRANCH  22  23
ENDBRANCH  12  22
ENDBRANCH   3   8
BRANCH   1  25
HETATM   25  C   UNK N   1      31.256  16.543   6.497  0.00  0.00     0.078 C 
BRANCH  25  26
HETATM   26  C   UNK N   1      32.527  16.676   7.292  0.00  0.00    -0.051 A 
HETATM   27  C   UNK N   1      32.853  15.611   8.131  0.00  0.00     0.010 A 
HETATM   28  C   UNK N   1      33.874  15.737   9.072  0.00  0.00     0.040 A 
HETATM   29  C   UNK N   1      34.564  16.939   9.210  0.00  0.00     0.107 A 
HETATM   30  C   UNK N   1      34.290  18.002   8.317  0.00  0.00     0.150 A 
HETATM   31  C   UNK N   1      33.282  17.851   7.355  0.00  0.00     0.052 A 
HETATM   32  F   UNK N   1      34.934  19.190   8.402  0.00  0.00    -0.203 F 
BRANCH  29  33
HETATM   33  O   UNK N   1      35.453  17.047  10.235  0.00  0.00    -0.348 OA
BRANCH  33  34
HETATM   34  C   UNK N   1      36.253  16.021  10.678  0.00  0.00     0.171 C 
HETATM   35  C   UNK N   1      35.751  15.546  12.030  0.00  0.00     0.034 C 
ENDBRANCH  33  34
ENDBRANCH  29  33
ENDBRANCH  25  26
ENDBRANCH   1  25
TORSDOF 10
ENDMDL
MODEL 9
REMARK VINA RESULT:      -7.9      2.000      2.747
REMARK  10 active torsions:
REMARK  status: ('A' for Active; 'I' for Inactive)
REMARK    1  A    between atoms: C_2  and  O_3 
REMARK    2  A    between atoms: O_3  and  C_4 
REMARK    3  A    between atoms: C_7  and  C_11 
REMARK    4  A    between atoms: C_11  and  C_12 
REMARK    5  A    between atoms: C_19  and  C_14 
REMARK    6  A    between atoms: C_20  and  O_31 
REMARK    7  A    between atoms: C_21  and  O_30 
REMARK    8  A    between atoms: C_22  and  O_29 
REMARK    9  A    between atoms: C_23  and  C_27 
REMARK   10  A    between atoms: C_27  and  O_28 
ROOT
HETATM    1  C   UNK N   1      30.821  15.400   6.344  0.00  0.00    -0.032 C 
HETATM    2  C   UNK N   1      32.016  15.493   7.073  0.00  0.00     0.022 C 
HETATM    3  C   UNK N   1      33.067  14.560   6.923  0.00  0.00     0.007 C 
HETATM    4  C   UNK N   1      32.882  13.575   5.912  0.00  0.00     0.014 C 
HETATM    5  C   UNK N   1      31.688  13.422   5.240  0.00  0.00     0.025 C 
HETATM    6  C   UNK N   1      30.633  14.287   5.476  0.00  0.00     0.040 C 
HETATM    7 Cl   UNK N   1      29.113  13.832   4.726  0.00  0.00    -0.084 Cl
ENDROOT
BRANCH   3   8
HETATM    8  C   UNK N   1      34.394  14.692   7.806  0.00  0.00     0.223 C 
HETATM    9  C   UNK N   1      34.846  16.081   7.187  0.00  0.00     0.217 C 
HETATM   10  C   UNK N   1      34.183  17.276   7.861  0.00  0.00     0.184 C 
HETATM   11  C   UNK N   1      34.479  17.183   9.375  0.00  0.00     0.188 C 
HETATM   12  C   UNK N   1      34.803  15.710   9.788  0.00  0.00     0.135 C 
HETATM   13  O   UNK N   1      35.448  14.989   8.731  0.00  0.00    -0.330 OA
HETATM   14  C   UNK N   1      33.545  14.989   9.914  0.00  0.00     0.215 C 
HETATM   15  O   UNK N   1      33.629  14.104   8.861  0.00  0.00    -0.346 OA
BRANCH   9  16
HETATM   16  O   UNK N   1      34.983  16.130   5.789  0.00  0.00    -0.387 OA
HETATM   17  H   UNK N   1      35.705  16.137   5.142  0.00  0.00     0.210 HD
ENDBRANCH   9  16
BRANCH  10  18
HETATM   18  O   UNK N   1      34.665  18.470   7.317  0.00  0.00    -0.390 OA
HETATM   19  H   UNK N   1      34.217  18.884   6.562  0.00  0.00     0.210 HD
ENDBRANCH  10  18
BRANCH  11  20
HETATM   20  O   UNK N   1      35.517  18.046   9.724  0.00  0.00    -0.390 OA
HETATM   21  H   UNK N   1      35.714  18.218  10.658  0.00  0.00     0.210 HD
ENDBRANCH  11  20
BRANCH  12  22
HETATM   22  C   UNK N   1      35.597  15.636  11.085  0.00  0.00     0.207 C 
BRANCH  22  23
HETATM   23  O   UNK N   1      36.925  16.005  10.872  0.00  0.00    -0.398 OA
HETATM   24  H   UNK N   1      37.332  16.420  10.096  0.00  0.00     0.209 HD
ENDBRANCH  22  23
ENDBRANCH  12  22
ENDBRANCH   3   8
BRANCH   1  25
HETATM   25  C   UNK N   1      29.774  16.426   6.699  0.00  0.00     0.078 C 
BRANCH  25  26
HETATM   26  C   UNK N   1      28.661  16.834   5.772  0.00  0.00    -0.051 A 
HETATM   27  C   UNK N   1      29.000  17.696   4.731  0.00  0.00     0.010 A 
HETATM   28  C   UNK N   1      28.008  18.310   3.966  0.00  0.00     0.040 A 
HETATM   29  C   UNK N   1      26.662  18.095   4.252  0.00  0.00     0.107 A 
HETATM   30  C   UNK N   1      26.306  17.167   5.259  0.00  0.00     0.150 A 
HETATM   31  C   UNK N   1      27.314  16.534   5.999  0.00  0.00     0.052 A 
HETATM   32  F   UNK N   1      25.013  16.916   5.574  0.00  0.00    -0.203 F 
BRANCH  29  33
HETATM   33  O   UNK N   1      25.743  18.826   3.564  0.00  0.00    -0.348 OA
BRANCH  33  34
HETATM   34  C   UNK N   1      25.113  19.943   4.059  0.00  0.00     0.171 C 
HETATM   35  C   UNK N   1      24.252  20.554   2.968  0.00  0.00     0.034 C 
ENDBRANCH  33  34
ENDBRANCH  29  33
ENDBRANCH  25  26
ENDBRANCH   1  25
TORSDOF 10
ENDMDL
