MODEL 1
REMARK VINA RESULT:      -6.1      0.000      0.000
REMARK  6 active torsions:
REMARK  status: ('A' for Active; 'I' for Inactive)
REMARK    1  A    between atoms: C_2  and  C_18 
REMARK    2  A    between atoms: C_9  and  N_8 
REMARK    3  A    between atoms: C_10  and  O_17 
REMARK    4  A    between atoms: C_11  and  O_16 
REMARK    5  A    between atoms: C_12  and  C_14 
REMARK    6  A    between atoms: C_14  and  O_15 
ROOT
HETATM    1  C   UNK N   1      23.184  17.104   4.706  0.00  0.00     0.115 A 
HETATM    2  C   UNK N   1      24.170  16.342   5.339  0.00  0.00     0.048 A 
HETATM    3  C   UNK N   1      23.788  15.536   6.426  0.00  0.00     0.261 A 
HETATM    4  O   UNK N   1      24.600  14.850   7.022  0.00  0.00    -0.267 OA
HETATM    5  N   UNK N   1      22.485  15.530   6.835  0.00  0.00    -0.275 N 
HETATM    6  C   UNK N   1      21.543  16.303   6.218  0.00  0.00     0.331 A 
HETATM    7  O   UNK N   1      20.403  16.290   6.648  0.00  0.00    -0.246 OA
HETATM    8  N   UNK N   1      21.884  17.094   5.134  0.00  0.00    -0.279 N 
HETATM    9  H   UNK N   1      22.220  14.958   7.590  0.00  0.00     0.173 HD
ENDROOT
BRANCH   8  10
HETATM   10  C   UNK N   1      20.903  18.000   4.489  0.00  0.00     0.264 C 
HETATM   11  C   UNK N   1      20.056  17.364   3.394  0.00  0.00     0.198 C 
HETATM   12  C   UNK N   1      19.723  18.549   2.509  0.00  0.00     0.182 C 
HETATM   13  C   UNK N   1      20.466  19.689   3.172  0.00  0.00     0.179 C 
HETATM   14  O   UNK N   1      21.516  19.125   3.908  0.00  0.00    -0.353 OA
BRANCH  11  15
HETATM   15  O   UNK N   1      18.895  16.804   3.940  0.00  0.00    -0.388 OA
HETATM   16  H   UNK N   1      17.994  17.077   3.709  0.00  0.00     0.210 HD
ENDBRANCH  11  15
BRANCH  12  17
HETATM   17  O   UNK N   1      18.355  18.843   2.483  0.00  0.00    -0.390 OA
HETATM   18  H   UNK N   1      17.978  19.736   2.464  0.00  0.00     0.210 HD
ENDBRANCH  12  17
BRANCH  13  19
HETATM   19  C   UNK N   1      20.983  20.670   2.132  0.00  0.00     0.198 C 
BRANCH  19  20
HETATM   20  O   UNK N   1      21.721  21.679   2.754  0.00  0.00    -0.398 OA
HETATM   21  H   UNK N   1      21.727  22.578   2.390  0.00  0.00     0.209 HD
ENDBRANCH  19  20
ENDBRANCH  13  19
ENDBRANCH   8  10
BRANCH   2  22
HETATM   22  C   UNK N   1      25.569  16.459   4.856  0.00  0.00     0.026 C 
HETATM   23  C   UNK N   1      26.210  17.624   4.740  0.00  0.00     0.057 C 
HETATM   24 Br   UNK N   1      27.994  17.696   4.067  0.00  0.00    -0.064 Br
ENDBRANCH   2  22
TORSDOF 6
ENDMDL
MODEL 2
REMARK VINA RESULT:      -6.0     11.886     13.118
REMARK  6 active torsions:
REMARK  status: ('A' for Active; 'I' for Inactive)
REMARK    1  A    between atoms: C_2  and  C_18 
REMARK    2  A    between atoms: C_9  and  N_8 
REMARK    3  A    between atoms: C_10  and  O_17 
REMARK    4  A    between atoms: C_11  and  O_16 
REMARK    5  A    between atoms: C_12  and  C_14 
REMARK    6  A    between atoms: C_14  and  O_15 
ROOT
HETATM    1  C   UNK N   1      29.787  22.422  -5.025  0.00  0.00     0.115 A 
HETATM    2  C   UNK N   1      30.554  21.288  -5.310  0.00  0.00     0.048 A 
HETATM    3  C   UNK N   1      31.303  20.716  -4.267  0.00  0.00     0.261 A 
HETATM    4  O   UNK N   1      31.993  19.729  -4.450  0.00  0.00    -0.267 OA
HETATM    5  N   UNK N   1      31.270  21.283  -3.025  0.00  0.00    -0.275 N 
HETATM    6  C   UNK N   1      30.534  22.406  -2.775  0.00  0.00     0.331 A 
HETATM    7  O   UNK N   1      30.571  22.894  -1.659  0.00  0.00    -0.246 OA
HETATM    8  N   UNK N   1      29.773  22.983  -3.777  0.00  0.00    -0.279 N 
HETATM    9  H   UNK N   1      31.788  20.874  -2.295  0.00  0.00     0.173 HD
ENDROOT
BRANCH   8  10
HETATM   10  C   UNK N   1      29.022  24.244  -3.560  0.00  0.00     0.264 C 
HETATM   11  C   UNK N   1      27.505  24.105  -3.578  0.00  0.00     0.198 C 
HETATM   12  C   UNK N   1      27.058  25.482  -4.032  0.00  0.00     0.182 C 
HETATM   13  C   UNK N   1      28.366  26.204  -4.270  0.00  0.00     0.179 C 
HETATM   14  O   UNK N   1      29.339  25.227  -4.514  0.00  0.00    -0.353 OA
BRANCH  11  15
HETATM   15  O   UNK N   1      27.026  23.820  -2.295  0.00  0.00    -0.388 OA
HETATM   16  H   UNK N   1      26.498  24.431  -1.758  0.00  0.00     0.210 HD
ENDBRANCH  11  15
BRANCH  12  17
HETATM   17  O   UNK N   1      26.324  26.165  -3.056  0.00  0.00    -0.390 OA
HETATM   18  H   UNK N   1      25.376  26.362  -3.109  0.00  0.00     0.210 HD
ENDBRANCH  12  17
BRANCH  13  19
HETATM   19  C   UNK N   1      28.243  27.168  -5.439  0.00  0.00     0.198 C 
BRANCH  19  20
HETATM   20  O   UNK N   1      26.896  27.374  -5.748  0.00  0.00    -0.398 OA
HETATM   21  H   UNK N   1      26.209  26.832  -5.327  0.00  0.00     0.209 HD
ENDBRANCH  19  20
ENDBRANCH  13  19
ENDBRANCH   8  10
BRANCH   2  22
HETATM   22  C   UNK N   1      30.569  20.779  -6.705  0.00  0.00     0.026 C 
HETATM   23  C   UNK N   1      29.750  19.820  -7.144  0.00  0.00     0.057 C 
HETATM   24 Br   UNK N   1      29.862  19.186  -8.941  0.00  0.00    -0.064 Br
ENDBRANCH   2  22
TORSDOF 6
ENDMDL
MODEL 3
REMARK VINA RESULT:      -6.0      3.408      4.308
REMARK  6 active torsions:
REMARK  status: ('A' for Active; 'I' for Inactive)
REMARK    1  A    between atoms: C_2  and  C_18 
REMARK    2  A    between atoms: C_9  and  N_8 
REMARK    3  A    between atoms: C_10  and  O_17 
REMARK    4  A    between atoms: C_11  and  O_16 
REMARK    5  A    between atoms: C_12  and  C_14 
REMARK    6  A    between atoms: C_14  and  O_15 
ROOT
HETATM    1  C   UNK N   1      21.020  16.742   4.099  0.00  0.00     0.115 A 
HETATM    2  C   UNK N   1      20.463  15.523   4.500  0.00  0.00     0.048 A 
HETATM    3  C   UNK N   1      20.094  15.375   5.849  0.00  0.00     0.261 A 
HETATM    4  O   UNK N   1      19.606  14.338   6.262  0.00  0.00    -0.267 OA
HETATM    5  N   UNK N   1      20.298  16.407   6.720  0.00  0.00    -0.275 N 
HETATM    6  C   UNK N   1      20.867  17.580   6.312  0.00  0.00     0.331 A 
HETATM    7  O   UNK N   1      21.063  18.453   7.139  0.00  0.00    -0.246 OA
HETATM    8  N   UNK N   1      21.226  17.762   4.987  0.00  0.00    -0.279 N 
HETATM    9  H   UNK N   1      20.029  16.303   7.660  0.00  0.00     0.173 HD
ENDROOT
BRANCH   8  10
HETATM   10  C   UNK N   1      21.913  18.993   4.527  0.00  0.00     0.264 C 
HETATM   11  C   UNK N   1      21.272  19.684   3.330  0.00  0.00     0.198 C 
HETATM   12  C   UNK N   1      22.453  20.387   2.688  0.00  0.00     0.182 C 
HETATM   13  C   UNK N   1      23.616  19.963   3.558  0.00  0.00     0.179 C 
HETATM   14  O   UNK N   1      23.254  18.757   4.174  0.00  0.00    -0.353 OA
BRANCH  11  15
HETATM   15  O   UNK N   1      20.311  20.607   3.756  0.00  0.00    -0.388 OA
HETATM   16  H   UNK N   1      20.341  21.079   4.603  0.00  0.00     0.210 HD
ENDBRANCH  11  15
BRANCH  12  17
HETATM   17  O   UNK N   1      22.339  21.781   2.717  0.00  0.00    -0.390 OA
HETATM   18  H   UNK N   1      21.706  22.299   2.197  0.00  0.00     0.210 HD
ENDBRANCH  12  17
BRANCH  13  19
HETATM   19  C   UNK N   1      24.879  19.802   2.727  0.00  0.00     0.198 C 
BRANCH  19  20
HETATM   20  O   UNK N   1      25.077  20.937   1.938  0.00  0.00    -0.398 OA
HETATM   21  H   UNK N   1      25.851  21.505   2.081  0.00  0.00     0.209 HD
ENDBRANCH  19  20
ENDBRANCH  13  19
ENDBRANCH   8  10
BRANCH   2  22
HETATM   22  C   UNK N   1      20.334  14.442   3.491  0.00  0.00     0.026 C 
HETATM   23  C   UNK N   1      19.615  14.565   2.373  0.00  0.00     0.057 C 
HETATM   24 Br   UNK N   1      19.459  13.111   1.146  0.00  0.00    -0.064 Br
ENDBRANCH   2  22
TORSDOF 6
ENDMDL
MODEL 4
REMARK VINA RESULT:      -6.0      2.360      4.772
REMARK  6 active torsions:
REMARK  status: ('A' for Active; 'I' for Inactive)
REMARK    1  A    between atoms: C_2  and  C_18 
REMARK    2  A    between atoms: C_9  and  N_8 
REMARK    3  A    between atoms: C_10  and  O_17 
REMARK    4  A    between atoms: C_11  and  O_16 
REMARK    5  A    between atoms: C_12  and  C_14 
REMARK    6  A    between atoms: C_14  and  O_15 
ROOT
HETATM    1  C   UNK N   1      23.188  18.647   4.505  0.00  0.00     0.115 A 
HETATM    2  C   UNK N   1      24.141  19.327   3.740  0.00  0.00     0.048 A 
HETATM    3  C   UNK N   1      23.689  20.297   2.828  0.00  0.00     0.261 A 
HETATM    4  O   UNK N   1      24.468  20.923   2.131  0.00  0.00    -0.267 OA
HETATM    5  N   UNK N   1      22.350  20.536   2.708  0.00  0.00    -0.275 N 
HETATM    6  C   UNK N   1      21.434  19.841   3.446  0.00  0.00     0.331 A 
HETATM    7  O   UNK N   1      20.250  20.065   3.271  0.00  0.00    -0.246 OA
HETATM    8  N   UNK N   1      21.849  18.891   4.365  0.00  0.00    -0.279 N 
HETATM    9  H   UNK N   1      22.038  21.222   2.076  0.00  0.00     0.173 HD
ENDROOT
BRANCH   8  10
HETATM   10  C   UNK N   1      20.880  18.068   5.128  0.00  0.00     0.264 C 
HETATM   11  C   UNK N   1      21.257  17.806   6.581  0.00  0.00     0.198 C 
HETATM   12  C   UNK N   1      20.566  16.485   6.863  0.00  0.00     0.182 C 
HETATM   13  C   UNK N   1      19.939  16.137   5.530  0.00  0.00     0.179 C 
HETATM   14  O   UNK N   1      20.671  16.807   4.542  0.00  0.00    -0.353 OA
BRANCH  11  15
HETATM   15  O   UNK N   1      20.756  18.819   7.405  0.00  0.00    -0.388 OA
HETATM   16  H   UNK N   1      19.947  18.747   7.934  0.00  0.00     0.210 HD
ENDBRANCH  11  15
BRANCH  12  17
HETATM   17  O   UNK N   1      19.561  16.592   7.832  0.00  0.00    -0.390 OA
HETATM   18  H   UNK N   1      19.247  17.423   8.219  0.00  0.00     0.210 HD
ENDBRANCH  12  17
BRANCH  13  19
HETATM   19  C   UNK N   1      19.954  14.633   5.307  0.00  0.00     0.198 C 
BRANCH  19  20
HETATM   20  O   UNK N   1      20.036  13.969   6.533  0.00  0.00    -0.398 OA
HETATM   21  H   UNK N   1      20.901  13.740   6.908  0.00  0.00     0.209 HD
ENDBRANCH  19  20
ENDBRANCH  13  19
ENDBRANCH   8  10
BRANCH   2  22
HETATM   22  C   UNK N   1      25.570  18.957   3.902  0.00  0.00     0.026 C 
HETATM   23  C   UNK N   1      26.384  19.545   4.781  0.00  0.00     0.057 C 
HETATM   24 Br   UNK N   1      28.223  19.046   4.898  0.00  0.00    -0.064 Br
ENDBRANCH   2  22
TORSDOF 6
ENDMDL
MODEL 5
REMARK VINA RESULT:      -5.9     12.669     15.149
REMARK  6 active torsions:
REMARK  status: ('A' for Active; 'I' for Inactive)
REMARK    1  A    between atoms: C_2  and  C_18 
REMARK    2  A    between atoms: C_9  and  N_8 
REMARK    3  A    between atoms: C_10  and  O_17 
REMARK    4  A    between atoms: C_11  and  O_16 
REMARK    5  A    between atoms: C_12  and  C_14 
REMARK    6  A    between atoms: C_14  and  O_15 
ROOT
HETATM    1  C   UNK N   1      35.585  14.514  12.508  0.00  0.00     0.115 A 
HETATM    2  C   UNK N   1      36.367  13.491  13.054  0.00  0.00     0.048 A 
HETATM    3  C   UNK N   1      37.152  12.719  12.179  0.00  0.00     0.261 A 
HETATM    4  O   UNK N   1      37.853  11.811  12.590  0.00  0.00    -0.267 OA
HETATM    5  N   UNK N   1      37.120  12.979  10.838  0.00  0.00    -0.275 N 
HETATM    6  C   UNK N   1      36.329  13.966  10.324  0.00  0.00     0.331 A 
HETATM    7  O   UNK N   1      36.307  14.130   9.117  0.00  0.00    -0.246 OA
HETATM    8  N   UNK N   1      35.557  14.754  11.161  0.00  0.00    -0.279 N 
HETATM    9  H   UNK N   1      37.678  12.443  10.230  0.00  0.00     0.173 HD
ENDROOT
BRANCH   8  10
HETATM   10  C   UNK N   1      34.633  15.785  10.630  0.00  0.00     0.264 C 
HETATM   11  C   UNK N   1      33.482  15.251   9.787  0.00  0.00     0.198 C 
HETATM   12  C   UNK N   1      33.180  16.420   8.869  0.00  0.00     0.182 C 
HETATM   13  C   UNK N   1      34.226  17.441   9.262  0.00  0.00     0.179 C 
HETATM   14  O   UNK N   1      35.294  16.738   9.835  0.00  0.00    -0.353 OA
BRANCH  11  15
HETATM   15  O   UNK N   1      32.381  14.952  10.597  0.00  0.00    -0.388 OA
HETATM   16  H   UNK N   1      32.092  14.054  10.821  0.00  0.00     0.210 HD
ENDBRANCH  11  15
BRANCH  12  17
HETATM   17  O   UNK N   1      31.906  16.961   9.077  0.00  0.00    -0.390 OA
HETATM   18  H   UNK N   1      31.368  16.828   9.873  0.00  0.00     0.210 HD
ENDBRANCH  12  17
BRANCH  13  19
HETATM   19  C   UNK N   1      34.676  18.242   8.051  0.00  0.00     0.198 C 
BRANCH  19  20
HETATM   20  O   UNK N   1      35.450  19.331   8.460  0.00  0.00    -0.398 OA
HETATM   21  H   UNK N   1      35.197  20.233   8.208  0.00  0.00     0.209 HD
ENDBRANCH  19  20
ENDBRANCH  13  19
ENDBRANCH   8  10
BRANCH   2  22
HETATM   22  C   UNK N   1      36.292  13.249  14.516  0.00  0.00     0.026 C 
HETATM   23  C   UNK N   1      35.379  12.456  15.082  0.00  0.00     0.057 C 
HETATM   24 Br   UNK N   1      35.318  12.233  16.977  0.00  0.00    -0.064 Br
ENDBRANCH   2  22
TORSDOF 6
ENDMDL
MODEL 6
REMARK VINA RESULT:      -5.9     12.041     14.329
REMARK  6 active torsions:
REMARK  status: ('A' for Active; 'I' for Inactive)
REMARK    1  A    between atoms: C_2  and  C_18 
REMARK    2  A    between atoms: C_9  and  N_8 
REMARK    3  A    between atoms: C_10  and  O_17 
REMARK    4  A    between atoms: C_11  and  O_16 
REMARK    5  A    between atoms: C_12  and  C_14 
REMARK    6  A    between atoms: C_14  and  O_15 
ROOT
HETATM    1  C   UNK N   1      28.798  24.675  -5.089  0.00  0.00     0.115 A 
HETATM    2  C   UNK N   1      27.877  25.654  -5.475  0.00  0.00     0.048 A 
HETATM    3  C   UNK N   1      26.767  25.884  -4.643  0.00  0.00     0.261 A 
HETATM    4  O   UNK N   1      25.927  26.721  -4.923  0.00  0.00    -0.267 OA
HETATM    5  N   UNK N   1      26.616  25.146  -3.503  0.00  0.00    -0.275 N 
HETATM    6  C   UNK N   1      27.514  24.177  -3.159  0.00  0.00     0.331 A 
HETATM    7  O   UNK N   1      27.311  23.521  -2.153  0.00  0.00    -0.246 OA
HETATM    8  N   UNK N   1      28.626  23.938  -3.949  0.00  0.00    -0.279 N 
HETATM    9  H   UNK N   1      25.843  25.316  -2.918  0.00  0.00     0.173 HD
ENDROOT
BRANCH   8  10
HETATM   10  C   UNK N   1      29.581  22.845  -3.644  0.00  0.00     0.264 C 
HETATM   11  C   UNK N   1      30.739  23.231  -2.733  0.00  0.00     0.198 C 
HETATM   12  C   UNK N   1      31.823  22.257  -3.153  0.00  0.00     0.182 C 
HETATM   13  C   UNK N   1      31.171  21.487  -4.281  0.00  0.00     0.179 C 
HETATM   14  O   UNK N   1      30.158  22.300  -4.806  0.00  0.00    -0.353 OA
BRANCH  11  15
HETATM   15  O   UNK N   1      30.387  23.043  -1.392  0.00  0.00    -0.388 OA
HETATM   16  H   UNK N   1      29.901  22.274  -1.055  0.00  0.00     0.210 HD
ENDBRANCH  11  15
BRANCH  12  17
HETATM   17  O   UNK N   1      32.181  21.368  -2.134  0.00  0.00    -0.390 OA
HETATM   18  H   UNK N   1      31.911  20.438  -2.086  0.00  0.00     0.210 HD
ENDBRANCH  12  17
BRANCH  13  19
HETATM   19  C   UNK N   1      32.194  21.122  -5.344  0.00  0.00     0.198 C 
BRANCH  19  20
HETATM   20  O   UNK N   1      33.475  21.481  -4.917  0.00  0.00    -0.398 OA
HETATM   21  H   UNK N   1      34.199  21.568  -5.557  0.00  0.00     0.209 HD
ENDBRANCH  19  20
ENDBRANCH  13  19
ENDBRANCH   8  10
BRANCH   2  22
HETATM   22  C   UNK N   1      28.098  26.364  -6.760  0.00  0.00     0.026 C 
HETATM   23  C   UNK N   1      28.818  27.484  -6.864  0.00  0.00     0.057 C 
HETATM   24 Br   UNK N   1      29.019  28.364  -8.545  0.00  0.00    -0.064 Br
ENDBRANCH   2  22
TORSDOF 6
ENDMDL
MODEL 7
REMARK VINA RESULT:      -5.9     11.233     14.720
REMARK  6 active torsions:
REMARK  status: ('A' for Active; 'I' for Inactive)
REMARK    1  A    between atoms: C_2  and  C_18 
REMARK    2  A    between atoms: C_9  and  N_8 
REMARK    3  A    between atoms: C_10  and  O_17 
REMARK    4  A    between atoms: C_11  and  O_16 
REMARK    5  A    between atoms: C_12  and  C_14 
REMARK    6  A    between atoms: C_14  and  O_15 
ROOT
HETATM    1  C   UNK N   1      34.147  15.216   7.738  0.00  0.00     0.115 A 
HETATM    2  C   UNK N   1      33.698  15.865   6.583  0.00  0.00     0.048 A 
HETATM    3  C   UNK N   1      33.823  17.264   6.519  0.00  0.00     0.261 A 
HETATM    4  O   UNK N   1      33.449  17.889   5.542  0.00  0.00    -0.267 OA
HETATM    5  N   UNK N   1      34.360  17.942   7.576  0.00  0.00    -0.275 N 
HETATM    6  C   UNK N   1      34.768  17.290   8.705  0.00  0.00     0.331 A 
HETATM    7  O   UNK N   1      35.203  17.946   9.635  0.00  0.00    -0.246 OA
HETATM    8  N   UNK N   1      34.674  15.911   8.792  0.00  0.00    -0.279 N 
HETATM    9  H   UNK N   1      34.455  18.920   7.523  0.00  0.00     0.173 HD
ENDROOT
BRANCH   8  10
HETATM   10  C   UNK N   1      35.038  15.180  10.030  0.00  0.00     0.264 C 
HETATM   11  C   UNK N   1      36.532  14.966  10.240  0.00  0.00     0.198 C 
HETATM   12  C   UNK N   1      36.565  13.701  11.076  0.00  0.00     0.182 C 
HETATM   13  C   UNK N   1      35.103  13.325  11.185  0.00  0.00     0.179 C 
HETATM   14  O   UNK N   1      34.445  13.907  10.094  0.00  0.00    -0.353 OA
BRANCH  11  15
HETATM   15  O   UNK N   1      37.086  16.043  10.939  0.00  0.00    -0.388 OA
HETATM   16  H   UNK N   1      37.731  15.958  11.658  0.00  0.00     0.210 HD
ENDBRANCH  11  15
BRANCH  12  17
HETATM   17  O   UNK N   1      37.085  13.909  12.358  0.00  0.00    -0.390 OA
HETATM   18  H   UNK N   1      36.576  14.223  13.121  0.00  0.00     0.210 HD
ENDBRANCH  12  17
BRANCH  13  19
HETATM   19  C   UNK N   1      34.935  11.815  11.193  0.00  0.00     0.198 C 
BRANCH  19  20
HETATM   20  O   UNK N   1      34.110  11.432  12.252  0.00  0.00    -0.398 OA
HETATM   21  H   UNK N   1      33.145  11.437  12.148  0.00  0.00     0.209 HD
ENDBRANCH  19  20
ENDBRANCH  13  19
ENDBRANCH   8  10
BRANCH   2  22
HETATM   22  C   UNK N   1      33.078  15.047   5.511  0.00  0.00     0.026 C 
HETATM   23  C   UNK N   1      31.780  14.735   5.485  0.00  0.00     0.057 C 
HETATM   24 Br   UNK N   1      31.065  13.638   4.096  0.00  0.00    -0.064 Br
ENDBRANCH   2  22
TORSDOF 6
ENDMDL
MODEL 8
REMARK VINA RESULT:      -5.9     13.397     16.565
REMARK  6 active torsions:
REMARK  status: ('A' for Active; 'I' for Inactive)
REMARK    1  A    between atoms: C_2  and  C_18 
REMARK    2  A    between atoms: C_9  and  N_8 
REMARK    3  A    between atoms: C_10  and  O_17 
REMARK    4  A    between atoms: C_11  and  O_16 
REMARK    5  A    between atoms: C_12  and  C_14 
REMARK    6  A    between atoms: C_14  and  O_15 
ROOT
HETATM    1  C   UNK N   1      36.442  13.271  13.009  0.00  0.00     0.115 A 
HETATM    2  C   UNK N   1      36.892  12.347  13.958  0.00  0.00     0.048 A 
HETATM    3  C   UNK N   1      37.572  11.204  13.500  0.00  0.00     0.261 A 
HETATM    4  O   UNK N   1      37.986  10.361  14.275  0.00  0.00    -0.267 OA
HETATM    5  N   UNK N   1      37.762  11.027  12.159  0.00  0.00    -0.275 N 
HETATM    6  C   UNK N   1      37.292  11.929  11.248  0.00  0.00     0.331 A 
HETATM    7  O   UNK N   1      37.453  11.702  10.062  0.00  0.00    -0.246 OA
HETATM    8  N   UNK N   1      36.633  13.072  11.669  0.00  0.00    -0.279 N 
HETATM    9  H   UNK N   1      38.247  10.231  11.843  0.00  0.00     0.173 HD
ENDROOT
BRANCH   8  10
HETATM   10  C   UNK N   1      36.046  14.034  10.705  0.00  0.00     0.264 C 
HETATM   11  C   UNK N   1      35.983  15.478  11.188  0.00  0.00     0.198 C 
HETATM   12  C   UNK N   1      34.802  16.030  10.412  0.00  0.00     0.182 C 
HETATM   13  C   UNK N   1      34.310  14.826   9.638  0.00  0.00     0.179 C 
HETATM   14  O   UNK N   1      34.734  13.686  10.333  0.00  0.00    -0.353 OA
BRANCH  11  15
HETATM   15  O   UNK N   1      37.162  16.155  10.856  0.00  0.00    -0.388 OA
HETATM   16  H   UNK N   1      37.600  16.806  11.426  0.00  0.00     0.210 HD
ENDBRANCH  11  15
BRANCH  12  17
HETATM   17  O   UNK N   1      35.165  17.040   9.513  0.00  0.00    -0.390 OA
HETATM   18  H   UNK N   1      35.378  17.953   9.759  0.00  0.00     0.210 HD
ENDBRANCH  12  17
BRANCH  13  19
HETATM   19  C   UNK N   1      32.796  14.859   9.501  0.00  0.00     0.198 C 
BRANCH  19  20
HETATM   20  O   UNK N   1      32.209  15.101  10.745  0.00  0.00    -0.398 OA
HETATM   21  H   UNK N   1      32.626  14.770  11.556  0.00  0.00     0.209 HD
ENDBRANCH  19  20
ENDBRANCH  13  19
ENDBRANCH   8  10
BRANCH   2  22
HETATM   22  C   UNK N   1      36.588  12.601  15.389  0.00  0.00     0.026 C 
HETATM   23  C   UNK N   1      35.416  13.078  15.816  0.00  0.00     0.057 C 
HETATM   24 Br   UNK N   1      35.118  13.423  17.669  0.00  0.00    -0.064 Br
ENDBRANCH   2  22
TORSDOF 6
ENDMDL
MODEL 9
REMARK VINA RESULT:      -5.7      3.233      6.301
REMARK  6 active torsions:
REMARK  status: ('A' for Active; 'I' for Inactive)
REMARK    1  A    between atoms: C_2  and  C_18 
REMARK    2  A    between atoms: C_9  and  N_8 
REMARK    3  A    between atoms: C_10  and  O_17 
REMARK    4  A    between atoms: C_11  and  O_16 
REMARK    5  A    between atoms: C_12  and  C_14 
REMARK    6  A    between atoms: C_14  and  O_15 
ROOT
HETATM    1  C   UNK N   1      22.289  18.215   3.806  0.00  0.00     0.115 A 
HETATM    2  C   UNK N   1      20.937  18.016   3.510  0.00  0.00     0.048 A 
HETATM    3  C   UNK N   1      20.226  19.076   2.919  0.00  0.00     0.261 A 
HETATM    4  O   UNK N   1      19.046  18.968   2.638  0.00  0.00    -0.267 OA
HETATM    5  N   UNK N   1      20.865  20.257   2.665  0.00  0.00    -0.275 N 
HETATM    6  C   UNK N   1      22.180  20.437   2.987  0.00  0.00     0.331 A 
HETATM    7  O   UNK N   1      22.690  21.523   2.776  0.00  0.00    -0.246 OA
HETATM    8  N   UNK N   1      22.911  19.407   3.554  0.00  0.00    -0.279 N 
HETATM    9  H   UNK N   1      20.367  20.992   2.242  0.00  0.00     0.173 HD
ENDROOT
BRANCH   8  10
HETATM   10  C   UNK N   1      24.319  19.593   3.983  0.00  0.00     0.264 C 
HETATM   11  C   UNK N   1      25.351  19.526   2.864  0.00  0.00     0.198 C 
HETATM   12  C   UNK N   1      26.592  19.050   3.594  0.00  0.00     0.182 C 
HETATM   13  C   UNK N   1      26.099  18.850   5.011  0.00  0.00     0.179 C 
HETATM   14  O   UNK N   1      24.716  18.643   4.942  0.00  0.00    -0.353 OA
BRANCH  11  15
HETATM   15  O   UNK N   1      25.551  20.795   2.310  0.00  0.00    -0.388 OA
HETATM   16  H   UNK N   1      25.165  21.095   1.472  0.00  0.00     0.210 HD
ENDBRANCH  11  15
BRANCH  12  17
HETATM   17  O   UNK N   1      27.622  19.998   3.594  0.00  0.00    -0.390 OA
HETATM   18  H   UNK N   1      28.153  20.243   2.820  0.00  0.00     0.210 HD
ENDBRANCH  12  17
BRANCH  13  19
HETATM   19  C   UNK N   1      26.804  17.672   5.664  0.00  0.00     0.198 C 
BRANCH  19  20
HETATM   20  O   UNK N   1      25.862  16.745   6.118  0.00  0.00    -0.398 OA
HETATM   21  H   UNK N   1      25.475  16.834   7.003  0.00  0.00     0.209 HD
ENDBRANCH  19  20
ENDBRANCH  13  19
ENDBRANCH   8  10
BRANCH   2  22
HETATM   22  C   UNK N   1      20.319  16.717   3.874  0.00  0.00     0.026 C 
HETATM   23  C   UNK N   1      20.698  15.995   4.932  0.00  0.00     0.057 C 
HETATM   24 Br   UNK N   1      19.885  14.310   5.308  0.00  0.00    -0.064 Br
ENDBRANCH   2  22
TORSDOF 6
ENDMDL
