REMARK  5 active torsions:
REMARK  status: ('A' for Active; 'I' for Inactive)
REMARK    1  A    between atoms: C_3  and  N_9 
REMARK       I    between atoms: N_9  and  C_10 
REMARK    2  A    between atoms: C_14  and  C_22 
REMARK    3  A    between atoms: C_15  and  C_18 
REMARK       I    between atoms: C_22  and  N_24 
REMARK    4  A    between atoms: N_24  and  C_25 
REMARK    5  A    between atoms: C_25  and  C_26 
ROOT
HETATM    1  N   UNK N   1       7.437  -4.985  -0.160  0.00  0.00    -0.190 N 
HETATM    2  C   UNK N   1       6.242  -5.745  -0.150  0.00  0.00     0.683 A 
HETATM    3  N   UNK N   1       6.259  -7.065   0.169  0.00  0.00    -0.201 N 
ATOM      4  HN  UNK N   1       7.149  -7.530   0.350  1.00  0.00     0.183 HD
HETATM    5  C   UNK N   1       5.100  -7.772   0.250  0.00  0.00     0.125 A 
HETATM    6  C   UNK N   1       3.860  -7.155   0.007  0.00  0.00     0.080 A 
HETATM    7  C   UNK N   1       3.880  -5.777  -0.369  0.00  0.00     0.149 A 
HETATM    8  N   UNK N   1       5.068  -5.141  -0.439  0.00  0.00    -0.185 N 
ATOM      9  HN  UNK N   1       5.080  -4.161  -0.721  1.00  0.00     0.184 HD
HETATM   10  H   UNK N   1       8.303  -5.453  -0.194  0.00  0.00     0.184 HD
ENDROOT
BRANCH   6  11
HETATM   11  C   UNK N   1       2.610  -7.957   0.180  0.00  0.00     0.255 C 
HETATM   12  O   UNK N   1       2.672  -9.139   0.494  0.00  0.00    -0.268 OA
HETATM   13  N   UNK N   1       1.410  -7.362   0.020  0.00  0.00    -0.356 N 
HETATM   14  H   UNK N   1       1.418  -6.416  -0.252  0.00  0.00     0.162 HD
BRANCH  13  15
HETATM   15  C   UNK N   1       0.121  -7.971   0.208  0.00  0.00     0.127 C 
BRANCH  15  16
HETATM   16  C   UNK N   1      -0.910  -6.909  -0.154  0.00  0.00     0.007 C 
HETATM   17  C   UNK N   1      -2.340  -7.426  -0.183  0.00  0.00     0.032 C 
HETATM   18  C   UNK N   1      -3.240  -6.248  -0.576  0.00  0.00     0.168 C 
HETATM   19  O   UNK N   1      -3.139  -5.220   0.384  0.00  0.00    -0.391 OA
HETATM   20  C   UNK N   1      -1.850  -4.668   0.268  0.00  0.00     0.168 C 
HETATM   21  C   UNK N   1      -0.821  -5.683   0.756  0.00  0.00     0.032 C 
ENDBRANCH  15  16
ENDBRANCH  13  15
ENDBRANCH   6  11
BRANCH   7  22
HETATM   22  C   UNK N   1       2.655  -4.946  -0.662  0.00  0.00     0.434 C 
HETATM   23  F   UNK N   1       1.878  -4.843   0.476  0.00  0.00    -0.165 F 
HETATM   24  F   UNK N   1       3.024  -3.662  -1.026  0.00  0.00    -0.165 F 
HETATM   25  F   UNK N   1       1.931  -5.488  -1.709  0.00  0.00    -0.165 F 
ENDBRANCH   7  22
BRANCH   1  26
HETATM   26  C   UNK N   1       7.419  -3.558  -0.122  0.00  0.00     0.071 A 
HETATM   27  C   UNK N   1       8.248  -2.854  -1.002  0.00  0.00     0.033 A 
HETATM   28  C   UNK N   1       8.231  -1.456  -1.030  0.00  0.00     0.026 A 
HETATM   29  C   UNK N   1       7.389  -0.748  -0.172  0.00  0.00     0.035 A 
HETATM   30  C   UNK N   1       6.581  -1.433   0.733  0.00  0.00     0.050 A 
HETATM   31 Cl   UNK N   1       7.351   1.001  -0.219  0.00  0.00    -0.084 Cl
HETATM   32  C   UNK N   1       6.585  -2.829   0.774  0.00  0.00     0.062 A 
HETATM   33 Cl   UNK N   1       5.577  -3.598   1.997  0.00  0.00    -0.082 Cl
ENDBRANCH   1  26
TORSDOF 5
