MODEL 1
REMARK VINA RESULT:      -7.2      0.000      0.000
REMARK  16 active torsions:
REMARK  status: ('A' for Active; 'I' for Inactive)
REMARK    1  A    between atoms: C_2  and  C_3 
REMARK    2  A    between atoms: C_3  and  C_5 
REMARK    3  A    between atoms: C_5  and  C_6 
REMARK    4  A    between atoms: C_5  and  N_28 
REMARK       I    between atoms: C_6  and  N_8 
REMARK    5  A    between atoms: C_9  and  N_8 
REMARK    6  A    between atoms: C_9  and  C_10 
REMARK    7  A    between atoms: C_9  and  C_13 
REMARK       I    between atoms: C_13  and  N_15 
REMARK    8  A    between atoms: C_19  and  C_20 
REMARK       I    between atoms: C_20  and  N_22 
REMARK    9  A    between atoms: N_22  and  C_23 
REMARK   10  A    between atoms: C_23  and  C_25 
REMARK       I    between atoms: C_25  and  N_27 
REMARK       I    between atoms: N_28  and  C_29 
REMARK   11  A    between atoms: C_29  and  C_31 
REMARK   12  A    between atoms: C_31  and  C_32 
REMARK   13  A    between atoms: C_31  and  N_40 
REMARK   14  A    between atoms: C_32  and  C_33 
REMARK   15  A    between atoms: C_33  and  C_34 
REMARK   16  A    between atoms: C_34  and  N_35 
REMARK       I    between atoms: N_35  and  C_36 
REMARK       I    between atoms: C_36  and  N_39 
ROOT
HETATM    1  C   UNK N   1      25.329  17.912   4.900  0.00  0.00     0.241 C 
HETATM    2  O   UNK N   1      25.350  16.927   4.178  0.00  0.00    -0.271 OA
HETATM    3  N   UNK N   1      24.139  18.507   5.204  0.00  0.00    -0.346 N 
HETATM    4  H   UNK N   1      24.097  19.195   5.906  0.00  0.00     0.163 HD
ENDROOT
BRANCH   1   5
HETATM    5  C   UNK N   1      26.618  18.584   5.248  0.00  0.00     0.180 C 
BRANCH   5   6
HETATM    6  C   UNK N   1      26.595  20.083   4.861  0.00  0.00     0.013 C 
HETATM    7  C   UNK N   1      26.787  20.438   3.393  0.00  0.00     0.012 C 
BRANCH   6   8
HETATM    8  C   UNK N   1      27.343  21.014   5.806  0.00  0.00     0.002 C 
HETATM    9  C   UNK N   1      26.444  21.606   6.873  0.00  0.00     0.005 C 
ENDBRANCH   6   8
ENDBRANCH   5   6
BRANCH   5  10
HETATM   10  N   UNK N   1      27.746  17.798   4.775  0.00  0.00    -0.346 N 
HETATM   11  C   UNK N   1      28.937  17.636   5.428  0.00  0.00     0.240 C 
HETATM   12  O   UNK N   1      29.095  18.029   6.573  0.00  0.00    -0.271 OA
HETATM   13  H   UNK N   1      27.643  17.343   3.907  0.00  0.00     0.163 HD
BRANCH  11  14
HETATM   14  C   UNK N   1      30.113  17.051   4.712  0.00  0.00     0.167 C 
BRANCH  14  15
HETATM   15  C   UNK N   1      30.444  15.632   5.159  0.00  0.00     0.036 C 
BRANCH  15  16
HETATM   16  C   UNK N   1      31.727  15.598   5.993  0.00  0.00     0.023 C 
BRANCH  16  17
HETATM   17  C   UNK N   1      32.414  16.958   6.066  0.00  0.00     0.138 C 
BRANCH  17  18
HETATM   18  N   UNK N   1      33.332  16.978   7.176  0.00  0.00    -0.227 N 
HETATM   19  C   UNK N   1      32.934  17.396   8.465  0.00  0.00     0.665 C 
HETATM   20  N   UNK N   1      31.745  17.831   8.672  0.00  0.00    -0.235 N 
HETATM   21  N   UNK N   1      33.828  17.260   9.547  0.00  0.00    -0.235 N 
HETATM   22  H   UNK N   1      31.063  17.873   7.963  0.00  0.00     0.174 HD
ATOM     23  HN  UNK N   1      31.496  18.147   9.609  1.00  0.00     0.174 HD
HETATM   24  H   UNK N   1      33.682  17.735  10.396  0.00  0.00     0.174 HD
HETATM   25  H   UNK N   1      34.615  16.674   9.451  0.00  0.00     0.174 HD
HETATM   26  H   UNK N   1      34.264  16.693   7.031  0.00  0.00     0.177 HD
ENDBRANCH  17  18
ENDBRANCH  16  17
ENDBRANCH  15  16
ENDBRANCH  14  15
BRANCH  14  27
HETATM   27  N   UNK N   1      29.856  17.066   3.282  0.00  0.00    -0.418 N 
HETATM   28  H   UNK N   1      28.901  17.104   2.922  0.00  0.00     0.150 HD
HETATM   29  H   UNK N   1      30.638  17.038   2.628  0.00  0.00     0.150 HD
ENDBRANCH  14  27
ENDBRANCH  11  14
ENDBRANCH   5  10
ENDBRANCH   1   5
BRANCH   3  30
HETATM   30  C   UNK N   1      22.930  18.119   4.484  0.00  0.00     0.180 C 
BRANCH  30  31
HETATM   31  C   UNK N   1      22.286  19.310   3.721  0.00  0.00     0.009 C 
HETATM   32  C   UNK N   1      23.244  20.256   3.019  0.00  0.00     0.012 C 
HETATM   33  C   UNK N   1      21.026  19.049   2.906  0.00  0.00     0.012 C 
ENDBRANCH  30  31
BRANCH  30  34
HETATM   34  C   UNK N   1      22.118  17.358   5.523  0.00  0.00     0.243 C 
HETATM   35  O   UNK N   1      21.738  17.912   6.551  0.00  0.00    -0.271 OA
HETATM   36  N   UNK N   1      22.010  16.004   5.401  0.00  0.00    -0.337 N 
HETATM   37  C   UNK N   1      21.620  15.137   6.472  0.00  0.00     0.127 C 
HETATM   38  C   UNK N   1      22.237  15.336   4.145  0.00  0.00     0.179 C 
HETATM   39  C   UNK N   1      21.786  13.730   5.907  0.00  0.00     0.022 C 
HETATM   40  C   UNK N   1      22.460  13.889   4.544  0.00  0.00     0.037 C 
BRANCH  38  41
HETATM   41  C   UNK N   1      20.943  15.447   3.365  0.00  0.00     0.241 C 
HETATM   42  O   UNK N   1      19.931  15.850   3.927  0.00  0.00    -0.271 OA
HETATM   43  N   UNK N   1      20.875  15.046   2.069  0.00  0.00    -0.346 N 
HETATM   44  H   UNK N   1      21.702  14.781   1.604  0.00  0.00     0.163 HD
BRANCH  43  45
HETATM   45  C   UNK N   1      19.613  14.998   1.351  0.00  0.00     0.172 C 
HETATM   46  C   UNK N   1      19.436  13.650   0.651  0.00  0.00     0.042 C 
BRANCH  45  47
HETATM   47  C   UNK N   1      19.527  16.168   0.395  0.00  0.00     0.237 C 
HETATM   48  O   UNK N   1      20.517  16.829   0.120  0.00  0.00    -0.271 OA
HETATM   49  N   UNK N   1      18.333  16.510  -0.128  0.00  0.00    -0.368 N 
HETATM   50  H   UNK N   1      18.194  16.543  -1.102  0.00  0.00     0.159 HD
HETATM   51  H   UNK N   1      17.587  16.732   0.474  0.00  0.00     0.159 HD
ENDBRANCH  45  47
ENDBRANCH  43  45
ENDBRANCH  38  41
ENDBRANCH  30  34
ENDBRANCH   3  30
TORSDOF 16
ENDMDL
MODEL 2
REMARK VINA RESULT:      -7.1      1.429      2.006
REMARK  16 active torsions:
REMARK  status: ('A' for Active; 'I' for Inactive)
REMARK    1  A    between atoms: C_2  and  C_3 
REMARK    2  A    between atoms: C_3  and  C_5 
REMARK    3  A    between atoms: C_5  and  C_6 
REMARK    4  A    between atoms: C_5  and  N_28 
REMARK       I    between atoms: C_6  and  N_8 
REMARK    5  A    between atoms: C_9  and  N_8 
REMARK    6  A    between atoms: C_9  and  C_10 
REMARK    7  A    between atoms: C_9  and  C_13 
REMARK       I    between atoms: C_13  and  N_15 
REMARK    8  A    between atoms: C_19  and  C_20 
REMARK       I    between atoms: C_20  and  N_22 
REMARK    9  A    between atoms: N_22  and  C_23 
REMARK   10  A    between atoms: C_23  and  C_25 
REMARK       I    between atoms: C_25  and  N_27 
REMARK       I    between atoms: N_28  and  C_29 
REMARK   11  A    between atoms: C_29  and  C_31 
REMARK   12  A    between atoms: C_31  and  C_32 
REMARK   13  A    between atoms: C_31  and  N_40 
REMARK   14  A    between atoms: C_32  and  C_33 
REMARK   15  A    between atoms: C_33  and  C_34 
REMARK   16  A    between atoms: C_34  and  N_35 
REMARK       I    between atoms: N_35  and  C_36 
REMARK       I    between atoms: C_36  and  N_39 
ROOT
HETATM    1  C   UNK N   1      26.384  17.653   4.556  0.00  0.00     0.241 C 
HETATM    2  O   UNK N   1      26.375  17.253   3.401  0.00  0.00    -0.271 OA
HETATM    3  N   UNK N   1      25.250  17.574   5.311  0.00  0.00    -0.346 N 
HETATM    4  H   UNK N   1      25.290  17.742   6.280  0.00  0.00     0.163 HD
ENDROOT
BRANCH   1   5
HETATM    5  C   UNK N   1      27.564  18.428   5.046  0.00  0.00     0.180 C 
BRANCH   5   6
HETATM    6  C   UNK N   1      27.267  19.948   5.072  0.00  0.00     0.013 C 
HETATM    7  C   UNK N   1      27.526  20.698   6.371  0.00  0.00     0.012 C 
BRANCH   6   8
HETATM    8  C   UNK N   1      25.978  20.375   4.381  0.00  0.00     0.002 C 
HETATM    9  C   UNK N   1      26.191  20.736   2.924  0.00  0.00     0.005 C 
ENDBRANCH   6   8
ENDBRANCH   5   6
BRANCH   5  10
HETATM   10  N   UNK N   1      28.773  18.004   4.360  0.00  0.00    -0.346 N 
HETATM   11  C   UNK N   1      29.934  17.601   4.961  0.00  0.00     0.240 C 
HETATM   12  O   UNK N   1      29.995  17.415   6.167  0.00  0.00    -0.271 OA
HETATM   13  H   UNK N   1      28.755  18.007   3.375  0.00  0.00     0.163 HD
BRANCH  11  14
HETATM   14  C   UNK N   1      31.189  17.470   4.160  0.00  0.00     0.167 C 
BRANCH  14  15
HETATM   15  C   UNK N   1      32.253  16.619   4.845  0.00  0.00     0.036 C 
BRANCH  15  16
HETATM   16  C   UNK N   1      33.422  17.480   5.333  0.00  0.00     0.023 C 
BRANCH  16  17
HETATM   17  C   UNK N   1      33.725  17.269   6.813  0.00  0.00     0.138 C 
BRANCH  17  18
HETATM   18  N   UNK N   1      32.734  17.945   7.612  0.00  0.00    -0.227 N 
HETATM   19  C   UNK N   1      31.817  17.234   8.418  0.00  0.00     0.665 C 
HETATM   20  N   UNK N   1      31.801  15.952   8.415  0.00  0.00    -0.235 N 
HETATM   21  N   UNK N   1      30.965  17.943   9.291  0.00  0.00    -0.235 N 
HETATM   22  H   UNK N   1      32.428  15.414   7.880  0.00  0.00     0.174 HD
ATOM     23  HN  UNK N   1      31.111  15.470   8.990  1.00  0.00     0.174 HD
HETATM   24  H   UNK N   1      30.174  17.519   9.692  0.00  0.00     0.174 HD
HETATM   25  H   UNK N   1      31.168  18.884   9.505  0.00  0.00     0.174 HD
HETATM   26  H   UNK N   1      32.696  18.929   7.595  0.00  0.00     0.177 HD
ENDBRANCH  17  18
ENDBRANCH  16  17
ENDBRANCH  15  16
ENDBRANCH  14  15
BRANCH  14  27
HETATM   27  N   UNK N   1      30.869  16.899   2.862  0.00  0.00    -0.418 N 
HETATM   28  H   UNK N   1      31.046  17.421   2.003  0.00  0.00     0.150 HD
HETATM   29  H   UNK N   1      30.463  15.966   2.808  0.00  0.00     0.150 HD
ENDBRANCH  14  27
ENDBRANCH  11  14
ENDBRANCH   5  10
ENDBRANCH   1   5
BRANCH   3  30
HETATM   30  C   UNK N   1      23.978  17.241   4.677  0.00  0.00     0.180 C 
BRANCH  30  31
HETATM   31  C   UNK N   1      22.884  18.314   4.941  0.00  0.00     0.009 C 
HETATM   32  C   UNK N   1      22.297  18.990   3.715  0.00  0.00     0.012 C 
HETATM   33  C   UNK N   1      21.834  18.028   6.006  0.00  0.00     0.012 C 
ENDBRANCH  30  31
BRANCH  30  34
HETATM   34  C   UNK N   1      23.735  15.795   5.089  0.00  0.00     0.243 C 
HETATM   35  O   UNK N   1      23.754  15.469   6.273  0.00  0.00    -0.271 OA
HETATM   36  N   UNK N   1      23.719  14.837   4.120  0.00  0.00    -0.337 N 
HETATM   37  C   UNK N   1      23.882  13.438   4.381  0.00  0.00     0.127 C 
HETATM   38  C   UNK N   1      23.479  15.161   2.737  0.00  0.00     0.179 C 
HETATM   39  C   UNK N   1      23.939  12.793   3.000  0.00  0.00     0.022 C 
HETATM   40  C   UNK N   1      23.983  13.941   1.990  0.00  0.00     0.037 C 
BRANCH  38  41
HETATM   41  C   UNK N   1      21.975  15.261   2.578  0.00  0.00     0.241 C 
HETATM   42  O   UNK N   1      21.257  15.179   3.567  0.00  0.00    -0.271 OA
HETATM   43  N   UNK N   1      21.412  15.376   1.347  0.00  0.00    -0.346 N 
HETATM   44  H   UNK N   1      21.993  15.503   0.563  0.00  0.00     0.163 HD
BRANCH  43  45
HETATM   45  C   UNK N   1      19.972  15.315   1.160  0.00  0.00     0.172 C 
HETATM   46  C   UNK N   1      19.545  13.933   0.667  0.00  0.00     0.042 C 
BRANCH  45  47
HETATM   47  C   UNK N   1      19.534  16.427   0.232  0.00  0.00     0.237 C 
HETATM   48  O   UNK N   1      20.324  17.280  -0.145  0.00  0.00    -0.271 OA
HETATM   49  N   UNK N   1      18.244  16.502  -0.151  0.00  0.00    -0.368 N 
HETATM   50  H   UNK N   1      17.994  16.491  -1.103  0.00  0.00     0.159 HD
HETATM   51  H   UNK N   1      17.540  16.569   0.533  0.00  0.00     0.159 HD
ENDBRANCH  45  47
ENDBRANCH  43  45
ENDBRANCH  38  41
ENDBRANCH  30  34
ENDBRANCH   3  30
TORSDOF 16
ENDMDL
MODEL 3
REMARK VINA RESULT:      -6.9      3.041     11.297
REMARK  16 active torsions:
REMARK  status: ('A' for Active; 'I' for Inactive)
REMARK    1  A    between atoms: C_2  and  C_3 
REMARK    2  A    between atoms: C_3  and  C_5 
REMARK    3  A    between atoms: C_5  and  C_6 
REMARK    4  A    between atoms: C_5  and  N_28 
REMARK       I    between atoms: C_6  and  N_8 
REMARK    5  A    between atoms: C_9  and  N_8 
REMARK    6  A    between atoms: C_9  and  C_10 
REMARK    7  A    between atoms: C_9  and  C_13 
REMARK       I    between atoms: C_13  and  N_15 
REMARK    8  A    between atoms: C_19  and  C_20 
REMARK       I    between atoms: C_20  and  N_22 
REMARK    9  A    between atoms: N_22  and  C_23 
REMARK   10  A    between atoms: C_23  and  C_25 
REMARK       I    between atoms: C_25  and  N_27 
REMARK       I    between atoms: N_28  and  C_29 
REMARK   11  A    between atoms: C_29  and  C_31 
REMARK   12  A    between atoms: C_31  and  C_32 
REMARK   13  A    between atoms: C_31  and  N_40 
REMARK   14  A    between atoms: C_32  and  C_33 
REMARK   15  A    between atoms: C_33  and  C_34 
REMARK   16  A    between atoms: C_34  and  N_35 
REMARK       I    between atoms: N_35  and  C_36 
REMARK       I    between atoms: C_36  and  N_39 
ROOT
HETATM    1  C   UNK N   1      28.864  17.199   5.803  0.00  0.00     0.241 C 
HETATM    2  O   UNK N   1      28.651  16.124   6.343  0.00  0.00    -0.271 OA
HETATM    3  N   UNK N   1      30.148  17.627   5.626  0.00  0.00    -0.346 N 
HETATM    4  H   UNK N   1      30.334  18.406   5.054  0.00  0.00     0.163 HD
ENDROOT
BRANCH   1   5
HETATM    5  C   UNK N   1      27.720  18.127   5.556  0.00  0.00     0.180 C 
BRANCH   5   6
HETATM    6  C   UNK N   1      27.838  19.409   6.417  0.00  0.00     0.013 C 
HETATM    7  C   UNK N   1      27.990  19.239   7.922  0.00  0.00     0.012 C 
BRANCH   6   8
HETATM    8  C   UNK N   1      26.895  20.543   6.034  0.00  0.00     0.002 C 
HETATM    9  C   UNK N   1      26.769  20.713   4.533  0.00  0.00     0.005 C 
ENDBRANCH   6   8
ENDBRANCH   5   6
BRANCH   5  10
HETATM   10  N   UNK N   1      26.458  17.407   5.614  0.00  0.00    -0.346 N 
HETATM   11  C   UNK N   1      25.657  17.111   4.546  0.00  0.00     0.240 C 
HETATM   12  O   UNK N   1      26.028  17.303   3.398  0.00  0.00    -0.271 OA
HETATM   13  H   UNK N   1      26.154  17.107   6.501  0.00  0.00     0.163 HD
BRANCH  11  14
HETATM   14  C   UNK N   1      24.259  16.630   4.766  0.00  0.00     0.167 C 
BRANCH  14  15
HETATM   15  C   UNK N   1      23.303  17.735   5.200  0.00  0.00     0.036 C 
BRANCH  15  16
HETATM   16  C   UNK N   1      22.929  18.639   4.022  0.00  0.00     0.023 C 
BRANCH  16  17
HETATM   17  C   UNK N   1      21.435  18.944   3.971  0.00  0.00     0.138 C 
BRANCH  17  18
HETATM   18  N   UNK N   1      21.008  19.044   2.599  0.00  0.00    -0.227 N 
HETATM   19  C   UNK N   1      20.855  20.293   1.956  0.00  0.00     0.665 C 
HETATM   20  N   UNK N   1      21.036  21.386   2.601  0.00  0.00    -0.235 N 
HETATM   21  N   UNK N   1      20.577  20.333   0.573  0.00  0.00    -0.235 N 
HETATM   22  H   UNK N   1      21.306  21.407   3.548  0.00  0.00     0.174 HD
ATOM     23  HN  UNK N   1      20.895  22.271   2.114  1.00  0.00     0.174 HD
HETATM   24  H   UNK N   1      20.244  21.152   0.141  0.00  0.00     0.174 HD
HETATM   25  H   UNK N   1      20.720  19.525   0.029  0.00  0.00     0.174 HD
HETATM   26  H   UNK N   1      20.817  18.220   2.095  0.00  0.00     0.177 HD
ENDBRANCH  17  18
ENDBRANCH  16  17
ENDBRANCH  15  16
ENDBRANCH  14  15
BRANCH  14  27
HETATM   27  N   UNK N   1      23.769  16.014   3.543  0.00  0.00    -0.418 N 
HETATM   28  H   UNK N   1      23.447  15.045   3.538  0.00  0.00     0.150 HD
HETATM   29  H   UNK N   1      23.745  16.556   2.680  0.00  0.00     0.150 HD
ENDBRANCH  14  27
ENDBRANCH  11  14
ENDBRANCH   5  10
ENDBRANCH   1   5
BRANCH   3  30
HETATM   30  C   UNK N   1      31.244  16.925   6.287  0.00  0.00     0.180 C 
BRANCH  30  31
HETATM   31  C   UNK N   1      31.532  17.481   7.710  0.00  0.00     0.009 C 
HETATM   32  C   UNK N   1      31.121  16.595   8.873  0.00  0.00     0.012 C 
HETATM   33  C   UNK N   1      32.861  18.183   7.956  0.00  0.00     0.012 C 
ENDBRANCH  30  31
BRANCH  30  34
HETATM   34  C   UNK N   1      32.351  16.912   5.241  0.00  0.00     0.243 C 
HETATM   35  O   UNK N   1      32.495  17.856   4.469  0.00  0.00    -0.271 OA
HETATM   36  N   UNK N   1      33.032  15.751   5.029  0.00  0.00    -0.337 N 
HETATM   37  C   UNK N   1      33.807  15.486   3.854  0.00  0.00     0.127 C 
HETATM   38  C   UNK N   1      33.066  14.701   6.015  0.00  0.00     0.179 C 
HETATM   39  C   UNK N   1      34.247  14.033   4.003  0.00  0.00     0.022 C 
HETATM   40  C   UNK N   1      33.513  13.484   5.227  0.00  0.00     0.037 C 
BRANCH  38  41
HETATM   41  C   UNK N   1      34.148  15.083   7.005  0.00  0.00     0.241 C 
HETATM   42  O   UNK N   1      35.101  15.754   6.629  0.00  0.00    -0.271 OA
HETATM   43  N   UNK N   1      34.106  14.636   8.287  0.00  0.00    -0.346 N 
HETATM   44  H   UNK N   1      33.309  14.149   8.600  0.00  0.00     0.163 HD
BRANCH  43  45
HETATM   45  C   UNK N   1      35.208  14.859   9.208  0.00  0.00     0.172 C 
HETATM   46  C   UNK N   1      35.929  13.547   9.521  0.00  0.00     0.042 C 
BRANCH  45  47
HETATM   47  C   UNK N   1      34.699  15.557  10.450  0.00  0.00     0.237 C 
HETATM   48  O   UNK N   1      34.066  14.947  11.300  0.00  0.00    -0.271 OA
HETATM   49  N   UNK N   1      34.909  16.879  10.602  0.00  0.00    -0.368 N 
HETATM   50  H   UNK N   1      35.385  17.232  11.388  0.00  0.00     0.159 HD
HETATM   51  H   UNK N   1      34.582  17.502   9.914  0.00  0.00     0.159 HD
ENDBRANCH  45  47
ENDBRANCH  43  45
ENDBRANCH  38  41
ENDBRANCH  30  34
ENDBRANCH   3  30
TORSDOF 16
ENDMDL
MODEL 4
REMARK VINA RESULT:      -6.9      4.617     12.514
REMARK  16 active torsions:
REMARK  status: ('A' for Active; 'I' for Inactive)
REMARK    1  A    between atoms: C_2  and  C_3 
REMARK    2  A    between atoms: C_3  and  C_5 
REMARK    3  A    between atoms: C_5  and  C_6 
REMARK    4  A    between atoms: C_5  and  N_28 
REMARK       I    between atoms: C_6  and  N_8 
REMARK    5  A    between atoms: C_9  and  N_8 
REMARK    6  A    between atoms: C_9  and  C_10 
REMARK    7  A    between atoms: C_9  and  C_13 
REMARK       I    between atoms: C_13  and  N_15 
REMARK    8  A    between atoms: C_19  and  C_20 
REMARK       I    between atoms: C_20  and  N_22 
REMARK    9  A    between atoms: N_22  and  C_23 
REMARK   10  A    between atoms: C_23  and  C_25 
REMARK       I    between atoms: C_25  and  N_27 
REMARK       I    between atoms: N_28  and  C_29 
REMARK   11  A    between atoms: C_29  and  C_31 
REMARK   12  A    between atoms: C_31  and  C_32 
REMARK   13  A    between atoms: C_31  and  N_40 
REMARK   14  A    between atoms: C_32  and  C_33 
REMARK   15  A    between atoms: C_33  and  C_34 
REMARK   16  A    between atoms: C_34  and  N_35 
REMARK       I    between atoms: N_35  and  C_36 
REMARK       I    between atoms: C_36  and  N_39 
ROOT
HETATM    1  C   UNK N   1      31.724  15.374   6.796  0.00  0.00     0.241 C 
HETATM    2  O   UNK N   1      31.700  14.294   7.366  0.00  0.00    -0.271 OA
HETATM    3  N   UNK N   1      32.807  16.194   6.937  0.00  0.00    -0.346 N 
HETATM    4  H   UNK N   1      32.906  16.985   6.359  0.00  0.00     0.163 HD
ENDROOT
BRANCH   1   5
HETATM    5  C   UNK N   1      30.478  15.879   6.143  0.00  0.00     0.180 C 
BRANCH   5   6
HETATM    6  C   UNK N   1      30.631  15.935   4.603  0.00  0.00     0.013 C 
HETATM    7  C   UNK N   1      31.256  14.733   3.910  0.00  0.00     0.012 C 
BRANCH   6   8
HETATM    8  C   UNK N   1      31.112  17.268   4.043  0.00  0.00     0.002 C 
HETATM    9  C   UNK N   1      32.488  17.171   3.413  0.00  0.00     0.005 C 
ENDBRANCH   6   8
ENDBRANCH   5   6
BRANCH   5  10
HETATM   10  N   UNK N   1      30.010  17.087   6.805  0.00  0.00    -0.346 N 
HETATM   11  C   UNK N   1      28.702  17.429   7.011  0.00  0.00     0.240 C 
HETATM   12  O   UNK N   1      27.794  16.645   6.782  0.00  0.00    -0.271 OA
HETATM   13  H   UNK N   1      30.696  17.713   7.132  0.00  0.00     0.163 HD
BRANCH  11  14
HETATM   14  C   UNK N   1      28.347  18.818   7.435  0.00  0.00     0.167 C 
BRANCH  14  15
HETATM   15  C   UNK N   1      27.409  19.523   6.462  0.00  0.00     0.036 C 
BRANCH  15  16
HETATM   16  C   UNK N   1      28.082  19.745   5.105  0.00  0.00     0.023 C 
BRANCH  16  17
HETATM   17  C   UNK N   1      27.323  19.083   3.959  0.00  0.00     0.138 C 
BRANCH  17  18
HETATM   18  N   UNK N   1      26.359  20.007   3.419  0.00  0.00    -0.227 N 
HETATM   19  C   UNK N   1      24.973  19.736   3.445  0.00  0.00     0.665 C 
HETATM   20  N   UNK N   1      24.533  18.621   3.901  0.00  0.00    -0.235 N 
HETATM   21  N   UNK N   1      24.062  20.734   3.037  0.00  0.00    -0.235 N 
HETATM   22  H   UNK N   1      25.127  17.926   4.268  0.00  0.00     0.174 HD
ATOM     23  HN  UNK N   1      23.529  18.448   3.885  1.00  0.00     0.174 HD
HETATM   24  H   UNK N   1      23.126  20.518   2.826  0.00  0.00     0.174 HD
HETATM   25  H   UNK N   1      24.370  21.666   2.963  0.00  0.00     0.174 HD
HETATM   26  H   UNK N   1      26.675  20.850   3.020  0.00  0.00     0.177 HD
ENDBRANCH  17  18
ENDBRANCH  16  17
ENDBRANCH  15  16
ENDBRANCH  14  15
BRANCH  14  27
HETATM   27  N   UNK N   1      27.737  18.772   8.754  0.00  0.00    -0.418 N 
HETATM   28  H   UNK N   1      27.761  19.585   9.371  0.00  0.00     0.150 HD
HETATM   29  H   UNK N   1      27.279  17.917   9.068  0.00  0.00     0.150 HD
ENDBRANCH  14  27
ENDBRANCH  11  14
ENDBRANCH   5  10
ENDBRANCH   1   5
BRANCH   3  30
HETATM   30  C   UNK N   1      33.817  15.893   7.946  0.00  0.00     0.180 C 
BRANCH  30  31
HETATM   31  C   UNK N   1      34.130  17.114   8.855  0.00  0.00     0.009 C 
HETATM   32  C   UNK N   1      35.030  16.849  10.050  0.00  0.00     0.012 C 
HETATM   33  C   UNK N   1      34.425  18.452   8.191  0.00  0.00     0.012 C 
ENDBRANCH  30  31
BRANCH  30  34
HETATM   34  C   UNK N   1      34.937  15.232   7.153  0.00  0.00     0.243 C 
HETATM   35  O   UNK N   1      35.463  15.814   6.208  0.00  0.00    -0.271 OA
HETATM   36  N   UNK N   1      35.192  13.910   7.364  0.00  0.00    -0.337 N 
HETATM   37  C   UNK N   1      35.926  13.085   6.452  0.00  0.00     0.127 C 
HETATM   38  C   UNK N   1      34.778  13.242   8.572  0.00  0.00     0.179 C 
HETATM   39  C   UNK N   1      35.825  11.680   7.037  0.00  0.00     0.022 C 
HETATM   40  C   UNK N   1      34.844  11.770   8.207  0.00  0.00     0.037 C 
BRANCH  38  41
HETATM   41  C   UNK N   1      35.835  13.549   9.612  0.00  0.00     0.241 C 
HETATM   42  O   UNK N   1      36.922  13.992   9.257  0.00  0.00    -0.271 OA
HETATM   43  N   UNK N   1      35.617  13.281  10.926  0.00  0.00    -0.346 N 
HETATM   44  H   UNK N   1      34.724  12.984  11.213  0.00  0.00     0.163 HD
BRANCH  43  45
HETATM   45  C   UNK N   1      36.671  13.421  11.917  0.00  0.00     0.172 C 
HETATM   46  C   UNK N   1      37.423  12.103  12.102  0.00  0.00     0.042 C 
BRANCH  45  47
HETATM   47  C   UNK N   1      36.085  13.946  13.210  0.00  0.00     0.237 C 
HETATM   48  O   UNK N   1      34.963  13.621  13.570  0.00  0.00    -0.271 OA
HETATM   49  N   UNK N   1      36.794  14.816  13.954  0.00  0.00    -0.368 N 
HETATM   50  H   UNK N   1      37.017  14.621  14.893  0.00  0.00     0.159 HD
HETATM   51  H   UNK N   1      37.096  15.663  13.552  0.00  0.00     0.159 HD
ENDBRANCH  45  47
ENDBRANCH  43  45
ENDBRANCH  38  41
ENDBRANCH  30  34
ENDBRANCH   3  30
TORSDOF 16
ENDMDL
MODEL 5
REMARK VINA RESULT:      -6.9      1.614      2.097
REMARK  16 active torsions:
REMARK  status: ('A' for Active; 'I' for Inactive)
REMARK    1  A    between atoms: C_2  and  C_3 
REMARK    2  A    between atoms: C_3  and  C_5 
REMARK    3  A    between atoms: C_5  and  C_6 
REMARK    4  A    between atoms: C_5  and  N_28 
REMARK       I    between atoms: C_6  and  N_8 
REMARK    5  A    between atoms: C_9  and  N_8 
REMARK    6  A    between atoms: C_9  and  C_10 
REMARK    7  A    between atoms: C_9  and  C_13 
REMARK       I    between atoms: C_13  and  N_15 
REMARK    8  A    between atoms: C_19  and  C_20 
REMARK       I    between atoms: C_20  and  N_22 
REMARK    9  A    between atoms: N_22  and  C_23 
REMARK   10  A    between atoms: C_23  and  C_25 
REMARK       I    between atoms: C_25  and  N_27 
REMARK       I    between atoms: N_28  and  C_29 
REMARK   11  A    between atoms: C_29  and  C_31 
REMARK   12  A    between atoms: C_31  and  C_32 
REMARK   13  A    between atoms: C_31  and  N_40 
REMARK   14  A    between atoms: C_32  and  C_33 
REMARK   15  A    between atoms: C_33  and  C_34 
REMARK   16  A    between atoms: C_34  and  N_35 
REMARK       I    between atoms: N_35  and  C_36 
REMARK       I    between atoms: C_36  and  N_39 
ROOT
HETATM    1  C   UNK N   1      24.804  17.673   5.073  0.00  0.00     0.241 C 
HETATM    2  O   UNK N   1      24.838  16.593   4.502  0.00  0.00    -0.271 OA
HETATM    3  N   UNK N   1      23.608  18.191   5.478  0.00  0.00    -0.346 N 
HETATM    4  H   UNK N   1      23.586  18.973   6.075  0.00  0.00     0.163 HD
ENDROOT
BRANCH   1   5
HETATM    5  C   UNK N   1      26.040  18.512   5.112  0.00  0.00     0.180 C 
BRANCH   5   6
HETATM    6  C   UNK N   1      25.771  19.937   4.567  0.00  0.00     0.013 C 
HETATM    7  C   UNK N   1      25.655  20.108   3.059  0.00  0.00     0.012 C 
BRANCH   6   8
HETATM    8  C   UNK N   1      26.562  21.053   5.238  0.00  0.00     0.002 C 
HETATM    9  C   UNK N   1      26.575  20.930   6.749  0.00  0.00     0.005 C 
ENDBRANCH   6   8
ENDBRANCH   5   6
BRANCH   5  10
HETATM   10  N   UNK N   1      27.165  17.789   4.540  0.00  0.00    -0.346 N 
HETATM   11  C   UNK N   1      28.412  17.686   5.092  0.00  0.00     0.240 C 
HETATM   12  O   UNK N   1      28.642  18.081   6.225  0.00  0.00    -0.271 OA
HETATM   13  H   UNK N   1      27.015  17.335   3.679  0.00  0.00     0.163 HD
BRANCH  11  14
HETATM   14  C   UNK N   1      29.554  17.169   4.278  0.00  0.00     0.167 C 
BRANCH  14  15
HETATM   15  C   UNK N   1      30.903  17.312   4.974  0.00  0.00     0.036 C 
BRANCH  15  16
HETATM   16  C   UNK N   1      31.527  15.943   5.259  0.00  0.00     0.023 C 
BRANCH  16  17
HETATM   17  C   UNK N   1      31.719  15.687   6.751  0.00  0.00     0.138 C 
BRANCH  17  18
HETATM   18  N   UNK N   1      30.922  16.618   7.509  0.00  0.00    -0.227 N 
HETATM   19  C   UNK N   1      31.454  17.332   8.606  0.00  0.00     0.665 C 
HETATM   20  N   UNK N   1      32.656  17.124   9.000  0.00  0.00    -0.235 N 
HETATM   21  N   UNK N   1      30.678  18.336   9.223  0.00  0.00    -0.235 N 
HETATM   22  H   UNK N   1      33.260  16.488   8.552  0.00  0.00     0.174 HD
ATOM     23  HN  UNK N   1      33.002  17.639   9.809  1.00  0.00     0.174 HD
HETATM   24  H   UNK N   1      30.911  18.692  10.110  0.00  0.00     0.174 HD
HETATM   25  H   UNK N   1      29.887  18.690   8.754  0.00  0.00     0.174 HD
HETATM   26  H   UNK N   1      29.981  16.760   7.255  0.00  0.00     0.177 HD
ENDBRANCH  17  18
ENDBRANCH  16  17
ENDBRANCH  15  16
ENDBRANCH  14  15
BRANCH  14  27
HETATM   27  N   UNK N   1      29.316  15.771   3.958  0.00  0.00    -0.418 N 
HETATM   28  H   UNK N   1      28.442  15.314   4.223  0.00  0.00     0.150 HD
HETATM   29  H   UNK N   1      30.030  15.239   3.461  0.00  0.00     0.150 HD
ENDBRANCH  14  27
ENDBRANCH  11  14
ENDBRANCH   5  10
ENDBRANCH   1   5
BRANCH   3  30
HETATM   30  C   UNK N   1      22.363  17.580   5.024  0.00  0.00     0.180 C 
BRANCH  30  31
HETATM   31  C   UNK N   1      21.875  18.164   3.669  0.00  0.00     0.009 C 
HETATM   32  C   UNK N   1      20.529  17.668   3.169  0.00  0.00     0.012 C 
HETATM   33  C   UNK N   1      22.081  19.649   3.406  0.00  0.00     0.012 C 
ENDBRANCH  30  31
BRANCH  30  34
HETATM   34  C   UNK N   1      21.458  17.648   6.247  0.00  0.00     0.243 C 
HETATM   35  O   UNK N   1      21.090  18.730   6.696  0.00  0.00    -0.271 OA
HETATM   36  N   UNK N   1      21.246  16.508   6.964  0.00  0.00    -0.337 N 
HETATM   37  C   UNK N   1      20.752  16.493   8.308  0.00  0.00     0.127 C 
HETATM   38  C   UNK N   1      21.459  15.203   6.392  0.00  0.00     0.179 C 
HETATM   39  C   UNK N   1      20.822  15.028   8.728  0.00  0.00     0.022 C 
HETATM   40  C   UNK N   1      21.552  14.292   7.603  0.00  0.00     0.037 C 
BRANCH  38  41
HETATM   41  C   UNK N   1      20.204  14.871   5.610  0.00  0.00     0.241 C 
HETATM   42  O   UNK N   1      19.108  15.161   6.075  0.00  0.00    -0.271 OA
HETATM   43  N   UNK N   1      20.277  14.199   4.432  0.00  0.00    -0.346 N 
HETATM   44  H   UNK N   1      21.159  14.023   4.033  0.00  0.00     0.163 HD
BRANCH  43  45
HETATM   45  C   UNK N   1      19.083  13.735   3.745  0.00  0.00     0.172 C 
HETATM   46  C   UNK N   1      18.753  12.295   4.141  0.00  0.00     0.042 C 
BRANCH  45  47
HETATM   47  C   UNK N   1      19.258  13.904   2.252  0.00  0.00     0.237 C 
HETATM   48  O   UNK N   1      18.341  13.666   1.480  0.00  0.00    -0.271 OA
HETATM   49  N   UNK N   1      20.455  14.283   1.763  0.00  0.00    -0.368 N 
HETATM   50  H   UNK N   1      20.547  15.091   1.208  0.00  0.00     0.159 HD
HETATM   51  H   UNK N   1      21.252  13.741   1.964  0.00  0.00     0.159 HD
ENDBRANCH  45  47
ENDBRANCH  43  45
ENDBRANCH  38  41
ENDBRANCH  30  34
ENDBRANCH   3  30
TORSDOF 16
ENDMDL
MODEL 6
REMARK VINA RESULT:      -6.7      1.577      2.394
REMARK  16 active torsions:
REMARK  status: ('A' for Active; 'I' for Inactive)
REMARK    1  A    between atoms: C_2  and  C_3 
REMARK    2  A    between atoms: C_3  and  C_5 
REMARK    3  A    between atoms: C_5  and  C_6 
REMARK    4  A    between atoms: C_5  and  N_28 
REMARK       I    between atoms: C_6  and  N_8 
REMARK    5  A    between atoms: C_9  and  N_8 
REMARK    6  A    between atoms: C_9  and  C_10 
REMARK    7  A    between atoms: C_9  and  C_13 
REMARK       I    between atoms: C_13  and  N_15 
REMARK    8  A    between atoms: C_19  and  C_20 
REMARK       I    between atoms: C_20  and  N_22 
REMARK    9  A    between atoms: N_22  and  C_23 
REMARK   10  A    between atoms: C_23  and  C_25 
REMARK       I    between atoms: C_25  and  N_27 
REMARK       I    between atoms: N_28  and  C_29 
REMARK   11  A    between atoms: C_29  and  C_31 
REMARK   12  A    between atoms: C_31  and  C_32 
REMARK   13  A    between atoms: C_31  and  N_40 
REMARK   14  A    between atoms: C_32  and  C_33 
REMARK   15  A    between atoms: C_33  and  C_34 
REMARK   16  A    between atoms: C_34  and  N_35 
REMARK       I    between atoms: N_35  and  C_36 
REMARK       I    between atoms: C_36  and  N_39 
ROOT
HETATM    1  C   UNK N   1      25.461  17.983   5.420  0.00  0.00     0.241 C 
HETATM    2  O   UNK N   1      25.410  16.806   5.098  0.00  0.00    -0.271 OA
HETATM    3  N   UNK N   1      24.355  18.772   5.290  0.00  0.00    -0.346 N 
HETATM    4  H   UNK N   1      24.340  19.670   5.694  0.00  0.00     0.163 HD
ENDROOT
BRANCH   1   5
HETATM    5  C   UNK N   1      26.790  18.593   5.731  0.00  0.00     0.180 C 
BRANCH   5   6
HETATM    6  C   UNK N   1      27.621  18.820   4.444  0.00  0.00     0.013 C 
HETATM    7  C   UNK N   1      27.103  19.837   3.437  0.00  0.00     0.012 C 
BRANCH   6   8
HETATM    8  C   UNK N   1      28.173  17.558   3.792  0.00  0.00     0.002 C 
HETATM    9  C   UNK N   1      29.603  17.268   4.204  0.00  0.00     0.005 C 
ENDBRANCH   6   8
ENDBRANCH   5   6
BRANCH   5  10
HETATM   10  N   UNK N   1      27.438  17.875   6.818  0.00  0.00    -0.346 N 
HETATM   11  C   UNK N   1      28.217  18.435   7.792  0.00  0.00     0.240 C 
HETATM   12  O   UNK N   1      28.309  19.646   7.918  0.00  0.00    -0.271 OA
HETATM   13  H   UNK N   1      27.303  16.900   6.854  0.00  0.00     0.163 HD
BRANCH  11  14
HETATM   14  C   UNK N   1      29.057  17.567   8.673  0.00  0.00     0.167 C 
BRANCH  14  15
HETATM   15  C   UNK N   1      30.279  16.994   7.964  0.00  0.00     0.036 C 
BRANCH  15  16
HETATM   16  C   UNK N   1      31.456  17.973   8.008  0.00  0.00     0.023 C 
BRANCH  16  17
HETATM   17  C   UNK N   1      32.796  17.268   8.195  0.00  0.00     0.138 C 
BRANCH  17  18
HETATM   18  N   UNK N   1      32.700  16.320   9.274  0.00  0.00    -0.227 N 
HETATM   19  C   UNK N   1      33.836  15.653   9.784  0.00  0.00     0.665 C 
HETATM   20  N   UNK N   1      34.990  15.830   9.253  0.00  0.00    -0.235 N 
HETATM   21  N   UNK N   1      33.711  14.847  10.935  0.00  0.00    -0.235 N 
HETATM   22  H   UNK N   1      35.139  16.443   8.497  0.00  0.00     0.174 HD
ATOM     23  HN  UNK N   1      35.786  15.316   9.630  1.00  0.00     0.174 HD
HETATM   24  H   UNK N   1      34.407  14.198  11.185  0.00  0.00     0.174 HD
HETATM   25  H   UNK N   1      32.909  14.936  11.501  0.00  0.00     0.174 HD
HETATM   26  H   UNK N   1      31.817  16.132   9.668  0.00  0.00     0.177 HD
ENDBRANCH  17  18
ENDBRANCH  16  17
ENDBRANCH  15  16
ENDBRANCH  14  15
BRANCH  14  27
HETATM   27  N   UNK N   1      29.481  18.334   9.833  0.00  0.00    -0.418 N 
HETATM   28  H   UNK N   1      28.797  18.716  10.487  0.00  0.00     0.150 HD
HETATM   29  H   UNK N   1      30.475  18.493   9.996  0.00  0.00     0.150 HD
ENDBRANCH  14  27
ENDBRANCH  11  14
ENDBRANCH   5  10
ENDBRANCH   1   5
BRANCH   3  30
HETATM   30  C   UNK N   1      23.196  18.280   4.552  0.00  0.00     0.180 C 
BRANCH  30  31
HETATM   31  C   UNK N   1      22.738  19.266   3.441  0.00  0.00     0.009 C 
HETATM   32  C   UNK N   1      21.280  19.692   3.481  0.00  0.00     0.012 C 
HETATM   33  C   UNK N   1      23.667  20.411   3.063  0.00  0.00     0.012 C 
ENDBRANCH  30  31
BRANCH  30  34
HETATM   34  C   UNK N   1      22.220  17.863   5.644  0.00  0.00     0.243 C 
HETATM   35  O   UNK N   1      21.798  18.684   6.454  0.00  0.00    -0.271 OA
HETATM   36  N   UNK N   1      21.998  16.534   5.846  0.00  0.00    -0.337 N 
HETATM   37  C   UNK N   1      21.428  15.994   7.043  0.00  0.00     0.127 C 
HETATM   38  C   UNK N   1      22.280  15.556   4.826  0.00  0.00     0.179 C 
HETATM   39  C   UNK N   1      21.513  14.482   6.863  0.00  0.00     0.022 C 
HETATM   40  C   UNK N   1      22.327  14.245   5.590  0.00  0.00     0.037 C 
BRANCH  38  41
HETATM   41  C   UNK N   1      21.082  15.552   3.897  0.00  0.00     0.241 C 
HETATM   42  O   UNK N   1      19.977  15.261   4.339  0.00  0.00    -0.271 OA
HETATM   43  N   UNK N   1      21.230  15.804   2.571  0.00  0.00    -0.346 N 
HETATM   44  H   UNK N   1      22.107  16.096   2.232  0.00  0.00     0.163 HD
BRANCH  43  45
HETATM   45  C   UNK N   1      20.125  15.653   1.639  0.00  0.00     0.172 C 
HETATM   46  C   UNK N   1      20.386  14.501   0.668  0.00  0.00     0.042 C 
BRANCH  45  47
HETATM   47  C   UNK N   1      19.873  16.967   0.933  0.00  0.00     0.237 C 
HETATM   48  O   UNK N   1      20.318  17.174  -0.187  0.00  0.00    -0.271 OA
HETATM   49  N   UNK N   1      19.184  17.938   1.563  0.00  0.00    -0.368 N 
HETATM   50  H   UNK N   1      18.364  18.317   1.172  0.00  0.00     0.159 HD
HETATM   51  H   UNK N   1      19.506  18.274   2.430  0.00  0.00     0.159 HD
ENDBRANCH  45  47
ENDBRANCH  43  45
ENDBRANCH  38  41
ENDBRANCH  30  34
ENDBRANCH   3  30
TORSDOF 16
ENDMDL
MODEL 7
REMARK VINA RESULT:      -6.6      1.834      2.504
REMARK  16 active torsions:
REMARK  status: ('A' for Active; 'I' for Inactive)
REMARK    1  A    between atoms: C_2  and  C_3 
REMARK    2  A    between atoms: C_3  and  C_5 
REMARK    3  A    between atoms: C_5  and  C_6 
REMARK    4  A    between atoms: C_5  and  N_28 
REMARK       I    between atoms: C_6  and  N_8 
REMARK    5  A    between atoms: C_9  and  N_8 
REMARK    6  A    between atoms: C_9  and  C_10 
REMARK    7  A    between atoms: C_9  and  C_13 
REMARK       I    between atoms: C_13  and  N_15 
REMARK    8  A    between atoms: C_19  and  C_20 
REMARK       I    between atoms: C_20  and  N_22 
REMARK    9  A    between atoms: N_22  and  C_23 
REMARK   10  A    between atoms: C_23  and  C_25 
REMARK       I    between atoms: C_25  and  N_27 
REMARK       I    between atoms: N_28  and  C_29 
REMARK   11  A    between atoms: C_29  and  C_31 
REMARK   12  A    between atoms: C_31  and  C_32 
REMARK   13  A    between atoms: C_31  and  N_40 
REMARK   14  A    between atoms: C_32  and  C_33 
REMARK   15  A    between atoms: C_33  and  C_34 
REMARK   16  A    between atoms: C_34  and  N_35 
REMARK       I    between atoms: N_35  and  C_36 
REMARK       I    between atoms: C_36  and  N_39 
ROOT
HETATM    1  C   UNK N   1      24.968  17.809   5.177  0.00  0.00     0.241 C 
HETATM    2  O   UNK N   1      25.058  16.738   4.598  0.00  0.00    -0.271 OA
HETATM    3  N   UNK N   1      23.740  18.293   5.526  0.00  0.00    -0.346 N 
HETATM    4  H   UNK N   1      23.668  19.068   6.129  0.00  0.00     0.163 HD
ENDROOT
BRANCH   1   5
HETATM    5  C   UNK N   1      26.179  18.678   5.288  0.00  0.00     0.180 C 
BRANCH   5   6
HETATM    6  C   UNK N   1      25.917  20.088   4.702  0.00  0.00     0.013 C 
HETATM    7  C   UNK N   1      25.972  20.246   3.188  0.00  0.00     0.012 C 
BRANCH   6   8
HETATM    8  C   UNK N   1      26.577  21.240   5.449  0.00  0.00     0.002 C 
HETATM    9  C   UNK N   1      26.455  21.103   6.954  0.00  0.00     0.005 C 
ENDBRANCH   6   8
ENDBRANCH   5   6
BRANCH   5  10
HETATM   10  N   UNK N   1      27.358  17.973   4.810  0.00  0.00    -0.346 N 
HETATM   11  C   UNK N   1      28.578  17.945   5.427  0.00  0.00     0.240 C 
HETATM   12  O   UNK N   1      28.735  18.402   6.549  0.00  0.00    -0.271 OA
HETATM   13  H   UNK N   1      27.269  17.473   3.966  0.00  0.00     0.163 HD
BRANCH  11  14
HETATM   14  C   UNK N   1      29.778  17.434   4.697  0.00  0.00     0.167 C 
BRANCH  14  15
HETATM   15  C   UNK N   1      30.450  16.257   5.395  0.00  0.00     0.036 C 
BRANCH  15  16
HETATM   16  C   UNK N   1      31.705  16.702   6.149  0.00  0.00     0.023 C 
BRANCH  16  17
HETATM   17  C   UNK N   1      32.813  17.175   5.213  0.00  0.00     0.138 C 
BRANCH  17  18
HETATM   18  N   UNK N   1      33.324  16.058   4.462  0.00  0.00    -0.227 N 
HETATM   19  C   UNK N   1      33.236  16.004   3.053  0.00  0.00     0.665 C 
HETATM   20  N   UNK N   1      32.638  16.932   2.401  0.00  0.00    -0.235 N 
HETATM   21  N   UNK N   1      33.879  14.960   2.355  0.00  0.00    -0.235 N 
HETATM   22  H   UNK N   1      32.241  17.719   2.839  0.00  0.00     0.174 HD
ATOM     23  HN  UNK N   1      32.571  16.852   1.386  1.00  0.00     0.174 HD
HETATM   24  H   UNK N   1      33.660  14.759   1.418  0.00  0.00     0.174 HD
HETATM   25  H   UNK N   1      34.564  14.422   2.817  0.00  0.00     0.174 HD
HETATM   26  H   UNK N   1      33.747  15.310   4.944  0.00  0.00     0.177 HD
ENDBRANCH  17  18
ENDBRANCH  16  17
ENDBRANCH  15  16
ENDBRANCH  14  15
BRANCH  14  27
HETATM   27  N   UNK N   1      29.388  17.046   3.352  0.00  0.00    -0.418 N 
HETATM   28  H   UNK N   1      29.227  16.066   3.115  0.00  0.00     0.150 HD
HETATM   29  H   UNK N   1      29.273  17.761   2.634  0.00  0.00     0.150 HD
ENDBRANCH  14  27
ENDBRANCH  11  14
ENDBRANCH   5  10
ENDBRANCH   1   5
BRANCH   3  30
HETATM   30  C   UNK N   1      22.536  17.657   5.002  0.00  0.00     0.180 C 
BRANCH  30  31
HETATM   31  C   UNK N   1      22.103  18.245   3.629  0.00  0.00     0.009 C 
HETATM   32  C   UNK N   1      20.755  17.789   3.098  0.00  0.00     0.012 C 
HETATM   33  C   UNK N   1      22.365  19.720   3.360  0.00  0.00     0.012 C 
ENDBRANCH  30  31
BRANCH  30  34
HETATM   34  C   UNK N   1      21.568  17.689   6.178  0.00  0.00     0.243 C 
HETATM   35  O   UNK N   1      21.185  18.757   6.645  0.00  0.00    -0.271 OA
HETATM   36  N   UNK N   1      21.311  16.526   6.840  0.00  0.00    -0.337 N 
HETATM   37  C   UNK N   1      20.746  16.467   8.155  0.00  0.00     0.127 C 
HETATM   38  C   UNK N   1      21.545  15.240   6.233  0.00  0.00     0.179 C 
HETATM   39  C   UNK N   1      20.784  14.987   8.524  0.00  0.00     0.022 C 
HETATM   40  C   UNK N   1      21.567  14.286   7.413  0.00  0.00     0.037 C 
BRANCH  38  41
HETATM   41  C   UNK N   1      20.331  14.948   5.375  0.00  0.00     0.241 C 
HETATM   42  O   UNK N   1      19.210  15.176   5.816  0.00  0.00    -0.271 OA
HETATM   43  N   UNK N   1      20.467  14.377   4.150  0.00  0.00    -0.346 N 
HETATM   44  H   UNK N   1      21.369  14.252   3.775  0.00  0.00     0.163 HD
BRANCH  43  45
HETATM   45  C   UNK N   1      19.313  13.946   3.379  0.00  0.00     0.172 C 
HETATM   46  C   UNK N   1      19.002  12.472   3.642  0.00  0.00     0.042 C 
BRANCH  45  47
HETATM   47  C   UNK N   1      19.544  14.240   1.912  0.00  0.00     0.237 C 
HETATM   48  O   UNK N   1      20.653  14.547   1.499  0.00  0.00    -0.271 OA
HETATM   49  N   UNK N   1      18.504  14.204   1.057  0.00  0.00    -0.368 N 
HETATM   50  H   UNK N   1      18.511  13.613   0.270  0.00  0.00     0.159 HD
HETATM   51  H   UNK N   1      17.723  14.780   1.221  0.00  0.00     0.159 HD
ENDBRANCH  45  47
ENDBRANCH  43  45
ENDBRANCH  38  41
ENDBRANCH  30  34
ENDBRANCH   3  30
TORSDOF 16
ENDMDL
MODEL 8
REMARK VINA RESULT:      -6.5      2.910      5.670
REMARK  16 active torsions:
REMARK  status: ('A' for Active; 'I' for Inactive)
REMARK    1  A    between atoms: C_2  and  C_3 
REMARK    2  A    between atoms: C_3  and  C_5 
REMARK    3  A    between atoms: C_5  and  C_6 
REMARK    4  A    between atoms: C_5  and  N_28 
REMARK       I    between atoms: C_6  and  N_8 
REMARK    5  A    between atoms: C_9  and  N_8 
REMARK    6  A    between atoms: C_9  and  C_10 
REMARK    7  A    between atoms: C_9  and  C_13 
REMARK       I    between atoms: C_13  and  N_15 
REMARK    8  A    between atoms: C_19  and  C_20 
REMARK       I    between atoms: C_20  and  N_22 
REMARK    9  A    between atoms: N_22  and  C_23 
REMARK   10  A    between atoms: C_23  and  C_25 
REMARK       I    between atoms: C_25  and  N_27 
REMARK       I    between atoms: N_28  and  C_29 
REMARK   11  A    between atoms: C_29  and  C_31 
REMARK   12  A    between atoms: C_31  and  C_32 
REMARK   13  A    between atoms: C_31  and  N_40 
REMARK   14  A    between atoms: C_32  and  C_33 
REMARK   15  A    between atoms: C_33  and  C_34 
REMARK   16  A    between atoms: C_34  and  N_35 
REMARK       I    between atoms: N_35  and  C_36 
REMARK       I    between atoms: C_36  and  N_39 
ROOT
HETATM    1  C   UNK N   1      30.434  17.143   4.712  0.00  0.00     0.241 C 
HETATM    2  O   UNK N   1      30.083  17.137   3.542  0.00  0.00    -0.271 OA
HETATM    3  N   UNK N   1      29.522  17.403   5.694  0.00  0.00    -0.346 N 
HETATM    4  H   UNK N   1      29.757  17.252   6.638  0.00  0.00     0.163 HD
ENDROOT
BRANCH   1   5
HETATM    5  C   UNK N   1      31.893  17.094   5.033  0.00  0.00     0.180 C 
BRANCH   5   6
HETATM    6  C   UNK N   1      32.575  15.872   4.371  0.00  0.00     0.013 C 
HETATM    7  C   UNK N   1      33.239  16.079   3.016  0.00  0.00     0.012 C 
BRANCH   6   8
HETATM    8  C   UNK N   1      31.803  14.562   4.465  0.00  0.00     0.002 C 
HETATM    9  C   UNK N   1      32.049  13.835   5.773  0.00  0.00     0.005 C 
ENDBRANCH   6   8
ENDBRANCH   5   6
BRANCH   5  10
HETATM   10  N   UNK N   1      32.107  17.277   6.460  0.00  0.00    -0.346 N 
HETATM   11  C   UNK N   1      33.284  17.647   7.050  0.00  0.00     0.240 C 
HETATM   12  O   UNK N   1      34.241  18.014   6.387  0.00  0.00    -0.271 OA
HETATM   13  H   UNK N   1      31.336  17.119   7.052  0.00  0.00     0.163 HD
BRANCH  11  14
HETATM   14  C   UNK N   1      33.456  17.518   8.529  0.00  0.00     0.167 C 
BRANCH  14  15
HETATM   15  C   UNK N   1      33.168  16.114   9.048  0.00  0.00     0.036 C 
BRANCH  15  16
HETATM   16  C   UNK N   1      34.172  15.101   8.493  0.00  0.00     0.023 C 
BRANCH  16  17
HETATM   17  C   UNK N   1      34.722  14.171   9.571  0.00  0.00     0.138 C 
BRANCH  17  18
HETATM   18  N   UNK N   1      36.144  14.019   9.400  0.00  0.00    -0.227 N 
HETATM   19  C   UNK N   1      37.070  14.760  10.168  0.00  0.00     0.665 C 
HETATM   20  N   UNK N   1      36.665  15.642  11.006  0.00  0.00    -0.235 N 
HETATM   21  N   UNK N   1      38.447  14.469  10.067  0.00  0.00    -0.235 N 
HETATM   22  H   UNK N   1      35.711  15.826  11.166  0.00  0.00     0.174 HD
ATOM     23  HN  UNK N   1      37.360  16.176  11.528  1.00  0.00     0.174 HD
HETATM   24  H   UNK N   1      39.128  15.095  10.401  0.00  0.00     0.174 HD
HETATM   25  H   UNK N   1      38.732  13.621   9.654  0.00  0.00     0.174 HD
HETATM   26  H   UNK N   1      36.480  13.381   8.730  0.00  0.00     0.177 HD
ENDBRANCH  17  18
ENDBRANCH  16  17
ENDBRANCH  15  16
ENDBRANCH  14  15
BRANCH  14  27
HETATM   27  N   UNK N   1      34.811  17.902   8.887  0.00  0.00    -0.418 N 
HETATM   28  H   UNK N   1      35.604  17.626   8.306  0.00  0.00     0.150 HD
HETATM   29  H   UNK N   1      34.974  18.455   9.728  0.00  0.00     0.150 HD
ENDBRANCH  14  27
ENDBRANCH  11  14
ENDBRANCH   5  10
ENDBRANCH   1   5
BRANCH   3  30
HETATM   30  C   UNK N   1      28.198  17.904   5.339  0.00  0.00     0.180 C 
BRANCH  30  31
HETATM   31  C   UNK N   1      28.120  19.456   5.380  0.00  0.00     0.009 C 
HETATM   32  C   UNK N   1      27.596  20.136   4.127  0.00  0.00     0.012 C 
HETATM   33  C   UNK N   1      27.619  20.121   6.655  0.00  0.00     0.012 C 
ENDBRANCH  30  31
BRANCH  30  34
HETATM   34  C   UNK N   1      27.253  17.076   6.200  0.00  0.00     0.243 C 
HETATM   35  O   UNK N   1      27.502  16.873   7.386  0.00  0.00    -0.271 OA
HETATM   36  N   UNK N   1      26.252  16.384   5.587  0.00  0.00    -0.337 N 
HETATM   37  C   UNK N   1      25.549  15.295   6.196  0.00  0.00     0.127 C 
HETATM   38  C   UNK N   1      25.782  16.737   4.272  0.00  0.00     0.179 C 
HETATM   39  C   UNK N   1      24.644  14.756   5.092  0.00  0.00     0.022 C 
HETATM   40  C   UNK N   1      25.037  15.497   3.813  0.00  0.00     0.037 C 
BRANCH  38  41
HETATM   41  C   UNK N   1      24.796  17.872   4.463  0.00  0.00     0.241 C 
HETATM   42  O   UNK N   1      24.796  18.501   5.515  0.00  0.00    -0.271 OA
HETATM   43  N   UNK N   1      23.872  18.159   3.510  0.00  0.00    -0.346 N 
HETATM   44  H   UNK N   1      23.915  17.693   2.644  0.00  0.00     0.163 HD
BRANCH  43  45
HETATM   45  C   UNK N   1      22.821  19.136   3.738  0.00  0.00     0.172 C 
HETATM   46  C   UNK N   1      21.454  18.563   3.365  0.00  0.00     0.042 C 
BRANCH  45  47
HETATM   47  C   UNK N   1      23.144  20.412   2.991  0.00  0.00     0.237 C 
HETATM   48  O   UNK N   1      22.265  21.210   2.700  0.00  0.00    -0.271 OA
HETATM   49  N   UNK N   1      24.412  20.651   2.603  0.00  0.00    -0.368 N 
HETATM   50  H   UNK N   1      24.886  21.466   2.886  0.00  0.00     0.159 HD
HETATM   51  H   UNK N   1      24.872  19.999   2.027  0.00  0.00     0.159 HD
ENDBRANCH  45  47
ENDBRANCH  43  45
ENDBRANCH  38  41
ENDBRANCH  30  34
ENDBRANCH   3  30
TORSDOF 16
ENDMDL
MODEL 9
REMARK VINA RESULT:      -6.4      3.475     11.177
REMARK  16 active torsions:
REMARK  status: ('A' for Active; 'I' for Inactive)
REMARK    1  A    between atoms: C_2  and  C_3 
REMARK    2  A    between atoms: C_3  and  C_5 
REMARK    3  A    between atoms: C_5  and  C_6 
REMARK    4  A    between atoms: C_5  and  N_28 
REMARK       I    between atoms: C_6  and  N_8 
REMARK    5  A    between atoms: C_9  and  N_8 
REMARK    6  A    between atoms: C_9  and  C_10 
REMARK    7  A    between atoms: C_9  and  C_13 
REMARK       I    between atoms: C_13  and  N_15 
REMARK    8  A    between atoms: C_19  and  C_20 
REMARK       I    between atoms: C_20  and  N_22 
REMARK    9  A    between atoms: N_22  and  C_23 
REMARK   10  A    between atoms: C_23  and  C_25 
REMARK       I    between atoms: C_25  and  N_27 
REMARK       I    between atoms: N_28  and  C_29 
REMARK   11  A    between atoms: C_29  and  C_31 
REMARK   12  A    between atoms: C_31  and  C_32 
REMARK   13  A    between atoms: C_31  and  N_40 
REMARK   14  A    between atoms: C_32  and  C_33 
REMARK   15  A    between atoms: C_33  and  C_34 
REMARK   16  A    between atoms: C_34  and  N_35 
REMARK       I    between atoms: N_35  and  C_36 
REMARK       I    between atoms: C_36  and  N_39 
ROOT
HETATM    1  C   UNK N   1      29.082  17.108   5.874  0.00  0.00     0.241 C 
HETATM    2  O   UNK N   1      28.856  15.909   5.941  0.00  0.00    -0.271 OA
HETATM    3  N   UNK N   1      30.364  17.564   5.976  0.00  0.00    -0.346 N 
HETATM    4  H   UNK N   1      30.572  18.503   5.763  0.00  0.00     0.163 HD
ENDROOT
BRANCH   1   5
HETATM    5  C   UNK N   1      27.936  18.066   5.914  0.00  0.00     0.180 C 
BRANCH   5   6
HETATM    6  C   UNK N   1      28.142  19.146   7.005  0.00  0.00     0.013 C 
HETATM    7  C   UNK N   1      28.039  18.711   8.460  0.00  0.00     0.012 C 
BRANCH   6   8
HETATM    8  C   UNK N   1      27.473  20.487   6.732  0.00  0.00     0.002 C 
HETATM    9  C   UNK N   1      27.327  20.773   5.250  0.00  0.00     0.005 C 
ENDBRANCH   6   8
ENDBRANCH   5   6
BRANCH   5  10
HETATM   10  N   UNK N   1      26.672  17.347   5.928  0.00  0.00    -0.346 N 
HETATM   11  C   UNK N   1      25.806  17.233   4.875  0.00  0.00     0.240 C 
HETATM   12  O   UNK N   1      26.111  17.612   3.755  0.00  0.00    -0.271 OA
HETATM   13  H   UNK N   1      26.417  16.905   6.770  0.00  0.00     0.163 HD
BRANCH  11  14
HETATM   14  C   UNK N   1      24.418  16.723   5.096  0.00  0.00     0.167 C 
BRANCH  14  15
HETATM   15  C   UNK N   1      24.348  15.592   6.116  0.00  0.00     0.036 C 
BRANCH  15  16
HETATM   16  C   UNK N   1      23.055  14.786   5.962  0.00  0.00     0.023 C 
BRANCH  16  17
HETATM   17  C   UNK N   1      22.304  14.626   7.280  0.00  0.00     0.138 C 
BRANCH  17  18
HETATM   18  N   UNK N   1      21.462  15.774   7.501  0.00  0.00    -0.227 N 
HETATM   19  C   UNK N   1      20.581  15.850   8.602  0.00  0.00     0.665 C 
HETATM   20  N   UNK N   1      20.460  14.864   9.412  0.00  0.00    -0.235 N 
HETATM   21  N   UNK N   1      19.887  17.053   8.854  0.00  0.00    -0.235 N 
HETATM   22  H   UNK N   1      20.981  14.033   9.319  0.00  0.00     0.174 HD
ATOM     23  HN  UNK N   1      19.798  14.942  10.183  1.00  0.00     0.174 HD
HETATM   24  H   UNK N   1      19.110  17.079   9.457  0.00  0.00     0.174 HD
HETATM   25  H   UNK N   1      20.187  17.883   8.418  0.00  0.00     0.174 HD
HETATM   26  H   UNK N   1      21.503  16.526   6.866  0.00  0.00     0.177 HD
ENDBRANCH  17  18
ENDBRANCH  16  17
ENDBRANCH  15  16
ENDBRANCH  14  15
BRANCH  14  27
HETATM   27  N   UNK N   1      23.569  17.822   5.526  0.00  0.00    -0.418 N 
HETATM   28  H   UNK N   1      23.968  18.734   5.750  0.00  0.00     0.150 HD
HETATM   29  H   UNK N   1      22.562  17.680   5.604  0.00  0.00     0.150 HD
ENDBRANCH  14  27
ENDBRANCH  11  14
ENDBRANCH   5  10
ENDBRANCH   1   5
BRANCH   3  30
HETATM   30  C   UNK N   1      31.425  16.657   6.399  0.00  0.00     0.180 C 
BRANCH  30  31
HETATM   31  C   UNK N   1      31.909  16.944   7.848  0.00  0.00     0.009 C 
HETATM   32  C   UNK N   1      32.831  18.138   8.025  0.00  0.00     0.012 C 
HETATM   33  C   UNK N   1      30.904  16.813   8.985  0.00  0.00     0.012 C 
ENDBRANCH  30  31
BRANCH  30  34
HETATM   34  C   UNK N   1      32.420  16.698   5.247  0.00  0.00     0.243 C 
HETATM   35  O   UNK N   1      32.423  17.636   4.454  0.00  0.00    -0.271 OA
HETATM   36  N   UNK N   1      33.153  15.580   4.979  0.00  0.00    -0.337 N 
HETATM   37  C   UNK N   1      33.822  15.346   3.735  0.00  0.00     0.127 C 
HETATM   38  C   UNK N   1      33.356  14.552   5.968  0.00  0.00     0.179 C 
HETATM   39  C   UNK N   1      34.372  13.928   3.854  0.00  0.00     0.022 C 
HETATM   40  C   UNK N   1      33.802  13.353   5.152  0.00  0.00     0.037 C 
BRANCH  38  41
HETATM   41  C   UNK N   1      34.503  15.021   6.840  0.00  0.00     0.241 C 
HETATM   42  O   UNK N   1      35.393  15.707   6.350  0.00  0.00    -0.271 OA
HETATM   43  N   UNK N   1      34.591  14.637   8.140  0.00  0.00    -0.346 N 
HETATM   44  H   UNK N   1      33.845  14.138   8.545  0.00  0.00     0.163 HD
BRANCH  43  45
HETATM   45  C   UNK N   1      35.759  14.945   8.948  0.00  0.00     0.172 C 
HETATM   46  C   UNK N   1      36.425  13.664   9.451  0.00  0.00     0.042 C 
BRANCH  45  47
HETATM   47  C   UNK N   1      35.367  15.879  10.071  0.00  0.00     0.237 C 
HETATM   48  O   UNK N   1      36.179  16.653  10.558  0.00  0.00    -0.271 OA
HETATM   49  N   UNK N   1      34.117  15.829  10.571  0.00  0.00    -0.368 N 
HETATM   50  H   UNK N   1      33.538  16.626  10.579  0.00  0.00     0.159 HD
HETATM   51  H   UNK N   1      33.775  14.980  10.933  0.00  0.00     0.159 HD
ENDBRANCH  45  47
ENDBRANCH  43  45
ENDBRANCH  38  41
ENDBRANCH  30  34
ENDBRANCH   3  30
TORSDOF 16
ENDMDL
