MODEL 1
REMARK VINA RESULT:      -8.3      0.000      0.000
REMARK  9 active torsions:
REMARK  status: ('A' for Active; 'I' for Inactive)
REMARK    1  A    between atoms: C_2  and  O_4 
REMARK    2  A    between atoms: O_4  and  C_5 
REMARK    3  A    between atoms: C_8  and  C_12 
REMARK    4  A    between atoms: C_15  and  C_19 
REMARK    5  A    between atoms: N_27  and  C_28 
REMARK    6  A    between atoms: C_28  and  C_29 
REMARK    7  A    between atoms: C_29  and  C_30 
REMARK    8  A    between atoms: C_30  and  C_31 
REMARK    9  A    between atoms: C_31  and  O_33 
ROOT
HETATM    1  C   UNK N   1      34.620  15.985  10.117  0.00  0.00     0.183 A 
HETATM    2  N   UNK N   1      33.813  15.752   9.068  0.00  0.00    -0.318 N 
ATOM      3  HN  UNK N   1      33.290  14.905   8.846  1.00  0.00     0.169 HD
HETATM    4  C   UNK N   1      33.863  16.906   8.386  0.00  0.00     0.139 A 
HETATM    5  N   UNK N   1      34.666  17.802   8.999  0.00  0.00    -0.242 N 
ATOM      6  HN  UNK N   1      34.874  18.753   8.695  1.00  0.00     0.196 HD
HETATM    7  O   UNK N   1      35.120  17.197  10.058  0.00  0.00    -0.217 OA
ENDROOT
BRANCH   4   8
HETATM    8  C   UNK N   1      33.125  17.130   7.132  0.00  0.00     0.022 A 
HETATM    9  C   UNK N   1      33.829  17.210   5.911  0.00  0.00     0.016 A 
HETATM   10  C   UNK N   1      33.142  17.406   4.695  0.00  0.00     0.003 A 
HETATM   11  C   UNK N   1      31.741  17.512   4.682  0.00  0.00     0.030 A 
HETATM   12  C   UNK N   1      31.071  17.426   5.901  0.00  0.00     0.045 A 
HETATM   13  C   UNK N   1      31.733  17.246   7.085  0.00  0.00     0.006 A 
HETATM   14  N   UNK N   1      29.750  17.467   6.115  0.00  0.00    -0.356 N 
HETATM   15  C   UNK N   1      30.785  17.181   8.089  0.00  0.00     0.032 A 
HETATM   16  C   UNK N   1      29.556  17.313   7.446  0.00  0.00     0.092 A 
BRANCH  14  17
HETATM   17  C   UNK N   1      28.711  17.599   5.102  0.00  0.00     0.129 C 
BRANCH  17  18
HETATM   18  C   UNK N   1      28.371  19.058   4.856  0.00  0.00     0.031 C 
BRANCH  18  19
HETATM   19  C   UNK N   1      27.028  19.361   5.498  0.00  0.00     0.111 C 
BRANCH  19  20
HETATM   20  C   UNK N   1      27.172  20.327   6.628  0.00  0.00     0.139 C 
HETATM   21  O   UNK N   1      27.334  21.513   6.393  0.00  0.00    -0.650 OA
BRANCH  20  22
HETATM   22  O   UNK N   1      27.092  19.905   7.904  0.00  0.00    -0.776 OA
HETATM   23  H   UNK N   1      27.507  20.389   8.591  0.00  0.00     0.167 HD
ENDBRANCH  20  22
ENDBRANCH  19  20
ENDBRANCH  18  19
ENDBRANCH  17  18
ENDBRANCH  14  17
ENDBRANCH   4   8
BRANCH   1  24
HETATM   24  C   UNK N   1      34.912  14.980  11.141  0.00  0.00     0.034 A 
HETATM   25  C   UNK N   1      35.676  15.343  12.250  0.00  0.00     0.045 A 
HETATM   26  C   UNK N   1      35.917  14.427  13.265  0.00  0.00     0.086 A 
HETATM   27  C   UNK N   1      35.373  13.141  13.171  0.00  0.00     0.164 A 
HETATM   28 Cl   UNK N   1      36.866  14.915  14.656  0.00  0.00    -0.080 Cl
HETATM   29  N   UNK N   1      34.642  12.795  12.068  0.00  0.00    -0.345 N 
HETATM   30  C   UNK N   1      34.408  13.680  11.058  0.00  0.00     0.106 A 
ATOM     31  HN  UNK N   1      34.263  11.851  11.999  1.00  0.00     0.167 HD
BRANCH  27  32
HETATM   32  O   UNK N   1      35.563  12.262  14.190  0.00  0.00    -0.330 OA
BRANCH  32  33
HETATM   33  C   UNK N   1      34.635  11.956  15.170  0.00  0.00     0.122 C 
HETATM   34  C   UNK N   1      35.086  12.426  16.541  0.00  0.00     0.040 C 
HETATM   35  C   UNK N   1      34.299  10.473  15.180  0.00  0.00     0.040 C 
ENDBRANCH  32  33
ENDBRANCH  27  32
ENDBRANCH   1  24
TORSDOF 9
ENDMDL
MODEL 2
REMARK VINA RESULT:      -8.1      1.220      1.451
REMARK  9 active torsions:
REMARK  status: ('A' for Active; 'I' for Inactive)
REMARK    1  A    between atoms: C_2  and  O_4 
REMARK    2  A    between atoms: O_4  and  C_5 
REMARK    3  A    between atoms: C_8  and  C_12 
REMARK    4  A    between atoms: C_15  and  C_19 
REMARK    5  A    between atoms: N_27  and  C_28 
REMARK    6  A    between atoms: C_28  and  C_29 
REMARK    7  A    between atoms: C_29  and  C_30 
REMARK    8  A    between atoms: C_30  and  C_31 
REMARK    9  A    between atoms: C_31  and  O_33 
ROOT
HETATM    1  C   UNK N   1      34.865  16.193  10.276  0.00  0.00     0.183 A 
HETATM    2  N   UNK N   1      34.012  15.889   9.283  0.00  0.00    -0.318 N 
ATOM      3  HN  UNK N   1      33.506  15.018   9.126  1.00  0.00     0.169 HD
HETATM    4  C   UNK N   1      33.988  17.014   8.551  0.00  0.00     0.139 A 
HETATM    5  N   UNK N   1      34.793  17.959   9.080  0.00  0.00    -0.242 N 
ATOM      6  HN  UNK N   1      34.953  18.902   8.725  1.00  0.00     0.196 HD
HETATM    7  O   UNK N   1      35.322  17.416  10.138  0.00  0.00    -0.217 OA
ENDROOT
BRANCH   4   8
HETATM    8  C   UNK N   1      33.177  17.159   7.330  0.00  0.00     0.022 A 
HETATM    9  C   UNK N   1      33.806  17.140   6.067  0.00  0.00     0.016 A 
HETATM   10  C   UNK N   1      33.048  17.260   4.884  0.00  0.00     0.003 A 
HETATM   11  C   UNK N   1      31.651  17.388   4.947  0.00  0.00     0.030 A 
HETATM   12  C   UNK N   1      31.056  17.400   6.207  0.00  0.00     0.045 A 
HETATM   13  C   UNK N   1      31.786  17.294   7.359  0.00  0.00     0.006 A 
HETATM   14  N   UNK N   1      29.751  17.479   6.496  0.00  0.00    -0.356 N 
HETATM   15  C   UNK N   1      30.901  17.317   8.420  0.00  0.00     0.032 A 
HETATM   16  C   UNK N   1      29.636  17.423   7.844  0.00  0.00     0.092 A 
BRANCH  14  17
HETATM   17  C   UNK N   1      28.653  17.554   5.541  0.00  0.00     0.129 C 
BRANCH  17  18
HETATM   18  C   UNK N   1      28.437  18.982   5.071  0.00  0.00     0.031 C 
BRANCH  18  19
HETATM   19  C   UNK N   1      27.041  19.423   5.476  0.00  0.00     0.111 C 
BRANCH  19  20
HETATM   20  C   UNK N   1      27.081  20.337   6.656  0.00  0.00     0.139 C 
HETATM   21  O   UNK N   1      27.078  21.544   6.486  0.00  0.00    -0.650 OA
BRANCH  20  22
HETATM   22  O   UNK N   1      27.087  19.840   7.907  0.00  0.00    -0.776 OA
HETATM   23  H   UNK N   1      26.947  18.925   8.055  0.00  0.00     0.167 HD
ENDBRANCH  20  22
ENDBRANCH  19  20
ENDBRANCH  18  19
ENDBRANCH  17  18
ENDBRANCH  14  17
ENDBRANCH   4   8
BRANCH   1  24
HETATM   24  C   UNK N   1      35.244  15.244  11.324  0.00  0.00     0.034 A 
HETATM   25  C   UNK N   1      34.792  13.927  11.242  0.00  0.00     0.045 A 
HETATM   26  C   UNK N   1      35.186  12.991  12.189  0.00  0.00     0.086 A 
HETATM   27  C   UNK N   1      36.054  13.379  13.216  0.00  0.00     0.164 A 
HETATM   28 Cl   UNK N   1      34.616  11.338  12.054  0.00  0.00    -0.080 Cl
HETATM   29  N   UNK N   1      36.473  14.679  13.292  0.00  0.00    -0.345 N 
HETATM   30  C   UNK N   1      36.084  15.611  12.377  0.00  0.00     0.106 A 
ATOM     31  HN  UNK N   1      37.092  14.957  14.054  1.00  0.00     0.167 HD
BRANCH  27  32
HETATM   32  O   UNK N   1      36.482  12.450  14.111  0.00  0.00    -0.330 OA
BRANCH  32  33
HETATM   33  C   UNK N   1      36.201  12.452  15.467  0.00  0.00     0.122 C 
HETATM   34  C   UNK N   1      36.472  11.101  16.102  0.00  0.00     0.040 C 
HETATM   35  C   UNK N   1      34.779  12.916  15.743  0.00  0.00     0.040 C 
ENDBRANCH  32  33
ENDBRANCH  27  32
ENDBRANCH   1  24
TORSDOF 9
ENDMDL
MODEL 3
REMARK VINA RESULT:      -7.6      2.089      2.489
REMARK  9 active torsions:
REMARK  status: ('A' for Active; 'I' for Inactive)
REMARK    1  A    between atoms: C_2  and  O_4 
REMARK    2  A    between atoms: O_4  and  C_5 
REMARK    3  A    between atoms: C_8  and  C_12 
REMARK    4  A    between atoms: C_15  and  C_19 
REMARK    5  A    between atoms: N_27  and  C_28 
REMARK    6  A    between atoms: C_28  and  C_29 
REMARK    7  A    between atoms: C_29  and  C_30 
REMARK    8  A    between atoms: C_30  and  C_31 
REMARK    9  A    between atoms: C_31  and  O_33 
ROOT
HETATM    1  C   UNK N   1      34.919  15.554  10.806  0.00  0.00     0.183 A 
HETATM    2  N   UNK N   1      34.241  15.351   9.663  0.00  0.00    -0.318 N 
ATOM      3  HN  UNK N   1      33.895  14.472   9.279  1.00  0.00     0.169 HD
HETATM    4  C   UNK N   1      34.130  16.588   9.154  0.00  0.00     0.139 A 
HETATM    5  N   UNK N   1      34.715  17.501   9.956  0.00  0.00    -0.242 N 
ATOM      6  HN  UNK N   1      34.769  18.509   9.807  1.00  0.00     0.196 HD
HETATM    7  O   UNK N   1      35.196  16.828  10.961  0.00  0.00    -0.217 OA
ENDROOT
BRANCH   4   8
HETATM    8  C   UNK N   1      33.451  16.872   7.878  0.00  0.00     0.022 A 
HETATM    9  C   UNK N   1      34.204  16.944   6.687  0.00  0.00     0.016 A 
HETATM   10  C   UNK N   1      33.574  17.198   5.451  0.00  0.00     0.003 A 
HETATM   11  C   UNK N   1      32.181  17.369   5.387  0.00  0.00     0.030 A 
HETATM   12  C   UNK N   1      31.462  17.288   6.578  0.00  0.00     0.045 A 
HETATM   13  C   UNK N   1      32.069  17.053   7.782  0.00  0.00     0.006 A 
HETATM   14  N   UNK N   1      30.137  17.387   6.744  0.00  0.00    -0.356 N 
HETATM   15  C   UNK N   1      31.081  17.011   8.748  0.00  0.00     0.032 A 
HETATM   16  C   UNK N   1      29.885  17.214   8.062  0.00  0.00     0.092 A 
BRANCH  14  17
HETATM   17  C   UNK N   1      29.144  17.587   5.696  0.00  0.00     0.129 C 
BRANCH  17  18
HETATM   18  C   UNK N   1      28.358  16.314   5.438  0.00  0.00     0.031 C 
BRANCH  18  19
HETATM   19  C   UNK N   1      29.144  15.444   4.470  0.00  0.00     0.111 C 
BRANCH  19  20
HETATM   20  C   UNK N   1      29.007  15.934   3.066  0.00  0.00     0.139 C 
HETATM   21  O   UNK N   1      28.019  15.639   2.416  0.00  0.00    -0.650 OA
BRANCH  20  22
HETATM   22  O   UNK N   1      29.950  16.725   2.522  0.00  0.00    -0.776 OA
HETATM   23  H   UNK N   1      29.723  17.349   1.861  0.00  0.00     0.167 HD
ENDBRANCH  20  22
ENDBRANCH  19  20
ENDBRANCH  18  19
ENDBRANCH  17  18
ENDBRANCH  14  17
ENDBRANCH   4   8
BRANCH   1  24
HETATM   24  C   UNK N   1      35.315  14.469  11.705  0.00  0.00     0.034 A 
HETATM   25  C   UNK N   1      35.911  14.784  12.926  0.00  0.00     0.045 A 
HETATM   26  C   UNK N   1      36.242  13.777  13.824  0.00  0.00     0.086 A 
HETATM   27  C   UNK N   1      35.956  12.447  13.497  0.00  0.00     0.164 A 
HETATM   28 Cl   UNK N   1      36.975  14.202  15.359  0.00  0.00    -0.080 Cl
HETATM   29  N   UNK N   1      35.389  12.154  12.288  0.00  0.00    -0.345 N 
HETATM   30  C   UNK N   1      35.071  13.130  11.392  0.00  0.00     0.106 A 
ATOM     31  HN  UNK N   1      35.200  11.180  12.050  1.00  0.00     0.167 HD
BRANCH  27  32
HETATM   32  O   UNK N   1      36.231  11.467  14.399  0.00  0.00    -0.330 OA
BRANCH  32  33
HETATM   33  C   UNK N   1      35.302  10.847  15.217  0.00  0.00     0.122 C 
HETATM   34  C   UNK N   1      33.879  11.190  14.818  0.00  0.00     0.040 C 
HETATM   35  C   UNK N   1      35.552  11.158  16.684  0.00  0.00     0.040 C 
ENDBRANCH  32  33
ENDBRANCH  27  32
ENDBRANCH   1  24
TORSDOF 9
ENDMDL
MODEL 4
REMARK VINA RESULT:      -7.6      2.020      2.793
REMARK  9 active torsions:
REMARK  status: ('A' for Active; 'I' for Inactive)
REMARK    1  A    between atoms: C_2  and  O_4 
REMARK    2  A    between atoms: O_4  and  C_5 
REMARK    3  A    between atoms: C_8  and  C_12 
REMARK    4  A    between atoms: C_15  and  C_19 
REMARK    5  A    between atoms: N_27  and  C_28 
REMARK    6  A    between atoms: C_28  and  C_29 
REMARK    7  A    between atoms: C_29  and  C_30 
REMARK    8  A    between atoms: C_30  and  C_31 
REMARK    9  A    between atoms: C_31  and  O_33 
ROOT
HETATM    1  C   UNK N   1      34.052  16.322   9.430  0.00  0.00     0.183 A 
HETATM    2  N   UNK N   1      32.710  16.260   9.439  0.00  0.00    -0.318 N 
ATOM      3  HN  UNK N   1      32.110  15.586   9.915  1.00  0.00     0.169 HD
HETATM    4  C   UNK N   1      32.353  17.301   8.671  0.00  0.00     0.139 A 
HETATM    5  N   UNK N   1      33.436  17.967   8.217  0.00  0.00    -0.242 N 
ATOM      6  HN  UNK N   1      33.446  18.795   7.621  1.00  0.00     0.196 HD
HETATM    7  O   UNK N   1      34.465  17.332   8.699  0.00  0.00    -0.217 OA
ENDROOT
BRANCH   4   8
HETATM    8  C   UNK N   1      30.950  17.641   8.381  0.00  0.00     0.022 A 
HETATM    9  C   UNK N   1      30.114  18.103   9.420  0.00  0.00     0.016 A 
HETATM   10  C   UNK N   1      28.772  18.452   9.163  0.00  0.00     0.003 A 
HETATM   11  C   UNK N   1      28.251  18.355   7.862  0.00  0.00     0.030 A 
HETATM   12  C   UNK N   1      29.100  17.900   6.854  0.00  0.00     0.045 A 
HETATM   13  C   UNK N   1      30.400  17.551   7.100  0.00  0.00     0.006 A 
HETATM   14  N   UNK N   1      28.826  17.763   5.551  0.00  0.00    -0.356 N 
HETATM   15  C   UNK N   1      30.965  17.168   5.898  0.00  0.00     0.032 A 
HETATM   16  C   UNK N   1      29.955  17.322   4.949  0.00  0.00     0.092 A 
BRANCH  14  17
HETATM   17  C   UNK N   1      27.565  18.080   4.892  0.00  0.00     0.129 C 
BRANCH  17  18
HETATM   18  C   UNK N   1      27.523  19.537   4.468  0.00  0.00     0.031 C 
BRANCH  18  19
HETATM   19  C   UNK N   1      26.294  20.188   5.081  0.00  0.00     0.111 C 
BRANCH  19  20
HETATM   20  C   UNK N   1      26.652  21.006   6.278  0.00  0.00     0.139 C 
HETATM   21  O   UNK N   1      27.562  21.814   6.208  0.00  0.00    -0.650 OA
BRANCH  20  22
HETATM   22  O   UNK N   1      25.957  20.882   7.424  0.00  0.00    -0.776 OA
HETATM   23  H   UNK N   1      25.585  20.057   7.667  0.00  0.00     0.167 HD
ENDBRANCH  20  22
ENDBRANCH  19  20
ENDBRANCH  18  19
ENDBRANCH  17  18
ENDBRANCH  14  17
ENDBRANCH   4   8
BRANCH   1  24
HETATM   24  C   UNK N   1      34.903  15.349  10.116  0.00  0.00     0.034 A 
HETATM   25  C   UNK N   1      36.177  15.088   9.612  0.00  0.00     0.045 A 
HETATM   26  C   UNK N   1      37.029  14.215  10.277  0.00  0.00     0.086 A 
HETATM   27  C   UNK N   1      36.601  13.614  11.466  0.00  0.00     0.164 A 
HETATM   28 Cl   UNK N   1      38.631  13.918   9.631  0.00  0.00    -0.080 Cl
HETATM   29  N   UNK N   1      35.341  13.866  11.936  0.00  0.00    -0.345 N 
HETATM   30  C   UNK N   1      34.491  14.710  11.287  0.00  0.00     0.106 A 
ATOM     31  HN  UNK N   1      35.031  13.410  12.794  1.00  0.00     0.167 HD
BRANCH  27  32
HETATM   32  O   UNK N   1      37.453  12.802  12.145  0.00  0.00    -0.330 OA
BRANCH  32  33
HETATM   33  C   UNK N   1      37.106  11.619  12.774  0.00  0.00     0.122 C 
HETATM   34  C   UNK N   1      37.564  11.593  14.220  0.00  0.00     0.040 C 
HETATM   35  C   UNK N   1      37.620  10.407  12.012  0.00  0.00     0.040 C 
ENDBRANCH  32  33
ENDBRANCH  27  32
ENDBRANCH   1  24
TORSDOF 9
ENDMDL
MODEL 5
REMARK VINA RESULT:      -7.5      2.470      3.327
REMARK  9 active torsions:
REMARK  status: ('A' for Active; 'I' for Inactive)
REMARK    1  A    between atoms: C_2  and  O_4 
REMARK    2  A    between atoms: O_4  and  C_5 
REMARK    3  A    between atoms: C_8  and  C_12 
REMARK    4  A    between atoms: C_15  and  C_19 
REMARK    5  A    between atoms: N_27  and  C_28 
REMARK    6  A    between atoms: C_28  and  C_29 
REMARK    7  A    between atoms: C_29  and  C_30 
REMARK    8  A    between atoms: C_30  and  C_31 
REMARK    9  A    between atoms: C_31  and  O_33 
ROOT
HETATM    1  C   UNK N   1      35.798  14.301  11.830  0.00  0.00     0.183 A 
HETATM    2  N   UNK N   1      34.859  15.168  11.417  0.00  0.00    -0.318 N 
ATOM      3  HN  UNK N   1      34.075  15.553  11.944  1.00  0.00     0.169 HD
HETATM    4  C   UNK N   1      35.206  15.406  10.142  0.00  0.00     0.139 A 
HETATM    5  N   UNK N   1      36.311  14.711   9.799  0.00  0.00    -0.242 N 
ATOM      6  HN  UNK N   1      36.786  14.713   8.896  1.00  0.00     0.196 HD
HETATM    7  O   UNK N   1      36.644  14.036  10.861  0.00  0.00    -0.217 OA
ENDROOT
BRANCH   4   8
HETATM    8  C   UNK N   1      34.452  16.312   9.261  0.00  0.00     0.022 A 
HETATM    9  C   UNK N   1      34.911  17.631   9.057  0.00  0.00     0.016 A 
HETATM   10  C   UNK N   1      34.216  18.512   8.204  0.00  0.00     0.003 A 
HETATM   11  C   UNK N   1      33.060  18.083   7.531  0.00  0.00     0.030 A 
HETATM   12  C   UNK N   1      32.631  16.774   7.747  0.00  0.00     0.045 A 
HETATM   13  C   UNK N   1      33.296  15.919   8.582  0.00  0.00     0.006 A 
HETATM   14  N   UNK N   1      31.584  16.153   7.190  0.00  0.00    -0.356 N 
HETATM   15  C   UNK N   1      32.631  14.707   8.556  0.00  0.00     0.032 A 
HETATM   16  C   UNK N   1      31.572  14.886   7.667  0.00  0.00     0.092 A 
BRANCH  14  17
HETATM   17  C   UNK N   1      30.662  16.714   6.211  0.00  0.00     0.129 C 
BRANCH  17  18
HETATM   18  C   UNK N   1      29.257  16.811   6.779  0.00  0.00     0.031 C 
BRANCH  18  19
HETATM   19  C   UNK N   1      29.201  17.986   7.742  0.00  0.00     0.111 C 
BRANCH  19  20
HETATM   20  C   UNK N   1      28.920  17.532   9.137  0.00  0.00     0.139 C 
HETATM   21  O   UNK N   1      27.770  17.331   9.487  0.00  0.00    -0.650 OA
BRANCH  20  22
HETATM   22  O   UNK N   1      29.928  17.313  10.001  0.00  0.00    -0.776 OA
HETATM   23  H   UNK N   1      30.556  16.636   9.836  0.00  0.00     0.167 HD
ENDBRANCH  20  22
ENDBRANCH  19  20
ENDBRANCH  18  19
ENDBRANCH  17  18
ENDBRANCH  14  17
ENDBRANCH   4   8
BRANCH   1  24
HETATM   24  C   UNK N   1      35.813  13.716  13.172  0.00  0.00     0.034 A 
HETATM   25  C   UNK N   1      35.041  12.584  13.427  0.00  0.00     0.045 A 
HETATM   26  C   UNK N   1      35.083  11.973  14.674  0.00  0.00     0.086 A 
HETATM   27  C   UNK N   1      35.921  12.497  15.665  0.00  0.00     0.164 A 
HETATM   28 Cl   UNK N   1      34.115  10.540  14.963  0.00  0.00    -0.080 Cl
HETATM   29  N   UNK N   1      36.657  13.620  15.404  0.00  0.00    -0.345 N 
HETATM   30  C   UNK N   1      36.616  14.236  14.190  0.00  0.00     0.106 A 
ATOM     31  HN  UNK N   1      37.253  14.005  16.137  1.00  0.00     0.167 HD
BRANCH  27  32
HETATM   32  O   UNK N   1      36.003  11.868  16.867  0.00  0.00    -0.330 OA
BRANCH  32  33
HETATM   33  C   UNK N   1      35.077  11.969  17.891  0.00  0.00     0.122 C 
HETATM   34  C   UNK N   1      35.214  13.278  18.648  0.00  0.00     0.040 C 
HETATM   35  C   UNK N   1      35.150  10.778  18.833  0.00  0.00     0.040 C 
ENDBRANCH  32  33
ENDBRANCH  27  32
ENDBRANCH   1  24
TORSDOF 9
ENDMDL
MODEL 6
REMARK VINA RESULT:      -7.4      3.772     11.866
REMARK  9 active torsions:
REMARK  status: ('A' for Active; 'I' for Inactive)
REMARK    1  A    between atoms: C_2  and  O_4 
REMARK    2  A    between atoms: O_4  and  C_5 
REMARK    3  A    between atoms: C_8  and  C_12 
REMARK    4  A    between atoms: C_15  and  C_19 
REMARK    5  A    between atoms: N_27  and  C_28 
REMARK    6  A    between atoms: C_28  and  C_29 
REMARK    7  A    between atoms: C_29  and  C_30 
REMARK    8  A    between atoms: C_30  and  C_31 
REMARK    9  A    between atoms: C_31  and  O_33 
ROOT
HETATM    1  C   UNK N   1      36.193  13.939  12.610  0.00  0.00     0.183 A 
HETATM    2  N   UNK N   1      35.559  13.979  13.794  0.00  0.00    -0.318 N 
ATOM      3  HN  UNK N   1      34.765  14.557  14.069  1.00  0.00     0.169 HD
HETATM    4  C   UNK N   1      36.225  13.072  14.525  0.00  0.00     0.139 A 
HETATM    5  N   UNK N   1      37.220  12.505  13.811  0.00  0.00    -0.242 N 
ATOM      6  HN  UNK N   1      37.872  11.786  14.125  1.00  0.00     0.196 HD
HETATM    7  O   UNK N   1      37.175  13.068  12.639  0.00  0.00    -0.217 OA
ENDROOT
BRANCH   4   8
HETATM    8  C   UNK N   1      35.886  12.763  15.924  0.00  0.00     0.022 A 
HETATM    9  C   UNK N   1      35.696  13.815  16.845  0.00  0.00     0.016 A 
HETATM   10  C   UNK N   1      35.353  13.545  18.186  0.00  0.00     0.003 A 
HETATM   11  C   UNK N   1      35.183  12.220  18.621  0.00  0.00     0.030 A 
HETATM   12  C   UNK N   1      35.373  11.201  17.690  0.00  0.00     0.045 A 
HETATM   13  C   UNK N   1      35.716  11.457  16.390  0.00  0.00     0.006 A 
HETATM   14  N   UNK N   1      35.232   9.883  17.877  0.00  0.00    -0.356 N 
HETATM   15  C   UNK N   1      35.803  10.244  15.733  0.00  0.00     0.032 A 
HETATM   16  C   UNK N   1      35.485   9.282  16.691  0.00  0.00     0.092 A 
BRANCH  14  17
HETATM   17  C   UNK N   1      34.829   9.220  19.110  0.00  0.00     0.129 C 
BRANCH  17  18
HETATM   18  C   UNK N   1      33.360   8.840  19.070  0.00  0.00     0.031 C 
BRANCH  18  19
HETATM   19  C   UNK N   1      33.065   7.909  20.234  0.00  0.00     0.111 C 
BRANCH  19  20
HETATM   20  C   UNK N   1      31.715   8.176  20.814  0.00  0.00     0.139 C 
HETATM   21  O   UNK N   1      31.527   8.017  22.008  0.00  0.00    -0.650 OA
BRANCH  20  22
HETATM   22  O   UNK N   1      30.711   8.621  20.035  0.00  0.00    -0.776 OA
HETATM   23  H   UNK N   1      29.853   8.253  20.109  0.00  0.00     0.167 HD
ENDBRANCH  20  22
ENDBRANCH  19  20
ENDBRANCH  18  19
ENDBRANCH  17  18
ENDBRANCH  14  17
ENDBRANCH   4   8
BRANCH   1  24
HETATM   24  C   UNK N   1      35.836  14.799  11.481  0.00  0.00     0.034 A 
HETATM   25  C   UNK N   1      35.947  14.298  10.184  0.00  0.00     0.045 A 
HETATM   26  C   UNK N   1      35.558  15.072   9.098  0.00  0.00     0.086 A 
HETATM   27  C   UNK N   1      35.038  16.352   9.321  0.00  0.00     0.164 A 
HETATM   28 Cl   UNK N   1      35.693  14.411   7.480  0.00  0.00    -0.080 Cl
HETATM   29  N   UNK N   1      34.954  16.835  10.597  0.00  0.00    -0.345 N 
HETATM   30  C   UNK N   1      35.344  16.093  11.671  0.00  0.00     0.106 A 
ATOM     31  HN  UNK N   1      34.590  17.776  10.749  1.00  0.00     0.167 HD
BRANCH  27  32
HETATM   32  O   UNK N   1      34.607  17.088   8.262  0.00  0.00    -0.330 OA
BRANCH  32  33
HETATM   33  C   UNK N   1      33.358  16.991   7.673  0.00  0.00     0.122 C 
HETATM   34  C   UNK N   1      33.417  17.251   6.179  0.00  0.00     0.040 C 
HETATM   35  C   UNK N   1      32.347  17.902   8.351  0.00  0.00     0.040 C 
ENDBRANCH  32  33
ENDBRANCH  27  32
ENDBRANCH   1  24
TORSDOF 9
ENDMDL
MODEL 7
REMARK VINA RESULT:      -7.2      4.244     12.285
REMARK  9 active torsions:
REMARK  status: ('A' for Active; 'I' for Inactive)
REMARK    1  A    between atoms: C_2  and  O_4 
REMARK    2  A    between atoms: O_4  and  C_5 
REMARK    3  A    between atoms: C_8  and  C_12 
REMARK    4  A    between atoms: C_15  and  C_19 
REMARK    5  A    between atoms: N_27  and  C_28 
REMARK    6  A    between atoms: C_28  and  C_29 
REMARK    7  A    between atoms: C_29  and  C_30 
REMARK    8  A    between atoms: C_30  and  C_31 
REMARK    9  A    between atoms: C_31  and  O_33 
ROOT
HETATM    1  C   UNK N   1      35.773  13.957  13.382  0.00  0.00     0.183 A 
HETATM    2  N   UNK N   1      35.208  12.877  13.948  0.00  0.00    -0.318 N 
ATOM      3  HN  UNK N   1      34.428  12.316  13.604  1.00  0.00     0.169 HD
HETATM    4  C   UNK N   1      35.920  12.718  15.074  0.00  0.00     0.139 A 
HETATM    5  N   UNK N   1      36.878  13.661  15.184  0.00  0.00    -0.242 N 
ATOM      6  HN  UNK N   1      37.558  13.766  15.938  1.00  0.00     0.196 HD
HETATM    7  O   UNK N   1      36.754  14.411  14.128  0.00  0.00    -0.217 OA
ENDROOT
BRANCH   4   8
HETATM    8  C   UNK N   1      35.659  11.640  16.043  0.00  0.00     0.022 A 
HETATM    9  C   UNK N   1      35.701  10.294  15.620  0.00  0.00     0.016 A 
HETATM   10  C   UNK N   1      35.472   9.245  16.534  0.00  0.00     0.003 A 
HETATM   11  C   UNK N   1      35.210   9.526  17.885  0.00  0.00     0.030 A 
HETATM   12  C   UNK N   1      35.178  10.863  18.276  0.00  0.00     0.045 A 
HETATM   13  C   UNK N   1      35.390  11.886  17.392  0.00  0.00     0.006 A 
HETATM   14  N   UNK N   1      34.981  11.352  19.507  0.00  0.00    -0.356 N 
HETATM   15  C   UNK N   1      35.313  13.072  18.098  0.00  0.00     0.032 A 
HETATM   16  C   UNK N   1      35.066  12.701  19.419  0.00  0.00     0.092 A 
BRANCH  14  17
HETATM   17  C   UNK N   1      34.770  10.580  20.724  0.00  0.00     0.129 C 
BRANCH  17  18
HETATM   18  C   UNK N   1      33.516  11.037  21.449  0.00  0.00     0.031 C 
BRANCH  18  19
HETATM   19  C   UNK N   1      32.663   9.820  21.762  0.00  0.00     0.111 C 
BRANCH  19  20
HETATM   20  C   UNK N   1      32.316   9.759  23.214  0.00  0.00     0.139 C 
HETATM   21  O   UNK N   1      31.983   8.697  23.712  0.00  0.00    -0.650 OA
BRANCH  20  22
HETATM   22  O   UNK N   1      32.400  10.860  23.984  0.00  0.00    -0.776 OA
HETATM   23  H   UNK N   1      32.717  10.801  24.863  0.00  0.00     0.167 HD
ENDBRANCH  20  22
ENDBRANCH  19  20
ENDBRANCH  18  19
ENDBRANCH  17  18
ENDBRANCH  14  17
ENDBRANCH   4   8
BRANCH   1  24
HETATM   24  C   UNK N   1      35.300  14.544  12.128  0.00  0.00     0.034 A 
HETATM   25  C   UNK N   1      34.647  13.730  11.202  0.00  0.00     0.045 A 
HETATM   26  C   UNK N   1      34.134  14.273  10.031  0.00  0.00     0.086 A 
HETATM   27  C   UNK N   1      34.265  15.647   9.798  0.00  0.00     0.164 A 
HETATM   28 Cl   UNK N   1      33.303  13.231   8.892  0.00  0.00    -0.080 Cl
HETATM   29  N   UNK N   1      34.924  16.427  10.708  0.00  0.00    -0.345 N 
HETATM   30  C   UNK N   1      35.444  15.906  11.854  0.00  0.00     0.106 A 
ATOM     31  HN  UNK N   1      35.030  17.425  10.522  1.00  0.00     0.167 HD
BRANCH  27  32
HETATM   32  O   UNK N   1      33.716  16.187   8.679  0.00  0.00    -0.330 OA
BRANCH  32  33
HETATM   33  C   UNK N   1      33.168  17.455   8.584  0.00  0.00     0.122 C 
HETATM   34  C   UNK N   1      31.860  17.449   7.814  0.00  0.00     0.040 C 
HETATM   35  C   UNK N   1      34.154  18.447   7.988  0.00  0.00     0.040 C 
ENDBRANCH  32  33
ENDBRANCH  27  32
ENDBRANCH   1  24
TORSDOF 9
ENDMDL
MODEL 8
REMARK VINA RESULT:      -7.1      5.161      8.570
REMARK  9 active torsions:
REMARK  status: ('A' for Active; 'I' for Inactive)
REMARK    1  A    between atoms: C_2  and  O_4 
REMARK    2  A    between atoms: O_4  and  C_5 
REMARK    3  A    between atoms: C_8  and  C_12 
REMARK    4  A    between atoms: C_15  and  C_19 
REMARK    5  A    between atoms: N_27  and  C_28 
REMARK    6  A    between atoms: C_28  and  C_29 
REMARK    7  A    between atoms: C_29  and  C_30 
REMARK    8  A    between atoms: C_30  and  C_31 
REMARK    9  A    between atoms: C_31  and  O_33 
ROOT
HETATM    1  C   UNK N   1      28.438  16.894   5.068  0.00  0.00     0.183 A 
HETATM    2  N   UNK N   1      27.603  17.945   5.132  0.00  0.00    -0.318 N 
ATOM      3  HN  UNK N   1      27.606  18.718   5.797  1.00  0.00     0.169 HD
HETATM    4  C   UNK N   1      26.767  17.730   4.104  0.00  0.00     0.139 A 
HETATM    5  N   UNK N   1      27.084  16.596   3.445  0.00  0.00    -0.242 N 
ATOM      6  HN  UNK N   1      26.615  16.205   2.628  1.00  0.00     0.196 HD
HETATM    7  O   UNK N   1      28.114  16.104   4.071  0.00  0.00    -0.217 OA
ENDROOT
BRANCH   4   8
HETATM    8  C   UNK N   1      25.656  18.636   3.770  0.00  0.00     0.022 A 
HETATM    9  C   UNK N   1      25.925  19.866   3.132  0.00  0.00     0.016 A 
HETATM   10  C   UNK N   1      24.875  20.742   2.786  0.00  0.00     0.003 A 
HETATM   11  C   UNK N   1      23.542  20.396   3.063  0.00  0.00     0.030 A 
HETATM   12  C   UNK N   1      23.305  19.174   3.690  0.00  0.00     0.045 A 
HETATM   13  C   UNK N   1      24.320  18.324   4.036  0.00  0.00     0.006 A 
HETATM   14  N   UNK N   1      22.124  18.634   4.013  0.00  0.00    -0.356 N 
HETATM   15  C   UNK N   1      23.750  17.204   4.613  0.00  0.00     0.032 A 
HETATM   16  C   UNK N   1      22.375  17.428   4.573  0.00  0.00     0.092 A 
BRANCH  14  17
HETATM   17  C   UNK N   1      20.808  19.210   3.762  0.00  0.00     0.129 C 
BRANCH  17  18
HETATM   18  C   UNK N   1      19.954  18.274   2.927  0.00  0.00     0.031 C 
BRANCH  18  19
HETATM   19  C   UNK N   1      20.526  18.215   1.521  0.00  0.00     0.111 C 
BRANCH  19  20
HETATM   20  C   UNK N   1      19.990  17.044   0.765  0.00  0.00     0.139 C 
HETATM   21  O   UNK N   1      20.740  16.138   0.442  0.00  0.00    -0.650 OA
BRANCH  20  22
HETATM   22  O   UNK N   1      18.680  16.965   0.465  0.00  0.00    -0.776 OA
HETATM   23  H   UNK N   1      18.079  17.607   0.789  0.00  0.00     0.167 HD
ENDBRANCH  20  22
ENDBRANCH  19  20
ENDBRANCH  18  19
ENDBRANCH  17  18
ENDBRANCH  14  17
ENDBRANCH   4   8
BRANCH   1  24
HETATM   24  C   UNK N   1      29.520  16.672   6.029  0.00  0.00     0.034 A 
HETATM   25  C   UNK N   1      30.644  15.950   5.629  0.00  0.00     0.045 A 
HETATM   26  C   UNK N   1      31.711  15.776   6.501  0.00  0.00     0.086 A 
HETATM   27  C   UNK N   1      31.654  16.347   7.777  0.00  0.00     0.164 A 
HETATM   28 Cl   UNK N   1      33.119  14.877   5.967  0.00  0.00    -0.080 Cl
HETATM   29  N   UNK N   1      30.536  17.037   8.159  0.00  0.00    -0.345 N 
HETATM   30  C   UNK N   1      29.476  17.204   7.319  0.00  0.00     0.106 A 
ATOM     31  HN  UNK N   1      30.495  17.435   9.097  1.00  0.00     0.167 HD
BRANCH  27  32
HETATM   32  O   UNK N   1      32.721  16.223   8.610  0.00  0.00    -0.330 OA
BRANCH  32  33
HETATM   33  C   UNK N   1      33.592  17.242   8.955  0.00  0.00     0.122 C 
HETATM   34  C   UNK N   1      33.907  18.140   7.773  0.00  0.00     0.040 C 
HETATM   35  C   UNK N   1      34.863  16.701   9.589  0.00  0.00     0.040 C 
ENDBRANCH  32  33
ENDBRANCH  27  32
ENDBRANCH   1  24
TORSDOF 9
ENDMDL
MODEL 9
REMARK VINA RESULT:      -7.1      3.977      6.743
REMARK  9 active torsions:
REMARK  status: ('A' for Active; 'I' for Inactive)
REMARK    1  A    between atoms: C_2  and  O_4 
REMARK    2  A    between atoms: O_4  and  C_5 
REMARK    3  A    between atoms: C_8  and  C_12 
REMARK    4  A    between atoms: C_15  and  C_19 
REMARK    5  A    between atoms: N_27  and  C_28 
REMARK    6  A    between atoms: C_28  and  C_29 
REMARK    7  A    between atoms: C_29  and  C_30 
REMARK    8  A    between atoms: C_30  and  C_31 
REMARK    9  A    between atoms: C_31  and  O_33 
ROOT
HETATM    1  C   UNK N   1      30.034  16.985   5.766  0.00  0.00     0.183 A 
HETATM    2  N   UNK N   1      28.822  17.555   5.869  0.00  0.00    -0.318 N 
ATOM      3  HN  UNK N   1      28.266  17.718   6.708  1.00  0.00     0.169 HD
HETATM    4  C   UNK N   1      28.523  17.860   4.596  0.00  0.00     0.139 A 
HETATM    5  N   UNK N   1      29.515  17.491   3.759  0.00  0.00    -0.242 N 
ATOM      6  HN  UNK N   1      29.544  17.611   2.747  1.00  0.00     0.196 HD
HETATM    7  O   UNK N   1      30.426  16.949   4.514  0.00  0.00    -0.217 OA
ENDROOT
BRANCH   4   8
HETATM    8  C   UNK N   1      27.263  18.513   4.202  0.00  0.00     0.022 A 
HETATM    9  C   UNK N   1      27.278  19.853   3.761  0.00  0.00     0.016 A 
HETATM   10  C   UNK N   1      26.087  20.494   3.362  0.00  0.00     0.003 A 
HETATM   11  C   UNK N   1      24.866  19.799   3.386  0.00  0.00     0.030 A 
HETATM   12  C   UNK N   1      24.881  18.475   3.822  0.00  0.00     0.045 A 
HETATM   13  C   UNK N   1      26.032  17.852   4.220  0.00  0.00     0.006 A 
HETATM   14  N   UNK N   1      23.850  17.624   3.893  0.00  0.00    -0.356 N 
HETATM   15  C   UNK N   1      25.707  16.554   4.566  0.00  0.00     0.032 A 
HETATM   16  C   UNK N   1      24.336  16.443   4.340  0.00  0.00     0.092 A 
BRANCH  14  17
HETATM   17  C   UNK N   1      22.470  17.899   3.510  0.00  0.00     0.129 C 
BRANCH  17  18
HETATM   18  C   UNK N   1      21.875  19.001   4.368  0.00  0.00     0.031 C 
BRANCH  18  19
HETATM   19  C   UNK N   1      20.740  19.657   3.601  0.00  0.00     0.111 C 
BRANCH  19  20
HETATM   20  C   UNK N   1      21.258  20.576   2.544  0.00  0.00     0.139 C 
HETATM   21  O   UNK N   1      21.033  20.335   1.370  0.00  0.00    -0.650 OA
BRANCH  20  22
HETATM   22  O   UNK N   1      21.944  21.685   2.878  0.00  0.00    -0.776 OA
HETATM   23  H   UNK N   1      21.962  22.424   2.301  0.00  0.00     0.167 HD
ENDBRANCH  20  22
ENDBRANCH  19  20
ENDBRANCH  18  19
ENDBRANCH  17  18
ENDBRANCH  14  17
ENDBRANCH   4   8
BRANCH   1  24
HETATM   24  C   UNK N   1      30.765  16.446   6.915  0.00  0.00     0.034 A 
HETATM   25  C   UNK N   1      31.540  15.299   6.748  0.00  0.00     0.045 A 
HETATM   26  C   UNK N   1      32.292  14.802   7.805  0.00  0.00     0.086 A 
HETATM   27  C   UNK N   1      32.275  15.473   9.033  0.00  0.00     0.164 A 
HETATM   28 Cl   UNK N   1      33.271  13.367   7.563  0.00  0.00    -0.080 Cl
HETATM   29  N   UNK N   1      31.494  16.586   9.185  0.00  0.00    -0.345 N 
HETATM   30  C   UNK N   1      30.742  17.077   8.160  0.00  0.00     0.106 A 
ATOM     31  HN  UNK N   1      31.475  17.059  10.088  1.00  0.00     0.167 HD
BRANCH  27  32
HETATM   32  O   UNK N   1      33.053  15.017  10.050  0.00  0.00    -0.330 OA
BRANCH  32  33
HETATM   33  C   UNK N   1      34.305  15.505  10.384  0.00  0.00     0.122 C 
HETATM   34  C   UNK N   1      34.807  16.513   9.368  0.00  0.00     0.040 C 
HETATM   35  C   UNK N   1      35.308  14.381  10.587  0.00  0.00     0.040 C 
ENDBRANCH  32  33
ENDBRANCH  27  32
ENDBRANCH   1  24
TORSDOF 9
ENDMDL
