REMARK  6 active torsions:
REMARK  status: ('A' for Active; 'I' for Inactive)
REMARK    1  A    between atoms: C_2  and  C_3 
REMARK    2  A    between atoms: C_5  and  C_3 
REMARK    3  A    between atoms: C_9  and  C_31 
REMARK    4  A    between atoms: N_12  and  C_13 
REMARK    5  A    between atoms: C_13  and  C_14 
REMARK    6  A    between atoms: C_13  and  C_23 
REMARK       I    between atoms: C_23  and  N_25 
ROOT
HETATM    1  C   UNK N   1      -2.309  -1.327  -0.726  0.00  0.00     0.184 C 
HETATM    2  C   UNK N   1      -1.721  -2.694  -0.354  0.00  0.00     0.241 C 
HETATM    3  O   UNK N   1      -2.392  -3.707  -0.483  0.00  0.00    -0.271 OA
HETATM    4  N   UNK N   1      -0.479  -2.802   0.156  0.00  0.00    -0.346 N 
HETATM    5  C   UNK N   1       0.427  -1.692   0.118  0.00  0.00     0.181 C 
HETATM    6  C   UNK N   1      -0.290  -0.404   0.356  0.00  0.00     0.244 C 
HETATM    7  O   UNK N   1       0.312   0.470   0.968  0.00  0.00    -0.271 OA
HETATM    8  N   UNK N   1      -1.540  -0.174  -0.168  0.00  0.00    -0.319 N 
HETATM    9  H   UNK N   1      -0.191  -3.653   0.559  0.00  0.00     0.163 HD
ENDROOT
BRANCH   8  10
HETATM   10  C   UNK N   1      -2.104   1.207  -0.168  0.00  0.00     0.215 C 
BRANCH  10  11
HETATM   11  C   UNK N   1      -1.173   2.402  -0.023  0.00  0.00    -0.004 A 
HETATM   12  C   UNK N   1      -1.137   3.068   1.207  0.00  0.00     0.013 A 
HETATM   13  C   UNK N   1      -0.284   4.150   1.402  0.00  0.00     0.025 A 
HETATM   14  C   UNK N   1       0.543   4.560   0.360  0.00  0.00     0.005 A 
HETATM   15  N   UNK N   1       0.516   3.903  -0.833  0.00  0.00    -0.363 N 
HETATM   16  C   UNK N   1       1.457   5.716   0.557  0.00  0.00     0.068 C 
HETATM   17  C   UNK N   1      -0.313   2.841  -1.051  0.00  0.00     0.014 A 
ATOM     18  HN  UNK N   1       1.131   4.214  -1.584  1.00  0.00     0.165 HD
HETATM   19  C   UNK N   1      -0.283   2.162  -2.377  0.00  0.00     0.068 C 
ENDBRANCH  10  11
BRANCH  10  20
HETATM   20  C   UNK N   1      -3.491   1.459  -0.738  0.00  0.00     0.247 C 
HETATM   21  O   UNK N   1      -3.776   0.986  -1.831  0.00  0.00    -0.271 OA
HETATM   22  N   UNK N   1      -4.436   2.157  -0.041  0.00  0.00    -0.346 N 
HETATM   23  C   UNK N   1      -5.795   2.257  -0.534  0.00  0.00     0.152 C 
HETATM   24  C   UNK N   1      -4.095   2.926   1.136  0.00  0.00     0.152 C 
HETATM   25  C   UNK N   1      -6.315   3.675  -0.297  0.00  0.00     0.187 C 
HETATM   26  O   UNK N   1      -5.228   4.568  -0.320  0.00  0.00    -0.388 OA
HETATM   27  C   UNK N   1      -4.519   4.397   0.895  0.00  0.00     0.187 C 
ENDBRANCH  10  20
ENDBRANCH   8  10
BRANCH   1  28
HETATM   28  C   UNK N   1      -3.792  -1.303  -0.300  0.00  0.00     0.013 C 
HETATM   29  C   UNK N   1      -4.097  -1.535   1.174  0.00  0.00     0.012 C 
BRANCH  28  30
HETATM   30  C   UNK N   1      -4.767  -1.911  -1.316  0.00  0.00     0.002 C 
HETATM   31  C   UNK N   1      -5.333  -3.259  -0.906  0.00  0.00     0.005 C 
ENDBRANCH  28  30
ENDBRANCH   1  28
BRANCH   5  32
HETATM   32  C   UNK N   1       1.134  -1.695  -1.255  0.00  0.00     0.026 C 
HETATM   33  C   UNK N   1       1.966  -0.403  -1.434  0.00  0.00     0.046 C 
HETATM   34  C   UNK N   1       3.253  -0.805  -0.857  0.00  0.00    -0.051 A 
HETATM   35  C   UNK N   1       4.268   0.049  -0.434  0.00  0.00     0.007 A 
HETATM   36  C   UNK N   1       3.361  -2.159  -0.738  0.00  0.00    -0.051 A 
HETATM   37  C   UNK N   1       5.420  -0.515   0.134  0.00  0.00     0.001 A 
HETATM   38  C   UNK N   1       5.533  -1.913   0.259  0.00  0.00     0.001 A 
HETATM   39  C   UNK N   1       4.495  -2.748  -0.184  0.00  0.00     0.007 A 
HETATM   40  C   UNK N   1       2.153  -2.856  -1.222  0.00  0.00     0.046 C 
ENDBRANCH   5  32
TORSDOF 6
