REMARK  13 active torsions:
REMARK  status: ('A' for Active; 'I' for Inactive)
REMARK    1  A    between atoms: C_6  and  C_11 
REMARK    2  A    between atoms: C_11  and  C_12 
REMARK    3  A    between atoms: C_12  and  C_13 
REMARK    4  A    between atoms: C_13  and  C_15 
REMARK    5  A    between atoms: C_13  and  O_31 
REMARK    6  A    between atoms: C_15  and  C_16 
REMARK    7  A    between atoms: C_16  and  C_17 
REMARK    8  A    between atoms: C_18  and  C_20 
REMARK    9  A    between atoms: C_20  and  C_21 
REMARK   10  A    between atoms: C_21  and  C_22 
REMARK   11  A    between atoms: C_23  and  C_25 
REMARK   12  A    between atoms: C_25  and  C_26 
REMARK   13  A    between atoms: C_26  and  C_27 
ROOT
HETATM    1  C   UNK N   1       1.009  -2.503   0.265  0.00  0.00     0.055 C 
HETATM    2  C   UNK N   1      -0.418  -2.099   0.615  0.00  0.00     0.045 C 
ENDROOT
BRANCH   1   3
HETATM    3  C   UNK N   1       1.768  -1.347  -0.377  0.00  0.00     0.042 C 
BRANCH   3   4
HETATM    4  C   UNK N   1       1.007  -0.520  -1.411  0.00  0.00     0.046 C 
BRANCH   4   5
HETATM    5  C   UNK N   1       0.969   0.901  -0.906  0.00  0.00     0.002 A 
HETATM    6  C   UNK N   1       2.252   1.626  -0.672  0.00  0.00     0.185 A 
HETATM    7  C   UNK N   1       2.242   2.988  -0.083  0.00  0.00    -0.002 A 
HETATM    8  O   UNK N   1       3.316   1.093  -0.949  0.00  0.00    -0.287 OA
HETATM    9  C   UNK N   1       1.070   3.590   0.204  0.00  0.00    -0.002 A 
HETATM   10  C   UNK N   1       3.550   3.673   0.190  0.00  0.00     0.053 C 
HETATM   11  C   UNK N   1       1.039   4.964   0.809  0.00  0.00     0.053 C 
HETATM   12  C   UNK N   1      -0.213   2.890  -0.073  0.00  0.00     0.185 A 
HETATM   13  C   UNK N   1      -0.205   1.511  -0.629  0.00  0.00    -0.001 A 
HETATM   14  O   UNK N   1      -1.273   3.442   0.178  0.00  0.00    -0.287 OA
HETATM   15  C   UNK N   1      -1.512   0.808  -0.857  0.00  0.00     0.053 C 
ENDBRANCH   4   5
ENDBRANCH   3   4
ENDBRANCH   1   3
BRANCH   1  16
HETATM   16  C   UNK N   1       1.015  -3.706  -0.686  0.00  0.00     0.041 C 
BRANCH  16  17
HETATM   17  C   UNK N   1       0.866  -5.070   0.002  0.00  0.00     0.030 C 
BRANCH  17  18
HETATM   18  C   UNK N   1      -0.333  -5.130   0.899  0.00  0.00    -0.024 C 
HETATM   19  C   UNK N   1      -1.378  -5.923   0.662  0.00  0.00    -0.087 C 
HETATM   20  C   UNK N   1      -2.524  -5.869   1.620  0.00  0.00     0.043 C 
BRANCH  19  21
HETATM   21  C   UNK N   1      -1.401  -6.813  -0.559  0.00  0.00     0.037 C 
BRANCH  21  22
HETATM   22  C   UNK N   1      -2.697  -7.585  -0.764  0.00  0.00     0.031 C 
BRANCH  22  23
HETATM   23  C   UNK N   1      -2.785  -8.750   0.173  0.00  0.00    -0.024 C 
HETATM   24  C   UNK N   1      -3.828  -8.934   0.991  0.00  0.00    -0.087 C 
HETATM   25  C   UNK N   1      -4.983  -7.978   1.014  0.00  0.00     0.043 C 
BRANCH  24  26
HETATM   26  C   UNK N   1      -3.846 -10.132   1.886  0.00  0.00     0.037 C 
BRANCH  26  27
HETATM   27  C   UNK N   1      -5.002 -11.057   1.533  0.00  0.00     0.031 C 
BRANCH  27  28
HETATM   28  C   UNK N   1      -4.733 -11.754   0.233  0.00  0.00    -0.024 C 
HETATM   29  C   UNK N   1      -5.479 -11.553  -0.860  0.00  0.00    -0.091 C 
HETATM   30  C   UNK N   1      -5.140 -12.279  -2.114  0.00  0.00     0.042 C 
HETATM   31  C   UNK N   1      -6.638 -10.607  -0.858  0.00  0.00     0.042 C 
ENDBRANCH  27  28
ENDBRANCH  26  27
ENDBRANCH  24  26
ENDBRANCH  22  23
ENDBRANCH  21  22
ENDBRANCH  19  21
ENDBRANCH  17  18
ENDBRANCH  16  17
ENDBRANCH   1  16
BRANCH   1  32
HETATM   32  O   UNK N   1       1.683  -2.828   1.444  0.00  0.00    -0.390 OA
HETATM   33  H   UNK N   1       1.721  -3.346   2.263  0.00  0.00     0.210 HD
ENDBRANCH   1  32
TORSDOF 13
