MODEL 1
REMARK VINA RESULT:      -6.5      0.000      0.000
REMARK  18 active torsions:
REMARK  status: ('A' for Active; 'I' for Inactive)
REMARK    1  A    between atoms: C_5  and  C_4 
REMARK    2  A    between atoms: C_6  and  C_5 
REMARK    3  A    between atoms: C_7  and  C_6 
REMARK    4  A    between atoms: C_8  and  C_7 
REMARK    5  A    between atoms: C_9  and  C_8 
REMARK    6  A    between atoms: C_16  and  C_9 
REMARK    7  A    between atoms: C_14  and  C_11 
REMARK    8  A    between atoms: O_34  and  C_11 
REMARK    9  A    between atoms: O_28  and  C_12 
REMARK   10  A    between atoms: C_13  and  N_27 
REMARK   11  A    between atoms: C_18  and  C_14 
REMARK   12  A    between atoms: C_14  and  O_29 
REMARK   13  A    between atoms: C_20  and  C_15 
REMARK   14  A    between atoms: O_34  and  C_16 
REMARK   15  A    between atoms: C_17  and  N_25 
REMARK   16  A    between atoms: C_19  and  C_18 
REMARK   17  A    between atoms: C_18  and  O_33 
REMARK   18  A    between atoms: O_32  and  C_20 
REMARK       I    between atoms: N_24  and  C_21 
REMARK       I    between atoms: N_27  and  C_21 
ROOT
HETATM    1  C   UNK N   1      20.258  15.546   9.012  0.00  0.00     0.044 C 
HETATM    2  C   UNK N   1      21.234  14.639   8.294  0.00  0.00     0.150 C 
HETATM    3  C   UNK N   1      19.807  16.681   8.453  0.00  0.00     0.141 C 
HETATM    4  C   UNK N   1      21.907  15.359   7.080  0.00  0.00     0.142 C 
HETATM    5  C   UNK N   1      20.785  16.119   6.327  0.00  0.00     0.185 C 
HETATM    6  O   UNK N   1      20.194  17.020   7.200  0.00  0.00    -0.335 OA
ENDROOT
BRANCH   5   7
HETATM    7  C   UNK N   1      21.200  16.870   5.030  0.00  0.00     0.183 C 
BRANCH   7   8
HETATM    8  C   UNK N   1      21.372  18.371   5.364  0.00  0.00     0.174 C 
BRANCH   8   9
HETATM    9  C   UNK N   1      21.386  19.269   4.139  0.00  0.00     0.213 C 
BRANCH   9  10
HETATM   10  O   UNK N   1      22.540  19.180   3.402  0.00  0.00    -0.319 OA
BRANCH  10  11
HETATM   11  C   UNK N   1      23.266  20.283   3.115  0.00  0.00     0.258 C 
HETATM   12  O   UNK N   1      22.722  21.318   2.759  0.00  0.00    -0.265 OA
BRANCH  11  13
HETATM   13  C   UNK N   1      24.711  20.299   3.488  0.00  0.00     0.111 C 
BRANCH  13  14
HETATM   14  C   UNK N   1      25.243  18.865   3.478  0.00  0.00     0.010 C 
BRANCH  14  15
HETATM   15  C   UNK N   1      26.413  18.699   4.443  0.00  0.00     0.000 C 
BRANCH  15  16
HETATM   16  C   UNK N   1      27.342  19.899   4.387  0.00  0.00     0.000 C 
BRANCH  16  17
HETATM   17  C   UNK N   1      27.835  20.240   5.779  0.00  0.00    -0.000 C 
BRANCH  17  18
HETATM   18  C   UNK N   1      27.324  21.604   6.195  0.00  0.00    -0.005 C 
HETATM   19  C   UNK N   1      26.214  21.434   7.209  0.00  0.00     0.005 C 
ENDBRANCH  17  18
ENDBRANCH  16  17
ENDBRANCH  15  16
ENDBRANCH  14  15
ENDBRANCH  13  14
ENDBRANCH  11  13
ENDBRANCH  10  11
ENDBRANCH   9  10
ENDBRANCH   8   9
BRANCH   8  20
HETATM   20  O   UNK N   1      22.516  18.599   6.136  0.00  0.00    -0.391 OA
HETATM   21  H   UNK N   1      22.798  19.449   6.505  0.00  0.00     0.210 HD
ENDBRANCH   8  20
ENDBRANCH   7   8
BRANCH   7  22
HETATM   22  O   UNK N   1      20.165  16.753   4.068  0.00  0.00    -0.385 OA
HETATM   23  C   UNK N   1      20.150  15.446   3.553  0.00  0.00     0.202 C 
ENDBRANCH   7  22
ENDBRANCH   5   7
BRANCH   4  24
HETATM   24  N   UNK N   1      22.505  14.378   6.184  0.00  0.00    -0.365 N 
HETATM   25  C   UNK N   1      23.744  14.326   5.820  0.00  0.00     0.107 C 
HETATM   26  C   UNK N   1      24.749  15.344   6.255  0.00  0.00     0.097 C 
ATOM     27  HN  UNK N   1      21.885  13.661   5.807  1.00  0.00     0.161 HD
BRANCH  25  28
HETATM   28  O   UNK N   1      24.141  13.341   4.994  0.00  0.00    -0.350 OA
HETATM   29  H   UNK N   1      23.741  12.504   4.861  0.00  0.00     0.219 HD
ENDBRANCH  25  28
ENDBRANCH   4  24
BRANCH   2  30
HETATM   30  N   UNK N   1      22.245  14.065   9.173  0.00  0.00    -0.217 N 
HETATM   31  C   UNK N   1      22.067  13.165  10.267  0.00  0.00     0.665 C 
HETATM   32  N   UNK N   1      23.087  12.822  10.961  0.00  0.00    -0.235 N 
HETATM   33  N   UNK N   1      20.818  12.562  10.540  0.00  0.00    -0.235 N 
HETATM   34  H   UNK N   1      23.067  12.123  11.654  0.00  0.00     0.174 HD
ATOM     35  HN  UNK N   1      23.969  13.300  10.786  1.00  0.00     0.174 HD
HETATM   36  H   UNK N   1      19.983  13.033  10.313  0.00  0.00     0.174 HD
HETATM   37  H   UNK N   1      20.783  11.670  10.955  0.00  0.00     0.174 HD
HETATM   38  H   UNK N   1      23.174  14.333   8.987  0.00  0.00     0.178 HD
ENDBRANCH   2  30
BRANCH   3  39
HETATM   39  C   UNK N   1      18.887  17.567   9.192  0.00  0.00     0.200 C 
HETATM   40  O   UNK N   1      17.752  17.205   9.458  0.00  0.00    -0.645 OA
BRANCH  39  41
HETATM   41  O   UNK N   1      19.299  18.793   9.568  0.00  0.00    -0.771 OA
HETATM   42  H   UNK N   1      20.158  19.115   9.374  0.00  0.00     0.167 HD
ENDBRANCH  39  41
ENDBRANCH   3  39
TORSDOF 18
ENDMDL
MODEL 2
REMARK VINA RESULT:      -6.4      2.913      7.453
REMARK  18 active torsions:
REMARK  status: ('A' for Active; 'I' for Inactive)
REMARK    1  A    between atoms: C_5  and  C_4 
REMARK    2  A    between atoms: C_6  and  C_5 
REMARK    3  A    between atoms: C_7  and  C_6 
REMARK    4  A    between atoms: C_8  and  C_7 
REMARK    5  A    between atoms: C_9  and  C_8 
REMARK    6  A    between atoms: C_16  and  C_9 
REMARK    7  A    between atoms: C_14  and  C_11 
REMARK    8  A    between atoms: O_34  and  C_11 
REMARK    9  A    between atoms: O_28  and  C_12 
REMARK   10  A    between atoms: C_13  and  N_27 
REMARK   11  A    between atoms: C_18  and  C_14 
REMARK   12  A    between atoms: C_14  and  O_29 
REMARK   13  A    between atoms: C_20  and  C_15 
REMARK   14  A    between atoms: O_34  and  C_16 
REMARK   15  A    between atoms: C_17  and  N_25 
REMARK   16  A    between atoms: C_19  and  C_18 
REMARK   17  A    between atoms: C_18  and  O_33 
REMARK   18  A    between atoms: O_32  and  C_20 
REMARK       I    between atoms: N_24  and  C_21 
REMARK       I    between atoms: N_27  and  C_21 
ROOT
HETATM    1  C   UNK N   1      23.108  20.335   2.711  0.00  0.00     0.044 C 
HETATM    2  C   UNK N   1      23.997  19.620   3.706  0.00  0.00     0.150 C 
HETATM    3  C   UNK N   1      21.885  19.875   2.401  0.00  0.00     0.141 C 
HETATM    4  C   UNK N   1      23.496  18.166   3.990  0.00  0.00     0.142 C 
HETATM    5  C   UNK N   1      21.959  18.245   4.170  0.00  0.00     0.185 C 
HETATM    6  O   UNK N   1      21.400  18.767   3.014  0.00  0.00    -0.335 OA
ENDROOT
BRANCH   5   7
HETATM    7  C   UNK N   1      21.230  16.920   4.530  0.00  0.00     0.183 C 
BRANCH   7   8
HETATM    8  C   UNK N   1      21.128  16.816   6.071  0.00  0.00     0.174 C 
BRANCH   8   9
HETATM    9  C   UNK N   1      19.811  16.237   6.556  0.00  0.00     0.213 C 
BRANCH   9  10
HETATM   10  O   UNK N   1      19.955  15.116   7.336  0.00  0.00    -0.319 OA
BRANCH  10  11
HETATM   11  C   UNK N   1      19.969  15.208   8.685  0.00  0.00     0.258 C 
HETATM   12  O   UNK N   1      18.989  15.604   9.297  0.00  0.00    -0.265 OA
BRANCH  11  13
HETATM   13  C   UNK N   1      21.098  14.575   9.428  0.00  0.00     0.111 C 
BRANCH  13  14
HETATM   14  C   UNK N   1      20.584  13.323  10.140  0.00  0.00     0.010 C 
BRANCH  14  15
HETATM   15  C   UNK N   1      21.718  12.573  10.833  0.00  0.00     0.000 C 
BRANCH  15  16
HETATM   16  C   UNK N   1      23.019  12.717  10.063  0.00  0.00     0.000 C 
BRANCH  16  17
HETATM   17  C   UNK N   1      23.102  11.659   8.980  0.00  0.00    -0.000 C 
BRANCH  17  18
HETATM   18  C   UNK N   1      24.274  11.942   8.062  0.00  0.00    -0.005 C 
HETATM   19  C   UNK N   1      24.659  13.400   8.177  0.00  0.00     0.005 C 
ENDBRANCH  17  18
ENDBRANCH  16  17
ENDBRANCH  15  16
ENDBRANCH  14  15
ENDBRANCH  13  14
ENDBRANCH  11  13
ENDBRANCH  10  11
ENDBRANCH   9  10
ENDBRANCH   8   9
BRANCH   8  20
HETATM   20  O   UNK N   1      21.363  18.050   6.686  0.00  0.00    -0.391 OA
HETATM   21  H   UNK N   1      21.367  18.916   6.251  0.00  0.00     0.210 HD
ENDBRANCH   8  20
ENDBRANCH   7   8
BRANCH   7  22
HETATM   22  O   UNK N   1      21.997  15.820   4.069  0.00  0.00    -0.385 OA
HETATM   23  C   UNK N   1      21.298  15.158   3.046  0.00  0.00     0.202 C 
ENDBRANCH   7  22
ENDBRANCH   5   7
BRANCH   4  24
HETATM   24  N   UNK N   1      24.097  17.660   5.217  0.00  0.00    -0.365 N 
HETATM   25  C   UNK N   1      25.011  16.750   5.306  0.00  0.00     0.107 C 
HETATM   26  C   UNK N   1      25.550  16.038   4.106  0.00  0.00     0.097 C 
ATOM     27  HN  UNK N   1      23.765  18.064   6.093  1.00  0.00     0.161 HD
BRANCH  25  28
HETATM   28  O   UNK N   1      25.473  16.405   6.521  0.00  0.00    -0.350 OA
HETATM   29  H   UNK N   1      25.031  16.467   7.345  0.00  0.00     0.219 HD
ENDBRANCH  25  28
ENDBRANCH   4  24
BRANCH   2  30
HETATM   30  N   UNK N   1      25.403  19.611   3.324  0.00  0.00    -0.217 N 
HETATM   31  C   UNK N   1      26.540  19.988   4.102  0.00  0.00     0.665 C 
HETATM   32  N   UNK N   1      27.699  19.968   3.559  0.00  0.00    -0.235 N 
HETATM   33  N   UNK N   1      26.435  20.280   5.482  0.00  0.00    -0.235 N 
HETATM   34  H   UNK N   1      28.539  20.101   4.055  0.00  0.00     0.174 HD
ATOM     35  HN  UNK N   1      27.755  19.804   2.554  1.00  0.00     0.174 HD
HETATM   36  H   UNK N   1      25.602  20.661   5.842  0.00  0.00     0.174 HD
HETATM   37  H   UNK N   1      27.195  20.102   6.081  0.00  0.00     0.174 HD
HETATM   38  H   UNK N   1      25.595  19.305   2.409  0.00  0.00     0.178 HD
ENDBRANCH   2  30
BRANCH   3  39
HETATM   39  C   UNK N   1      21.055  20.568   1.398  0.00  0.00     0.200 C 
HETATM   40  O   UNK N   1      20.705  21.725   1.569  0.00  0.00    -0.645 OA
BRANCH  39  41
HETATM   41  O   UNK N   1      20.668  19.915   0.285  0.00  0.00    -0.771 OA
HETATM   42  H   UNK N   1      20.368  19.027   0.303  0.00  0.00     0.167 HD
ENDBRANCH  39  41
ENDBRANCH   3  39
TORSDOF 18
ENDMDL
MODEL 3
REMARK VINA RESULT:      -6.3      1.181      2.211
REMARK  18 active torsions:
REMARK  status: ('A' for Active; 'I' for Inactive)
REMARK    1  A    between atoms: C_5  and  C_4 
REMARK    2  A    between atoms: C_6  and  C_5 
REMARK    3  A    between atoms: C_7  and  C_6 
REMARK    4  A    between atoms: C_8  and  C_7 
REMARK    5  A    between atoms: C_9  and  C_8 
REMARK    6  A    between atoms: C_16  and  C_9 
REMARK    7  A    between atoms: C_14  and  C_11 
REMARK    8  A    between atoms: O_34  and  C_11 
REMARK    9  A    between atoms: O_28  and  C_12 
REMARK   10  A    between atoms: C_13  and  N_27 
REMARK   11  A    between atoms: C_18  and  C_14 
REMARK   12  A    between atoms: C_14  and  O_29 
REMARK   13  A    between atoms: C_20  and  C_15 
REMARK   14  A    between atoms: O_34  and  C_16 
REMARK   15  A    between atoms: C_17  and  N_25 
REMARK   16  A    between atoms: C_19  and  C_18 
REMARK   17  A    between atoms: C_18  and  O_33 
REMARK   18  A    between atoms: O_32  and  C_20 
REMARK       I    between atoms: N_24  and  C_21 
REMARK       I    between atoms: N_27  and  C_21 
ROOT
HETATM    1  C   UNK N   1      20.459  15.864   8.998  0.00  0.00     0.044 C 
HETATM    2  C   UNK N   1      21.231  14.781   8.275  0.00  0.00     0.150 C 
HETATM    3  C   UNK N   1      20.158  17.030   8.405  0.00  0.00     0.141 C 
HETATM    4  C   UNK N   1      21.927  15.328   6.986  0.00  0.00     0.142 C 
HETATM    5  C   UNK N   1      20.892  16.224   6.260  0.00  0.00     0.185 C 
HETATM    6  O   UNK N   1      20.509  17.247   7.115  0.00  0.00    -0.335 OA
ENDROOT
BRANCH   5   7
HETATM    7  C   UNK N   1      21.333  16.839   4.902  0.00  0.00     0.183 C 
BRANCH   7   8
HETATM    8  C   UNK N   1      21.801  18.294   5.149  0.00  0.00     0.174 C 
BRANCH   8   9
HETATM    9  C   UNK N   1      21.923  19.118   3.879  0.00  0.00     0.213 C 
BRANCH   9  10
HETATM   10  O   UNK N   1      23.213  19.244   3.425  0.00  0.00    -0.319 OA
BRANCH  10  11
HETATM   11  C   UNK N   1      23.673  20.430   2.967  0.00  0.00     0.258 C 
HETATM   12  O   UNK N   1      22.955  21.419   2.953  0.00  0.00    -0.265 OA
BRANCH  11  13
HETATM   13  C   UNK N   1      25.137  20.577   2.724  0.00  0.00     0.111 C 
BRANCH  13  14
HETATM   14  C   UNK N   1      25.889  20.284   4.023  0.00  0.00     0.010 C 
BRANCH  14  15
HETATM   15  C   UNK N   1      26.930  19.185   3.828  0.00  0.00     0.000 C 
BRANCH  15  16
HETATM   16  C   UNK N   1      26.383  17.834   4.253  0.00  0.00     0.000 C 
BRANCH  16  17
HETATM   17  C   UNK N   1      25.984  17.028   3.033  0.00  0.00    -0.000 C 
BRANCH  17  18
HETATM   18  C   UNK N   1      26.328  15.566   3.236  0.00  0.00    -0.005 C 
HETATM   19  C   UNK N   1      27.116  15.068   2.045  0.00  0.00     0.005 C 
ENDBRANCH  17  18
ENDBRANCH  16  17
ENDBRANCH  15  16
ENDBRANCH  14  15
ENDBRANCH  13  14
ENDBRANCH  11  13
ENDBRANCH  10  11
ENDBRANCH   9  10
ENDBRANCH   8   9
BRANCH   8  20
HETATM   20  O   UNK N   1      23.003  18.334   5.862  0.00  0.00    -0.391 OA
HETATM   21  H   UNK N   1      23.098  18.444   6.820  0.00  0.00     0.210 HD
ENDBRANCH   8  20
ENDBRANCH   7   8
BRANCH   7  22
HETATM   22  O   UNK N   1      20.222  16.883   4.022  0.00  0.00    -0.385 OA
HETATM   23  C   UNK N   1      19.514  15.671   4.102  0.00  0.00     0.202 C 
ENDBRANCH   7  22
ENDBRANCH   5   7
BRANCH   4  24
HETATM   24  N   UNK N   1      22.302  14.224   6.112  0.00  0.00    -0.365 N 
HETATM   25  C   UNK N   1      23.503  13.829   5.847  0.00  0.00     0.107 C 
HETATM   26  C   UNK N   1      24.712  14.522   6.391  0.00  0.00     0.097 C 
ATOM     27  HN  UNK N   1      21.540  13.712   5.666  1.00  0.00     0.161 HD
BRANCH  25  28
HETATM   28  O   UNK N   1      23.679  12.778   5.026  0.00  0.00    -0.350 OA
HETATM   29  H   UNK N   1      23.200  11.972   5.011  0.00  0.00     0.219 HD
ENDBRANCH  25  28
ENDBRANCH   4  24
BRANCH   2  30
HETATM   30  N   UNK N   1      22.195  14.091   9.123  0.00  0.00    -0.217 N 
HETATM   31  C   UNK N   1      21.947  13.253  10.253  0.00  0.00     0.665 C 
HETATM   32  N   UNK N   1      22.943  12.786  10.910  0.00  0.00    -0.235 N 
HETATM   33  N   UNK N   1      20.641  12.841  10.604  0.00  0.00    -0.235 N 
HETATM   34  H   UNK N   1      22.860  12.115  11.624  0.00  0.00     0.174 HD
ATOM     35  HN  UNK N   1      23.874  13.130  10.678  1.00  0.00     0.174 HD
HETATM   36  H   UNK N   1      19.871  13.420  10.401  0.00  0.00     0.174 HD
HETATM   37  H   UNK N   1      20.503  11.974  11.049  0.00  0.00     0.174 HD
HETATM   38  H   UNK N   1      23.141  14.219   8.886  0.00  0.00     0.178 HD
ENDBRANCH   2  30
BRANCH   3  39
HETATM   39  C   UNK N   1      19.440  18.085   9.147  0.00  0.00     0.200 C 
HETATM   40  O   UNK N   1      20.050  18.999   9.677  0.00  0.00    -0.645 OA
BRANCH  39  41
HETATM   41  O   UNK N   1      18.098  18.033   9.251  0.00  0.00    -0.771 OA
HETATM   42  H   UNK N   1      17.666  17.725  10.023  0.00  0.00     0.167 HD
ENDBRANCH  39  41
ENDBRANCH   3  39
TORSDOF 18
ENDMDL
MODEL 4
REMARK VINA RESULT:      -6.1      3.223      5.773
REMARK  18 active torsions:
REMARK  status: ('A' for Active; 'I' for Inactive)
REMARK    1  A    between atoms: C_5  and  C_4 
REMARK    2  A    between atoms: C_6  and  C_5 
REMARK    3  A    between atoms: C_7  and  C_6 
REMARK    4  A    between atoms: C_8  and  C_7 
REMARK    5  A    between atoms: C_9  and  C_8 
REMARK    6  A    between atoms: C_16  and  C_9 
REMARK    7  A    between atoms: C_14  and  C_11 
REMARK    8  A    between atoms: O_34  and  C_11 
REMARK    9  A    between atoms: O_28  and  C_12 
REMARK   10  A    between atoms: C_13  and  N_27 
REMARK   11  A    between atoms: C_18  and  C_14 
REMARK   12  A    between atoms: C_14  and  O_29 
REMARK   13  A    between atoms: C_20  and  C_15 
REMARK   14  A    between atoms: O_34  and  C_16 
REMARK   15  A    between atoms: C_17  and  N_25 
REMARK   16  A    between atoms: C_19  and  C_18 
REMARK   17  A    between atoms: C_18  and  O_33 
REMARK   18  A    between atoms: O_32  and  C_20 
REMARK       I    between atoms: N_24  and  C_21 
REMARK       I    between atoms: N_27  and  C_21 
ROOT
HETATM    1  C   UNK N   1      20.439  17.952   1.111  0.00  0.00     0.044 C 
HETATM    2  C   UNK N   1      20.417  16.549   1.680  0.00  0.00     0.150 C 
HETATM    3  C   UNK N   1      20.899  18.994   1.823  0.00  0.00     0.141 C 
HETATM    4  C   UNK N   1      20.607  16.551   3.232  0.00  0.00     0.142 C 
HETATM    5  C   UNK N   1      21.752  17.548   3.546  0.00  0.00     0.185 C 
HETATM    6  O   UNK N   1      21.397  18.800   3.068  0.00  0.00    -0.335 OA
ENDROOT
BRANCH   5   7
HETATM    7  C   UNK N   1      22.174  17.678   5.037  0.00  0.00     0.183 C 
BRANCH   7   8
HETATM    8  C   UNK N   1      23.565  17.022   5.214  0.00  0.00     0.174 C 
BRANCH   8   9
HETATM    9  C   UNK N   1      24.686  17.776   4.521  0.00  0.00     0.213 C 
BRANCH   9  10
HETATM   10  O   UNK N   1      24.648  19.133   4.726  0.00  0.00    -0.319 OA
BRANCH  10  11
HETATM   11  C   UNK N   1      25.205  19.984   3.836  0.00  0.00     0.258 C 
HETATM   12  O   UNK N   1      24.510  20.628   3.063  0.00  0.00    -0.265 OA
BRANCH  11  13
HETATM   13  C   UNK N   1      26.650  20.320   3.984  0.00  0.00     0.111 C 
BRANCH  13  14
HETATM   14  C   UNK N   1      26.847  21.111   5.278  0.00  0.00     0.010 C 
BRANCH  14  15
HETATM   15  C   UNK N   1      27.521  20.262   6.352  0.00  0.00     0.000 C 
BRANCH  15  16
HETATM   16  C   UNK N   1      28.128  19.005   5.754  0.00  0.00     0.000 C 
BRANCH  16  17
HETATM   17  C   UNK N   1      28.020  17.857   6.737  0.00  0.00    -0.000 C 
BRANCH  17  18
HETATM   18  C   UNK N   1      28.963  18.078   7.903  0.00  0.00    -0.005 C 
HETATM   19  C   UNK N   1      28.197  17.934   9.200  0.00  0.00     0.005 C 
ENDBRANCH  17  18
ENDBRANCH  16  17
ENDBRANCH  15  16
ENDBRANCH  14  15
ENDBRANCH  13  14
ENDBRANCH  11  13
ENDBRANCH  10  11
ENDBRANCH   9  10
ENDBRANCH   8   9
BRANCH   8  20
HETATM   20  O   UNK N   1      23.560  15.686   4.799  0.00  0.00    -0.391 OA
HETATM   21  H   UNK N   1      24.254  15.031   4.970  0.00  0.00     0.210 HD
ENDBRANCH   8  20
ENDBRANCH   7   8
BRANCH   7  22
HETATM   22  O   UNK N   1      21.253  16.971   5.850  0.00  0.00    -0.385 OA
HETATM   23  C   UNK N   1      20.886  17.771   6.946  0.00  0.00     0.202 C 
ENDBRANCH   7  22
ENDBRANCH   5   7
BRANCH   4  24
HETATM   24  N   UNK N   1      20.990  15.222   3.692  0.00  0.00    -0.365 N 
HETATM   25  C   UNK N   1      20.236  14.381   4.320  0.00  0.00     0.107 C 
HETATM   26  C   UNK N   1      18.830  14.706   4.714  0.00  0.00     0.097 C 
ATOM     27  HN  UNK N   1      21.946  14.926   3.497  1.00  0.00     0.161 HD
BRANCH  25  28
HETATM   28  O   UNK N   1      20.740  13.182   4.663  0.00  0.00    -0.350 OA
HETATM   29  H   UNK N   1      21.453  12.721   4.265  0.00  0.00     0.219 HD
ENDBRANCH  25  28
ENDBRANCH   4  24
BRANCH   2  30
HETATM   30  N   UNK N   1      19.228  15.793   1.311  0.00  0.00    -0.217 N 
HETATM   31  C   UNK N   1      19.146  14.488   0.735  0.00  0.00     0.665 C 
HETATM   32  N   UNK N   1      17.996  14.018   0.424  0.00  0.00    -0.235 N 
HETATM   33  N   UNK N   1      20.284  13.661   0.597  0.00  0.00    -0.235 N 
HETATM   34  H   UNK N   1      17.844  13.091   0.131  0.00  0.00     0.174 HD
ATOM     35  HN  UNK N   1      17.191  14.642   0.482  1.00  0.00     0.174 HD
HETATM   36  H   UNK N   1      21.172  14.064   0.465  0.00  0.00     0.174 HD
HETATM   37  H   UNK N   1      20.187  12.682   0.634  0.00  0.00     0.174 HD
HETATM   38  H   UNK N   1      18.368  16.240   1.481  0.00  0.00     0.178 HD
ENDBRANCH   2  30
BRANCH   3  39
HETATM   39  C   UNK N   1      20.871  20.358   1.259  0.00  0.00     0.200 C 
HETATM   40  O   UNK N   1      21.100  21.328   1.962  0.00  0.00    -0.645 OA
BRANCH  39  41
HETATM   41  O   UNK N   1      20.578  20.535  -0.045  0.00  0.00    -0.771 OA
HETATM   42  H   UNK N   1      19.942  20.011  -0.492  0.00  0.00     0.167 HD
ENDBRANCH  39  41
ENDBRANCH   3  39
TORSDOF 18
ENDMDL
MODEL 5
REMARK VINA RESULT:      -6.0     10.951     13.693
REMARK  18 active torsions:
REMARK  status: ('A' for Active; 'I' for Inactive)
REMARK    1  A    between atoms: C_5  and  C_4 
REMARK    2  A    between atoms: C_6  and  C_5 
REMARK    3  A    between atoms: C_7  and  C_6 
REMARK    4  A    between atoms: C_8  and  C_7 
REMARK    5  A    between atoms: C_9  and  C_8 
REMARK    6  A    between atoms: C_16  and  C_9 
REMARK    7  A    between atoms: C_14  and  C_11 
REMARK    8  A    between atoms: O_34  and  C_11 
REMARK    9  A    between atoms: O_28  and  C_12 
REMARK   10  A    between atoms: C_13  and  N_27 
REMARK   11  A    between atoms: C_18  and  C_14 
REMARK   12  A    between atoms: C_14  and  O_29 
REMARK   13  A    between atoms: C_20  and  C_15 
REMARK   14  A    between atoms: O_34  and  C_16 
REMARK   15  A    between atoms: C_17  and  N_25 
REMARK   16  A    between atoms: C_19  and  C_18 
REMARK   17  A    between atoms: C_18  and  O_33 
REMARK   18  A    between atoms: O_32  and  C_20 
REMARK       I    between atoms: N_24  and  C_21 
REMARK       I    between atoms: N_27  and  C_21 
ROOT
HETATM    1  C   UNK N   1      35.020  10.604  11.555  0.00  0.00     0.044 C 
HETATM    2  C   UNK N   1      35.889  11.199  12.641  0.00  0.00     0.150 C 
HETATM    3  C   UNK N   1      34.333  11.378  10.698  0.00  0.00     0.141 C 
HETATM    4  C   UNK N   1      35.578  12.715  12.867  0.00  0.00     0.142 C 
HETATM    5  C   UNK N   1      35.455  13.364  11.465  0.00  0.00     0.185 C 
HETATM    6  O   UNK N   1      34.441  12.727  10.766  0.00  0.00    -0.335 OA
ENDROOT
BRANCH   5   7
HETATM    7  C   UNK N   1      35.208  14.899  11.426  0.00  0.00     0.183 C 
BRANCH   7   8
HETATM    8  C   UNK N   1      34.146  15.199  10.341  0.00  0.00     0.174 C 
BRANCH   8   9
HETATM    9  C   UNK N   1      34.302  16.566   9.698  0.00  0.00     0.213 C 
BRANCH   9  10
HETATM   10  O   UNK N   1      34.730  16.518   8.394  0.00  0.00    -0.319 OA
BRANCH  10  11
HETATM   11  C   UNK N   1      33.935  16.943   7.388  0.00  0.00     0.258 C 
HETATM   12  O   UNK N   1      34.353  17.723   6.544  0.00  0.00    -0.265 OA
BRANCH  11  13
HETATM   13  C   UNK N   1      32.631  16.252   7.173  0.00  0.00     0.111 C 
BRANCH  13  14
HETATM   14  C   UNK N   1      31.498  17.269   7.327  0.00  0.00     0.010 C 
BRANCH  14  15
HETATM   15  C   UNK N   1      30.395  17.033   6.299  0.00  0.00     0.000 C 
BRANCH  15  16
HETATM   16  C   UNK N   1      29.033  17.390   6.869  0.00  0.00     0.000 C 
BRANCH  16  17
HETATM   17  C   UNK N   1      29.193  18.342   8.037  0.00  0.00    -0.000 C 
BRANCH  17  18
HETATM   18  C   UNK N   1      28.296  17.919   9.183  0.00  0.00    -0.005 C 
HETATM   19  C   UNK N   1      29.110  17.147  10.197  0.00  0.00     0.005 C 
ENDBRANCH  17  18
ENDBRANCH  16  17
ENDBRANCH  15  16
ENDBRANCH  14  15
ENDBRANCH  13  14
ENDBRANCH  11  13
ENDBRANCH  10  11
ENDBRANCH   9  10
ENDBRANCH   8   9
BRANCH   8  20
HETATM   20  O   UNK N   1      32.847  15.051  10.837  0.00  0.00    -0.391 OA
HETATM   21  H   UNK N   1      32.334  15.723  11.311  0.00  0.00     0.210 HD
ENDBRANCH   8  20
ENDBRANCH   7   8
BRANCH   7  22
HETATM   22  O   UNK N   1      36.407  15.559  11.057  0.00  0.00    -0.385 OA
HETATM   23  C   UNK N   1      37.166  14.719  10.224  0.00  0.00     0.202 C 
ENDBRANCH   7  22
ENDBRANCH   5   7
BRANCH   4  24
HETATM   24  N   UNK N   1      36.671  13.349  13.593  0.00  0.00    -0.365 N 
HETATM   25  C   UNK N   1      36.665  13.699  14.837  0.00  0.00     0.107 C 
HETATM   26  C   UNK N   1      35.460  13.535  15.708  0.00  0.00     0.097 C 
ATOM     27  HN  UNK N   1      37.527  13.532  13.068  1.00  0.00     0.161 HD
BRANCH  25  28
HETATM   28  O   UNK N   1      37.767  14.262  15.363  0.00  0.00    -0.350 OA
HETATM   29  H   UNK N   1      38.663  14.043  15.194  0.00  0.00     0.219 HD
ENDBRANCH  25  28
ENDBRANCH   4  24
BRANCH   2  30
HETATM   30  N   UNK N   1      35.823  10.470  13.901  0.00  0.00    -0.217 N 
HETATM   31  C   UNK N   1      34.712  10.321  14.786  0.00  0.00     0.665 C 
HETATM   32  N   UNK N   1      34.875   9.687  15.887  0.00  0.00    -0.235 N 
HETATM   33  N   UNK N   1      33.415  10.761  14.435  0.00  0.00    -0.235 N 
HETATM   34  H   UNK N   1      34.139   9.443  16.492  0.00  0.00     0.174 HD
ATOM     35  HN  UNK N   1      35.823   9.419  16.150  1.00  0.00     0.174 HD
HETATM   36  H   UNK N   1      33.303  11.532  13.833  0.00  0.00     0.174 HD
HETATM   37  H   UNK N   1      32.625  10.296  14.792  0.00  0.00     0.174 HD
HETATM   38  H   UNK N   1      36.653  10.022  14.179  0.00  0.00     0.178 HD
ENDBRANCH   2  30
BRANCH   3  39
HETATM   39  C   UNK N   1      33.461  10.771   9.674  0.00  0.00     0.200 C 
HETATM   40  O   UNK N   1      33.915  10.000   8.845  0.00  0.00    -0.645 OA
BRANCH  39  41
HETATM   41  O   UNK N   1      32.150  11.081   9.647  0.00  0.00    -0.771 OA
HETATM   42  H   UNK N   1      31.834  11.897   9.311  0.00  0.00     0.167 HD
ENDBRANCH  39  41
ENDBRANCH   3  39
TORSDOF 18
ENDMDL
MODEL 6
REMARK VINA RESULT:      -5.9      9.458     12.174
REMARK  18 active torsions:
REMARK  status: ('A' for Active; 'I' for Inactive)
REMARK    1  A    between atoms: C_5  and  C_4 
REMARK    2  A    between atoms: C_6  and  C_5 
REMARK    3  A    between atoms: C_7  and  C_6 
REMARK    4  A    between atoms: C_8  and  C_7 
REMARK    5  A    between atoms: C_9  and  C_8 
REMARK    6  A    between atoms: C_16  and  C_9 
REMARK    7  A    between atoms: C_14  and  C_11 
REMARK    8  A    between atoms: O_34  and  C_11 
REMARK    9  A    between atoms: O_28  and  C_12 
REMARK   10  A    between atoms: C_13  and  N_27 
REMARK   11  A    between atoms: C_18  and  C_14 
REMARK   12  A    between atoms: C_14  and  O_29 
REMARK   13  A    between atoms: C_20  and  C_15 
REMARK   14  A    between atoms: O_34  and  C_16 
REMARK   15  A    between atoms: C_17  and  N_25 
REMARK   16  A    between atoms: C_19  and  C_18 
REMARK   17  A    between atoms: C_18  and  O_33 
REMARK   18  A    between atoms: O_32  and  C_20 
REMARK       I    between atoms: N_24  and  C_21 
REMARK       I    between atoms: N_27  and  C_21 
ROOT
HETATM    1  C   UNK N   1      34.061  16.564   9.554  0.00  0.00     0.044 C 
HETATM    2  C   UNK N   1      33.865  15.237  10.255  0.00  0.00     0.150 C 
HETATM    3  C   UNK N   1      34.226  16.641   8.224  0.00  0.00     0.141 C 
HETATM    4  C   UNK N   1      34.261  14.034   9.338  0.00  0.00     0.142 C 
HETATM    5  C   UNK N   1      33.664  14.319   7.937  0.00  0.00     0.185 C 
HETATM    6  O   UNK N   1      34.178  15.518   7.467  0.00  0.00    -0.335 OA
ENDROOT
BRANCH   5   7
HETATM    7  C   UNK N   1      33.870  13.222   6.854  0.00  0.00     0.183 C 
BRANCH   7   8
HETATM    8  C   UNK N   1      33.830  13.893   5.460  0.00  0.00     0.174 C 
BRANCH   8   9
HETATM    9  C   UNK N   1      32.486  13.772   4.764  0.00  0.00     0.213 C 
BRANCH   9  10
HETATM   10  O   UNK N   1      32.447  14.370   3.530  0.00  0.00    -0.319 OA
BRANCH  10  11
HETATM   11  C   UNK N   1      32.418  15.716   3.413  0.00  0.00     0.258 C 
HETATM   12  O   UNK N   1      33.393  16.333   3.007  0.00  0.00    -0.265 OA
BRANCH  11  13
HETATM   13  C   UNK N   1      31.104  16.412   3.536  0.00  0.00     0.111 C 
BRANCH  13  14
HETATM   14  C   UNK N   1      31.187  17.435   4.669  0.00  0.00     0.010 C 
BRANCH  14  15
HETATM   15  C   UNK N   1      30.156  17.147   5.757  0.00  0.00     0.000 C 
BRANCH  15  16
HETATM   16  C   UNK N   1      30.811  16.524   6.978  0.00  0.00     0.000 C 
BRANCH  16  17
HETATM   17  C   UNK N   1      30.547  17.379   8.201  0.00  0.00    -0.000 C 
BRANCH  17  18
HETATM   18  C   UNK N   1      29.259  18.158   8.026  0.00  0.00    -0.005 C 
HETATM   19  C   UNK N   1      28.444  18.070   9.297  0.00  0.00     0.005 C 
ENDBRANCH  17  18
ENDBRANCH  16  17
ENDBRANCH  15  16
ENDBRANCH  14  15
ENDBRANCH  13  14
ENDBRANCH  11  13
ENDBRANCH  10  11
ENDBRANCH   9  10
ENDBRANCH   8   9
BRANCH   8  20
HETATM   20  O   UNK N   1      34.844  13.409   4.627  0.00  0.00    -0.391 OA
HETATM   21  H   UNK N   1      35.343  13.923   3.974  0.00  0.00     0.210 HD
ENDBRANCH   8  20
ENDBRANCH   7   8
BRANCH   7  22
HETATM   22  O   UNK N   1      32.804  12.290   6.920  0.00  0.00    -0.385 OA
HETATM   23  C   UNK N   1      33.320  10.984   6.862  0.00  0.00     0.202 C 
ENDBRANCH   7  22
ENDBRANCH   5   7
BRANCH   4  24
HETATM   24  N   UNK N   1      33.691  12.798   9.859  0.00  0.00    -0.365 N 
HETATM   25  C   UNK N   1      34.348  11.781  10.310  0.00  0.00     0.107 C 
HETATM   26  C   UNK N   1      35.843  11.727  10.304  0.00  0.00     0.097 C 
ATOM     27  HN  UNK N   1      32.673  12.730   9.870  1.00  0.00     0.161 HD
BRANCH  25  28
HETATM   28  O   UNK N   1      33.667  10.716  10.772  0.00  0.00    -0.350 OA
HETATM   29  H   UNK N   1      33.957   9.827  10.828  0.00  0.00     0.219 HD
ENDBRANCH  25  28
ENDBRANCH   4  24
BRANCH   2  30
HETATM   30  N   UNK N   1      34.554  15.152  11.537  0.00  0.00    -0.217 N 
HETATM   31  C   UNK N   1      35.958  15.175  11.796  0.00  0.00     0.665 C 
HETATM   32  N   UNK N   1      36.371  15.023  12.999  0.00  0.00    -0.235 N 
HETATM   33  N   UNK N   1      36.899  15.465  10.781  0.00  0.00    -0.235 N 
HETATM   34  H   UNK N   1      37.308  15.140  13.275  0.00  0.00     0.174 HD
ATOM     35  HN  UNK N   1      35.688  14.766  13.711  1.00  0.00     0.174 HD
HETATM   36  H   UNK N   1      36.704  15.228   9.846  0.00  0.00     0.174 HD
HETATM   37  H   UNK N   1      37.749  15.905  11.011  0.00  0.00     0.174 HD
HETATM   38  H   UNK N   1      33.975  15.067  12.328  0.00  0.00     0.178 HD
ENDBRANCH   2  30
BRANCH   3  39
HETATM   39  C   UNK N   1      34.455  17.944   7.571  0.00  0.00     0.200 C 
HETATM   40  O   UNK N   1      34.866  18.899   8.211  0.00  0.00    -0.645 OA
BRANCH  39  41
HETATM   41  O   UNK N   1      34.198  18.087   6.256  0.00  0.00    -0.771 OA
HETATM   42  H   UNK N   1      34.659  18.700   5.718  0.00  0.00     0.167 HD
ENDBRANCH  39  41
ENDBRANCH   3  39
TORSDOF 18
ENDMDL
MODEL 7
REMARK VINA RESULT:      -5.9     11.690     15.064
REMARK  18 active torsions:
REMARK  status: ('A' for Active; 'I' for Inactive)
REMARK    1  A    between atoms: C_5  and  C_4 
REMARK    2  A    between atoms: C_6  and  C_5 
REMARK    3  A    between atoms: C_7  and  C_6 
REMARK    4  A    between atoms: C_8  and  C_7 
REMARK    5  A    between atoms: C_9  and  C_8 
REMARK    6  A    between atoms: C_16  and  C_9 
REMARK    7  A    between atoms: C_14  and  C_11 
REMARK    8  A    between atoms: O_34  and  C_11 
REMARK    9  A    between atoms: O_28  and  C_12 
REMARK   10  A    between atoms: C_13  and  N_27 
REMARK   11  A    between atoms: C_18  and  C_14 
REMARK   12  A    between atoms: C_14  and  O_29 
REMARK   13  A    between atoms: C_20  and  C_15 
REMARK   14  A    between atoms: O_34  and  C_16 
REMARK   15  A    between atoms: C_17  and  N_25 
REMARK   16  A    between atoms: C_19  and  C_18 
REMARK   17  A    between atoms: C_18  and  O_33 
REMARK   18  A    between atoms: O_32  and  C_20 
REMARK       I    between atoms: N_24  and  C_21 
REMARK       I    between atoms: N_27  and  C_21 
ROOT
HETATM    1  C   UNK N   1      34.327  16.227   6.810  0.00  0.00     0.044 C 
HETATM    2  C   UNK N   1      34.559  14.746   6.600  0.00  0.00     0.150 C 
HETATM    3  C   UNK N   1      34.562  16.817   7.994  0.00  0.00     0.141 C 
HETATM    4  C   UNK N   1      34.706  13.985   7.958  0.00  0.00     0.142 C 
HETATM    5  C   UNK N   1      35.632  14.842   8.859  0.00  0.00     0.185 C 
HETATM    6  O   UNK N   1      35.057  16.093   9.027  0.00  0.00    -0.335 OA
ENDROOT
BRANCH   5   7
HETATM    7  C   UNK N   1      35.985  14.257  10.255  0.00  0.00     0.183 C 
BRANCH   7   8
HETATM    8  C   UNK N   1      35.175  15.022  11.329  0.00  0.00     0.174 C 
BRANCH   8   9
HETATM    9  C   UNK N   1      35.845  15.050  12.691  0.00  0.00     0.213 C 
BRANCH   9  10
HETATM   10  O   UNK N   1      35.406  14.066  13.542  0.00  0.00    -0.319 OA
BRANCH  10  11
HETATM   11  C   UNK N   1      36.256  13.126  14.011  0.00  0.00     0.258 C 
HETATM   12  O   UNK N   1      37.066  12.587  13.271  0.00  0.00    -0.265 OA
BRANCH  11  13
HETATM   13  C   UNK N   1      36.369  12.944  15.487  0.00  0.00     0.111 C 
BRANCH  13  14
HETATM   14  C   UNK N   1      34.994  12.584  16.051  0.00  0.00     0.010 C 
BRANCH  14  15
HETATM   15  C   UNK N   1      34.768  11.075  16.050  0.00  0.00     0.000 C 
BRANCH  15  16
HETATM   16  C   UNK N   1      33.784  10.671  14.966  0.00  0.00     0.000 C 
BRANCH  16  17
HETATM   17  C   UNK N   1      34.496   9.882  13.886  0.00  0.00    -0.000 C 
BRANCH  17  18
HETATM   18  C   UNK N   1      34.014  10.318  12.517  0.00  0.00    -0.005 C 
HETATM   19  C   UNK N   1      34.169   9.171  11.543  0.00  0.00     0.005 C 
ENDBRANCH  17  18
ENDBRANCH  16  17
ENDBRANCH  15  16
ENDBRANCH  14  15
ENDBRANCH  13  14
ENDBRANCH  11  13
ENDBRANCH  10  11
ENDBRANCH   9  10
ENDBRANCH   8   9
BRANCH   8  20
HETATM   20  O   UNK N   1      33.874  14.522  11.446  0.00  0.00    -0.391 OA
HETATM   21  H   UNK N   1      33.197  14.515  10.752  0.00  0.00     0.210 HD
ENDBRANCH   8  20
ENDBRANCH   7   8
BRANCH   7  22
HETATM   22  O   UNK N   1      37.362  14.465  10.518  0.00  0.00    -0.385 OA
HETATM   23  C   UNK N   1      38.110  13.419   9.950  0.00  0.00     0.202 C 
ENDBRANCH   7  22
ENDBRANCH   5   7
BRANCH   4  24
HETATM   24  N   UNK N   1      35.324  12.683   7.739  0.00  0.00    -0.365 N 
HETATM   25  C   UNK N   1      34.801  11.532   8.004  0.00  0.00     0.107 C 
HETATM   26  C   UNK N   1      33.457  11.392   8.644  0.00  0.00     0.097 C 
ATOM     27  HN  UNK N   1      36.261  12.681   7.335  1.00  0.00     0.161 HD
BRANCH  25  28
HETATM   28  O   UNK N   1      35.501  10.417   7.725  0.00  0.00    -0.350 OA
HETATM   29  H   UNK N   1      35.283   9.737   7.118  0.00  0.00     0.219 HD
ENDBRANCH  25  28
ENDBRANCH   4  24
BRANCH   2  30
HETATM   30  N   UNK N   1      33.545  14.113   5.766  0.00  0.00    -0.217 N 
HETATM   31  C   UNK N   1      32.160  13.913   6.047  0.00  0.00     0.665 C 
HETATM   32  N   UNK N   1      31.441  13.273   5.202  0.00  0.00    -0.235 N 
HETATM   33  N   UNK N   1      31.537  14.489   7.178  0.00  0.00    -0.235 N 
HETATM   34  H   UNK N   1      30.462  13.193   5.266  0.00  0.00     0.174 HD
ATOM     35  HN  UNK N   1      31.910  12.822   4.418  1.00  0.00     0.174 HD
HETATM   36  H   UNK N   1      32.057  14.650   7.998  0.00  0.00     0.174 HD
HETATM   37  H   UNK N   1      30.584  14.731   7.145  0.00  0.00     0.174 HD
HETATM   38  H   UNK N   1      33.857  13.780   4.894  0.00  0.00     0.178 HD
ENDBRANCH   2  30
BRANCH   3  39
HETATM   39  C   UNK N   1      34.288  18.254   8.182  0.00  0.00     0.200 C 
HETATM   40  O   UNK N   1      35.201  19.046   8.351  0.00  0.00    -0.645 OA
BRANCH  39  41
HETATM   41  O   UNK N   1      33.016  18.698   8.180  0.00  0.00    -0.771 OA
HETATM   42  H   UNK N   1      32.802  19.610   8.218  0.00  0.00     0.167 HD
ENDBRANCH  39  41
ENDBRANCH   3  39
TORSDOF 18
ENDMDL
MODEL 8
REMARK VINA RESULT:      -5.8      2.892      4.654
REMARK  18 active torsions:
REMARK  status: ('A' for Active; 'I' for Inactive)
REMARK    1  A    between atoms: C_5  and  C_4 
REMARK    2  A    between atoms: C_6  and  C_5 
REMARK    3  A    between atoms: C_7  and  C_6 
REMARK    4  A    between atoms: C_8  and  C_7 
REMARK    5  A    between atoms: C_9  and  C_8 
REMARK    6  A    between atoms: C_16  and  C_9 
REMARK    7  A    between atoms: C_14  and  C_11 
REMARK    8  A    between atoms: O_34  and  C_11 
REMARK    9  A    between atoms: O_28  and  C_12 
REMARK   10  A    between atoms: C_13  and  N_27 
REMARK   11  A    between atoms: C_18  and  C_14 
REMARK   12  A    between atoms: C_14  and  O_29 
REMARK   13  A    between atoms: C_20  and  C_15 
REMARK   14  A    between atoms: O_34  and  C_16 
REMARK   15  A    between atoms: C_17  and  N_25 
REMARK   16  A    between atoms: C_19  and  C_18 
REMARK   17  A    between atoms: C_18  and  O_33 
REMARK   18  A    between atoms: O_32  and  C_20 
REMARK       I    between atoms: N_24  and  C_21 
REMARK       I    between atoms: N_27  and  C_21 
ROOT
HETATM    1  C   UNK N   1      20.983  14.922   9.465  0.00  0.00     0.044 C 
HETATM    2  C   UNK N   1      20.684  15.960   8.405  0.00  0.00     0.150 C 
HETATM    3  C   UNK N   1      21.894  13.954   9.267  0.00  0.00     0.141 C 
HETATM    4  C   UNK N   1      21.242  15.537   7.006  0.00  0.00     0.142 C 
HETATM    5  C   UNK N   1      22.672  14.988   7.238  0.00  0.00     0.185 C 
HETATM    6  O   UNK N   1      22.602  13.914   8.112  0.00  0.00    -0.335 OA
ENDROOT
BRANCH   5   7
HETATM    7  C   UNK N   1      23.467  14.558   5.973  0.00  0.00     0.183 C 
BRANCH   7   8
HETATM    8  C   UNK N   1      24.624  15.562   5.753  0.00  0.00     0.174 C 
BRANCH   8   9
HETATM    9  C   UNK N   1      25.783  15.376   6.717  0.00  0.00     0.213 C 
BRANCH   9  10
HETATM   10  O   UNK N   1      27.016  15.461   6.120  0.00  0.00    -0.319 OA
BRANCH  10  11
HETATM   11  C   UNK N   1      27.841  16.500   6.378  0.00  0.00     0.258 C 
HETATM   12  O   UNK N   1      27.779  17.102   7.440  0.00  0.00    -0.265 OA
BRANCH  11  13
HETATM   13  C   UNK N   1      28.995  16.735   5.463  0.00  0.00     0.111 C 
BRANCH  13  14
HETATM   14  C   UNK N   1      28.902  18.154   4.899  0.00  0.00     0.010 C 
BRANCH  14  15
HETATM   15  C   UNK N   1      27.558  18.395   4.217  0.00  0.00     0.000 C 
BRANCH  15  16
HETATM   16  C   UNK N   1      27.349  19.872   3.929  0.00  0.00     0.000 C 
BRANCH  16  17
HETATM   17  C   UNK N   1      26.065  20.350   4.577  0.00  0.00    -0.000 C 
BRANCH  17  18
HETATM   18  C   UNK N   1      26.283  20.587   6.058  0.00  0.00    -0.005 C 
HETATM   19  C   UNK N   1      27.420  21.566   6.246  0.00  0.00     0.005 C 
ENDBRANCH  17  18
ENDBRANCH  16  17
ENDBRANCH  15  16
ENDBRANCH  14  15
ENDBRANCH  13  14
ENDBRANCH  11  13
ENDBRANCH  10  11
ENDBRANCH   9  10
ENDBRANCH   8   9
BRANCH   8  20
HETATM   20  O   UNK N   1      24.173  16.885   5.800  0.00  0.00    -0.391 OA
HETATM   21  H   UNK N   1      24.055  17.423   6.597  0.00  0.00     0.210 HD
ENDBRANCH   8  20
ENDBRANCH   7   8
BRANCH   7  22
HETATM   22  O   UNK N   1      22.618  14.618   4.840  0.00  0.00    -0.385 OA
HETATM   23  C   UNK N   1      23.072  13.714   3.864  0.00  0.00     0.202 C 
ENDBRANCH   7  22
ENDBRANCH   5   7
BRANCH   4  24
HETATM   24  N   UNK N   1      21.310  16.695   6.123  0.00  0.00    -0.365 N 
HETATM   25  C   UNK N   1      20.498  16.972   5.158  0.00  0.00     0.107 C 
HETATM   26  C   UNK N   1      19.366  16.070   4.781  0.00  0.00     0.097 C 
ATOM     27  HN  UNK N   1      22.075  17.351   6.284  1.00  0.00     0.161 HD
BRANCH  25  28
HETATM   28  O   UNK N   1      20.692  18.095   4.443  0.00  0.00    -0.350 OA
HETATM   29  H   UNK N   1      20.701  18.190   3.511  0.00  0.00     0.219 HD
ENDBRANCH  25  28
ENDBRANCH   4  24
BRANCH   2  30
HETATM   30  N   UNK N   1      19.270  16.301   8.310  0.00  0.00    -0.217 N 
HETATM   31  C   UNK N   1      18.587  17.427   8.863  0.00  0.00     0.665 C 
HETATM   32  N   UNK N   1      17.318  17.515   8.719  0.00  0.00    -0.235 N 
HETATM   33  N   UNK N   1      19.283  18.496   9.471  0.00  0.00    -0.235 N 
HETATM   34  H   UNK N   1      16.792  18.308   8.968  0.00  0.00     0.174 HD
ATOM     35  HN  UNK N   1      16.823  16.715   8.323  1.00  0.00     0.174 HD
HETATM   36  H   UNK N   1      20.142  18.331   9.924  0.00  0.00     0.174 HD
HETATM   37  H   UNK N   1      18.909  19.406   9.442  0.00  0.00     0.174 HD
HETATM   38  H   UNK N   1      18.713  15.672   7.798  0.00  0.00     0.178 HD
ENDBRANCH   2  30
BRANCH   3  39
HETATM   39  C   UNK N   1      22.137  12.930  10.301  0.00  0.00     0.200 C 
HETATM   40  O   UNK N   1      21.241  12.186  10.664  0.00  0.00    -0.645 OA
BRANCH  39  41
HETATM   41  O   UNK N   1      23.358  12.823  10.861  0.00  0.00    -0.771 OA
HETATM   42  H   UNK N   1      23.478  12.669  11.777  0.00  0.00     0.167 HD
ENDBRANCH  39  41
ENDBRANCH   3  39
TORSDOF 18
ENDMDL
MODEL 9
REMARK VINA RESULT:      -5.7      2.786      4.276
REMARK  18 active torsions:
REMARK  status: ('A' for Active; 'I' for Inactive)
REMARK    1  A    between atoms: C_5  and  C_4 
REMARK    2  A    between atoms: C_6  and  C_5 
REMARK    3  A    between atoms: C_7  and  C_6 
REMARK    4  A    between atoms: C_8  and  C_7 
REMARK    5  A    between atoms: C_9  and  C_8 
REMARK    6  A    between atoms: C_16  and  C_9 
REMARK    7  A    between atoms: C_14  and  C_11 
REMARK    8  A    between atoms: O_34  and  C_11 
REMARK    9  A    between atoms: O_28  and  C_12 
REMARK   10  A    between atoms: C_13  and  N_27 
REMARK   11  A    between atoms: C_18  and  C_14 
REMARK   12  A    between atoms: C_14  and  O_29 
REMARK   13  A    between atoms: C_20  and  C_15 
REMARK   14  A    between atoms: O_34  and  C_16 
REMARK   15  A    between atoms: C_17  and  N_25 
REMARK   16  A    between atoms: C_19  and  C_18 
REMARK   17  A    between atoms: C_18  and  O_33 
REMARK   18  A    between atoms: O_32  and  C_20 
REMARK       I    between atoms: N_24  and  C_21 
REMARK       I    between atoms: N_27  and  C_21 
ROOT
HETATM    1  C   UNK N   1      20.891  14.562   9.539  0.00  0.00     0.044 C 
HETATM    2  C   UNK N   1      20.711  15.761   8.634  0.00  0.00     0.150 C 
HETATM    3  C   UNK N   1      21.752  13.575   9.240  0.00  0.00     0.141 C 
HETATM    4  C   UNK N   1      21.317  15.511   7.214  0.00  0.00     0.142 C 
HETATM    5  C   UNK N   1      22.698  14.840   7.424  0.00  0.00     0.185 C 
HETATM    6  O   UNK N   1      22.517  13.657   8.125  0.00  0.00    -0.335 OA
ENDROOT
BRANCH   5   7
HETATM    7  C   UNK N   1      23.533  14.548   6.146  0.00  0.00     0.183 C 
BRANCH   7   8
HETATM    8  C   UNK N   1      24.668  15.596   6.049  0.00  0.00     0.174 C 
BRANCH   8   9
HETATM    9  C   UNK N   1      24.502  16.566   4.893  0.00  0.00     0.213 C 
BRANCH   9  10
HETATM   10  O   UNK N   1      24.247  17.856   5.287  0.00  0.00    -0.319 OA
BRANCH  10  11
HETATM   11  C   UNK N   1      24.454  18.892   4.443  0.00  0.00     0.258 C 
HETATM   12  O   UNK N   1      23.670  19.128   3.536  0.00  0.00    -0.265 OA
BRANCH  11  13
HETATM   13  C   UNK N   1      25.504  19.893   4.792  0.00  0.00     0.111 C 
BRANCH  13  14
HETATM   14  C   UNK N   1      26.880  19.244   4.637  0.00  0.00     0.010 C 
BRANCH  14  15
HETATM   15  C   UNK N   1      27.658  19.269   5.950  0.00  0.00     0.000 C 
BRANCH  15  16
HETATM   16  C   UNK N   1      27.873  17.864   6.484  0.00  0.00     0.000 C 
BRANCH  16  17
HETATM   17  C   UNK N   1      28.992  17.862   7.506  0.00  0.00    -0.000 C 
BRANCH  17  18
HETATM   18  C   UNK N   1      28.469  18.319   8.853  0.00  0.00    -0.005 C 
HETATM   19  C   UNK N   1      29.637  18.650   9.756  0.00  0.00     0.005 C 
ENDBRANCH  17  18
ENDBRANCH  16  17
ENDBRANCH  15  16
ENDBRANCH  14  15
ENDBRANCH  13  14
ENDBRANCH  11  13
ENDBRANCH  10  11
ENDBRANCH   9  10
ENDBRANCH   8   9
BRANCH   8  20
HETATM   20  O   UNK N   1      25.926  14.988   5.987  0.00  0.00    -0.391 OA
HETATM   21  H   UNK N   1      26.160  14.207   5.463  0.00  0.00     0.210 HD
ENDBRANCH   8  20
ENDBRANCH   7   8
BRANCH   7  22
HETATM   22  O   UNK N   1      22.708  14.691   5.002  0.00  0.00    -0.385 OA
HETATM   23  C   UNK N   1      22.548  13.440   4.381  0.00  0.00     0.202 C 
ENDBRANCH   7  22
ENDBRANCH   5   7
BRANCH   4  24
HETATM   24  N   UNK N   1      21.501  16.778   6.518  0.00  0.00    -0.365 N 
HETATM   25  C   UNK N   1      20.805  17.214   5.521  0.00  0.00     0.107 C 
HETATM   26  C   UNK N   1      19.707  16.410   4.900  0.00  0.00     0.097 C 
ATOM     27  HN  UNK N   1      22.254  17.381   6.851  1.00  0.00     0.161 HD
BRANCH  25  28
HETATM   28  O   UNK N   1      21.095  18.419   4.998  0.00  0.00    -0.350 OA
HETATM   29  H   UNK N   1      20.514  19.016   4.569  0.00  0.00     0.219 HD
ENDBRANCH  25  28
ENDBRANCH   4  24
BRANCH   2  30
HETATM   30  N   UNK N   1      19.327  16.205   8.528  0.00  0.00    -0.217 N 
HETATM   31  C   UNK N   1      18.763  17.460   8.912  0.00  0.00     0.665 C 
HETATM   32  N   UNK N   1      17.500  17.635   8.794  0.00  0.00    -0.235 N 
HETATM   33  N   UNK N   1      19.570  18.548   9.317  0.00  0.00    -0.235 N 
HETATM   34  H   UNK N   1      17.052  18.502   8.927  0.00  0.00     0.174 HD
ATOM     35  HN  UNK N   1      16.925  16.830   8.548  1.00  0.00     0.174 HD
HETATM   36  H   UNK N   1      20.431  18.382   9.764  0.00  0.00     0.174 HD
HETATM   37  H   UNK N   1      19.270  19.471   9.152  0.00  0.00     0.174 HD
HETATM   38  H   UNK N   1      18.698  15.555   8.142  0.00  0.00     0.178 HD
ENDBRANCH   2  30
BRANCH   3  39
HETATM   39  C   UNK N   1      21.877  12.397  10.120  0.00  0.00     0.200 C 
HETATM   40  O   UNK N   1      22.726  11.548   9.906  0.00  0.00    -0.645 OA
BRANCH  39  41
HETATM   41  O   UNK N   1      21.038  12.251  11.164  0.00  0.00    -0.771 OA
HETATM   42  H   UNK N   1      21.285  11.798  11.946  0.00  0.00     0.167 HD
ENDBRANCH  39  41
ENDBRANCH   3  39
TORSDOF 18
ENDMDL
