REMARK  7 active torsions:
REMARK  status: ('A' for Active; 'I' for Inactive)
REMARK    1  A    between atoms: N_2  and  C_3 
REMARK       I    between atoms: N_2  and  C_30 
REMARK    2  A    between atoms: C_3  and  C_4 
REMARK    3  A    between atoms: C_9  and  N_24 
REMARK    4  A    between atoms: C_12  and  C_15 
REMARK    5  A    between atoms: C_18  and  O_22 
REMARK    6  A    between atoms: C_34  and  C_38 
REMARK       I    between atoms: C_38  and  N_40 
REMARK    7  A    between atoms: N_40  and  O_41 
ROOT
HETATM    1  C   UNK N   1      -1.101  -0.889  -0.915  0.00  0.00     0.004 A 
HETATM    2  C   UNK N   1      -0.095  -1.785  -0.580  0.00  0.00     0.047 A 
HETATM    3  C   UNK N   1       1.086  -1.121  -0.206  0.00  0.00     0.055 A 
HETATM    4  C   UNK N   1       1.045   0.262  -0.265  0.00  0.00     0.076 A 
HETATM    5  S   UNK N   1      -0.494   0.655  -0.750  0.00  0.00    -0.087 SA
HETATM    6  C   UNK N   1       2.211   1.008  -0.005  0.00  0.00     0.124 A 
HETATM    7  N   UNK N   1       3.360   0.302   0.269  0.00  0.00    -0.327 N 
ATOM      8  HN  UNK N   1       4.228   0.809   0.445  1.00  0.00     0.169 HD
HETATM    9  C   UNK N   1       3.365  -1.075   0.312  0.00  0.00     0.119 A 
HETATM   10  N   UNK N   1       2.220  -1.766   0.083  0.00  0.00    -0.340 N 
ATOM     11  HN  UNK N   1       2.225  -2.785   0.132  1.00  0.00     0.167 HD
ENDROOT
BRANCH   1  12
HETATM   12  C   UNK N   1      -2.372  -1.260  -1.575  0.00  0.00     0.186 C 
BRANCH  12  13
HETATM   13  N   UNK N   1      -3.029  -2.367  -0.925  0.00  0.00    -0.217 N 
HETATM   14  C   UNK N   1      -2.537  -3.709  -1.130  0.00  0.00     0.169 C 
HETATM   15  C   UNK N   1      -4.317  -2.150  -0.387  0.00  0.00     0.679 A 
HETATM   16  N   UNK N   1      -5.147  -3.196  -0.120  0.00  0.00    -0.201 N 
HETATM   17  N   UNK N   1      -4.763  -0.874  -0.236  0.00  0.00    -0.201 N 
HETATM   18  C   UNK N   1      -6.439  -2.978   0.244  0.00  0.00     0.124 A 
ATOM     19  HN  UNK N   1      -4.796  -4.151  -0.193  1.00  0.00     0.183 HD
HETATM   20  C   UNK N   1      -6.919  -1.669   0.355  0.00  0.00     0.066 A 
HETATM   21  C   UNK N   1      -6.036  -0.618   0.133  0.00  0.00     0.124 A 
ATOM     22  HN  UNK N   1      -4.125  -0.097  -0.405  1.00  0.00     0.183 HD
BRANCH  20  23
HETATM   23  C   UNK N   1      -8.340  -1.383   0.606  0.00  0.00     0.277 C 
HETATM   24  O   UNK N   1      -9.137  -2.298   0.749  0.00  0.00    -0.265 OA
HETATM   25  N   UNK N   1      -8.770  -0.099   0.614  0.00  0.00    -0.233 N 
HETATM   26  H   UNK N   1      -8.118   0.631   0.502  0.00  0.00     0.197 HD
BRANCH  25  27
HETATM   27  O   UNK N   1     -10.067   0.196   0.771  0.00  0.00    -0.287 OA
HETATM   28  H   UNK N   1     -10.352   1.116   0.884  0.00  0.00     0.244 HD
ENDBRANCH  25  27
ENDBRANCH  20  23
ENDBRANCH  12  13
ENDBRANCH   1  12
BRANCH   6  29
HETATM   29  N   UNK N   1       2.259   2.438  -0.121  0.00  0.00    -0.362 N 
HETATM   30  C   UNK N   1       1.102   3.221  -0.513  0.00  0.00     0.150 C 
HETATM   31  C   UNK N   1       1.049   4.487   0.344  0.00  0.00     0.187 C 
HETATM   32  O   UNK N   1       2.261   5.188   0.203  0.00  0.00    -0.388 OA
HETATM   33  C   UNK N   1       3.242   4.423   0.863  0.00  0.00     0.187 C 
HETATM   34  C   UNK N   1       3.512   3.142   0.067  0.00  0.00     0.150 C 
ENDBRANCH   6  29
BRANCH   9  35
HETATM   35  C   UNK N   1       4.605  -1.859   0.407  0.00  0.00     0.024 A 
HETATM   36  C   UNK N   1       5.873  -1.272   0.409  0.00  0.00     0.021 A 
HETATM   37  C   UNK N   1       7.009  -2.089   0.336  0.00  0.00     0.057 A 
HETATM   38  C   UNK N   1       6.859  -3.480   0.249  0.00  0.00     0.141 A 
HETATM   39  N   UNK N   1       5.614  -4.028   0.271  0.00  0.00    -0.346 N 
HETATM   40  C   UNK N   1       4.505  -3.256   0.342  0.00  0.00     0.105 A 
ATOM     41  HN  UNK N   1       5.514  -5.042   0.232  1.00  0.00     0.167 HD
BRANCH  38  42
HETATM   42  O   UNK N   1       7.949  -4.268   0.129  0.00  0.00    -0.341 OA
HETATM   43  C   UNK N   1       7.851  -5.633  -0.029  0.00  0.00     0.211 C 
ENDBRANCH  38  42
ENDBRANCH   9  35
TORSDOF 7
