MODEL 1
REMARK VINA RESULT:      -7.5      0.000      0.000
REMARK  4 active torsions:
REMARK  status: ('A' for Active; 'I' for Inactive)
REMARK    1  A    between atoms: S_2  and  N_5 
REMARK    2  A    between atoms: C_14  and  N_12 
REMARK    3  A    between atoms: C_16  and  N_28 
REMARK    4  A    between atoms: C_17  and  C_20 
ROOT
HETATM    1  C   UNK N   1      30.151  16.551   6.352  0.00  0.00     0.249 C 
HETATM    2  C   UNK N   1      28.953  16.727   7.328  0.00  0.00     0.065 C 
HETATM    3  C   UNK N   1      27.814  17.622   6.804  0.00  0.00     0.109 C 
HETATM    4  C   UNK N   1      27.993  17.855   5.302  0.00  0.00     0.179 C 
HETATM    5  O   UNK N   1      28.300  16.625   4.712  0.00  0.00    -0.377 OA
HETATM    6  C   UNK N   1      29.692  16.499   4.866  0.00  0.00     0.204 C 
ENDROOT
BRANCH   1   7
HETATM    7  N   UNK N   1      31.197  17.571   6.558  0.00  0.00     0.105 N 
HETATM    8  C   UNK N   1      31.346  17.772   8.030  0.00  0.00     0.332 C 
HETATM    9  C   UNK N   1      32.608  17.102   8.331  0.00  0.00     0.064 A 
HETATM   10  C   UNK N   1      33.235  16.687   7.263  0.00  0.00     0.014 A 
HETATM   11  N   UNK N   1      33.286  16.798   9.443  0.00  0.00    -0.287 N 
HETATM   12  C   UNK N   1      34.394  16.078   7.688  0.00  0.00     0.140 A 
HETATM   13  C   UNK N   1      32.493  17.016   6.048  0.00  0.00     0.315 C 
HETATM   14  N   UNK N   1      34.379  16.139   9.049  0.00  0.00    -0.192 N 
ATOM     15  HN  UNK N   1      33.021  17.023  10.402  1.00  0.00     0.188 HD
BRANCH  14  16
HETATM   16  S   UNK N   1      35.685  15.561  10.143  0.00  0.00     0.245 S 
HETATM   17  C   UNK N   1      35.878  15.701  11.942  0.00  0.00     0.188 C 
HETATM   18  O   UNK N   1      34.460  15.074  10.936  0.00  0.00    -0.204 OA
HETATM   19  O   UNK N   1      35.711  17.035  10.577  0.00  0.00    -0.204 OA
ENDBRANCH  14  16
ENDBRANCH   1   7
BRANCH   3  20
HETATM   20  N   UNK N   1      27.790  18.881   7.525  0.00  0.00    -0.423 N 
HETATM   21  H   UNK N   1      27.789  19.888   7.367  0.00  0.00     0.150 HD
HETATM   22  H   UNK N   1      27.764  18.696   8.527  0.00  0.00     0.150 HD
ENDBRANCH   3  20
BRANCH   4  23
HETATM   23  C   UNK N   1      26.886  18.563   4.567  0.00  0.00     0.014 A 
HETATM   24  C   UNK N   1      25.614  17.987   4.428  0.00  0.00     0.055 A 
HETATM   25  C   UNK N   1      24.594  18.680   3.769  0.00  0.00     0.117 A 
HETATM   26  C   UNK N   1      24.840  19.950   3.240  0.00  0.00     0.045 A 
HETATM   27  F   UNK N   1      23.364  18.126   3.650  0.00  0.00    -0.206 F 
HETATM   28  C   UNK N   1      26.105  20.528   3.369  0.00  0.00     0.046 A 
HETATM   29  C   UNK N   1      27.125  19.841   4.030  0.00  0.00     0.125 A 
HETATM   30  F   UNK N   1      28.345  20.423   4.156  0.00  0.00    -0.205 F 
ENDBRANCH   4  23
TORSDOF 4
ENDMDL
MODEL 2
REMARK VINA RESULT:      -7.5      9.515     12.119
REMARK  4 active torsions:
REMARK  status: ('A' for Active; 'I' for Inactive)
REMARK    1  A    between atoms: S_2  and  N_5 
REMARK    2  A    between atoms: C_14  and  N_12 
REMARK    3  A    between atoms: C_16  and  N_28 
REMARK    4  A    between atoms: C_17  and  C_20 
ROOT
HETATM    1  C   UNK N   1      20.559  13.943   6.097  0.00  0.00     0.249 C 
HETATM    2  C   UNK N   1      20.622  12.394   6.225  0.00  0.00     0.065 C 
HETATM    3  C   UNK N   1      21.549  11.872   7.339  0.00  0.00     0.109 C 
HETATM    4  C   UNK N   1      21.932  13.023   8.272  0.00  0.00     0.179 C 
HETATM    5  O   UNK N   1      20.771  13.749   8.554  0.00  0.00    -0.377 OA
HETATM    6  C   UNK N   1      20.648  14.649   7.480  0.00  0.00     0.204 C 
ENDROOT
BRANCH   1   7
HETATM    7  N   UNK N   1      21.568  14.469   5.157  0.00  0.00     0.105 N 
HETATM    8  C   UNK N   1      20.884  14.713   3.852  0.00  0.00     0.332 C 
HETATM    9  C   UNK N   1      20.771  16.168   3.802  0.00  0.00     0.064 A 
HETATM   10  C   UNK N   1      21.390  16.763   4.786  0.00  0.00     0.014 A 
HETATM   11  N   UNK N   1      20.177  17.052   2.993  0.00  0.00    -0.287 N 
HETATM   12  C   UNK N   1      21.201  18.117   4.620  0.00  0.00     0.140 A 
HETATM   13  C   UNK N   1      22.035  15.797   5.673  0.00  0.00     0.315 C 
HETATM   14  N   UNK N   1      20.420  18.258   3.512  0.00  0.00    -0.192 N 
ATOM     15  HN  UNK N   1      19.646  16.847   2.147  1.00  0.00     0.188 HD
BRANCH  14  16
HETATM   16  S   UNK N   1      19.911  19.819   2.776  0.00  0.00     0.245 S 
HETATM   17  C   UNK N   1      20.814  20.985   1.718  0.00  0.00     0.188 C 
HETATM   18  O   UNK N   1      20.561  19.162   1.546  0.00  0.00    -0.204 OA
HETATM   19  O   UNK N   1      21.167  20.344   3.488  0.00  0.00    -0.204 OA
ENDBRANCH  14  16
ENDBRANCH   1   7
BRANCH   3  20
HETATM   20  N   UNK N   1      22.730  11.255   6.763  0.00  0.00    -0.423 N 
HETATM   21  H   UNK N   1      23.725  11.119   6.944  0.00  0.00     0.150 HD
HETATM   22  H   UNK N   1      22.482  10.806   5.882  0.00  0.00     0.150 HD
ENDBRANCH   3  20
BRANCH   4  23
HETATM   23  C   UNK N   1      22.695  12.685   9.525  0.00  0.00     0.014 A 
HETATM   24  C   UNK N   1      22.038  12.258  10.689  0.00  0.00     0.055 A 
HETATM   25  C   UNK N   1      22.772  11.918  11.829  0.00  0.00     0.117 A 
HETATM   26  C   UNK N   1      24.166  12.007  11.815  0.00  0.00     0.045 A 
HETATM   27  F   UNK N   1      22.134  11.495  12.946  0.00  0.00    -0.206 F 
HETATM   28  C   UNK N   1      24.828  12.435  10.662  0.00  0.00     0.046 A 
HETATM   29  C   UNK N   1      24.098  12.771   9.520  0.00  0.00     0.125 A 
HETATM   30  F   UNK N   1      24.759  13.175   8.404  0.00  0.00    -0.205 F 
ENDBRANCH   4  23
TORSDOF 4
ENDMDL
MODEL 3
REMARK VINA RESULT:      -7.4      2.281      3.434
REMARK  4 active torsions:
REMARK  status: ('A' for Active; 'I' for Inactive)
REMARK    1  A    between atoms: S_2  and  N_5 
REMARK    2  A    between atoms: C_14  and  N_12 
REMARK    3  A    between atoms: C_16  and  N_28 
REMARK    4  A    between atoms: C_17  and  C_20 
ROOT
HETATM    1  C   UNK N   1      27.976  19.301   5.941  0.00  0.00     0.249 C 
HETATM    2  C   UNK N   1      27.990  18.929   4.432  0.00  0.00     0.065 C 
HETATM    3  C   UNK N   1      26.600  18.723   3.800  0.00  0.00     0.109 C 
HETATM    4  C   UNK N   1      25.521  19.262   4.743  0.00  0.00     0.179 C 
HETATM    5  O   UNK N   1      25.946  20.510   5.208  0.00  0.00    -0.377 OA
HETATM    6  C   UNK N   1      26.771  20.214   6.308  0.00  0.00     0.204 C 
ENDROOT
BRANCH   1   7
HETATM    7  N   UNK N   1      28.035  18.112   6.812  0.00  0.00     0.105 N 
HETATM    8  C   UNK N   1      28.893  17.096   6.131  0.00  0.00     0.332 C 
HETATM    9  C   UNK N   1      30.132  17.136   6.903  0.00  0.00     0.064 A 
HETATM   10  C   UNK N   1      30.052  17.897   7.961  0.00  0.00     0.014 A 
HETATM   11  N   UNK N   1      31.346  16.586   6.788  0.00  0.00    -0.287 N 
HETATM   12  C   UNK N   1      31.277  17.846   8.587  0.00  0.00     0.140 A 
HETATM   13  C   UNK N   1      28.727  18.501   8.084  0.00  0.00     0.315 C 
HETATM   14  N   UNK N   1      32.065  17.045   7.816  0.00  0.00    -0.192 N 
ATOM     15  HN  UNK N   1      31.660  15.943   6.062  1.00  0.00     0.188 HD
BRANCH  14  16
HETATM   16  S   UNK N   1      33.757  16.561   8.188  0.00  0.00     0.245 S 
HETATM   17  C   UNK N   1      34.640  16.444   9.769  0.00  0.00     0.188 C 
HETATM   18  O   UNK N   1      33.019  15.725   9.247  0.00  0.00    -0.204 OA
HETATM   19  O   UNK N   1      33.787  17.923   8.901  0.00  0.00    -0.204 OA
ENDBRANCH  14  16
ENDBRANCH   1   7
BRANCH   3  20
HETATM   20  N   UNK N   1      26.382  17.317   3.512  0.00  0.00    -0.423 N 
HETATM   21  H   UNK N   1      26.151  16.437   3.972  0.00  0.00     0.150 HD
HETATM   22  H   UNK N   1      26.497  17.155   2.512  0.00  0.00     0.150 HD
ENDBRANCH   3  20
BRANCH   4  23
HETATM   23  C   UNK N   1      24.106  19.311   4.232  0.00  0.00     0.014 A 
HETATM   24  C   UNK N   1      23.099  18.508   4.788  0.00  0.00     0.055 A 
HETATM   25  C   UNK N   1      21.786  18.596   4.318  0.00  0.00     0.117 A 
HETATM   26  C   UNK N   1      21.471  19.484   3.286  0.00  0.00     0.045 A 
HETATM   27  F   UNK N   1      20.815  17.829   4.867  0.00  0.00    -0.206 F 
HETATM   28  C   UNK N   1      22.468  20.283   2.723  0.00  0.00     0.046 A 
HETATM   29  C   UNK N   1      23.781  20.201   3.193  0.00  0.00     0.125 A 
HETATM   30  F   UNK N   1      24.735  20.994   2.642  0.00  0.00    -0.205 F 
ENDBRANCH   4  23
TORSDOF 4
ENDMDL
MODEL 4
REMARK VINA RESULT:      -7.3      7.021     12.013
REMARK  4 active torsions:
REMARK  status: ('A' for Active; 'I' for Inactive)
REMARK    1  A    between atoms: S_2  and  N_5 
REMARK    2  A    between atoms: C_14  and  N_12 
REMARK    3  A    between atoms: C_16  and  N_28 
REMARK    4  A    between atoms: C_17  and  C_20 
ROOT
HETATM    1  C   UNK N   1      36.040  12.411  11.651  0.00  0.00     0.249 C 
HETATM    2  C   UNK N   1      36.965  11.367  12.340  0.00  0.00     0.065 C 
HETATM    3  C   UNK N   1      37.018  11.461  13.877  0.00  0.00     0.109 C 
HETATM    4  C   UNK N   1      35.881  12.355  14.378  0.00  0.00     0.179 C 
HETATM    5  O   UNK N   1      34.716  11.987  13.697  0.00  0.00    -0.377 OA
HETATM    6  C   UNK N   1      34.767  12.712  12.494  0.00  0.00     0.204 C 
ENDROOT
BRANCH   1   7
HETATM    7  N   UNK N   1      36.759  13.650  11.299  0.00  0.00     0.105 N 
HETATM    8  C   UNK N   1      36.780  13.751   9.809  0.00  0.00     0.332 C 
HETATM    9  C   UNK N   1      35.804  14.802   9.533  0.00  0.00     0.064 A 
HETATM   10  C   UNK N   1      35.355  15.381  10.614  0.00  0.00     0.014 A 
HETATM   11  N   UNK N   1      35.245  15.320   8.435  0.00  0.00    -0.287 N 
HETATM   12  C   UNK N   1      34.451  16.338  10.213  0.00  0.00     0.140 A 
HETATM   13  C   UNK N   1      35.963  14.812  11.815  0.00  0.00     0.315 C 
HETATM   14  N   UNK N   1      34.386  16.254   8.854  0.00  0.00    -0.192 N 
ATOM     15  HN  UNK N   1      35.436  15.057   7.468  1.00  0.00     0.188 HD
BRANCH  14  16
HETATM   16  S   UNK N   1      33.414  17.319   7.779  0.00  0.00     0.245 S 
HETATM   17  C   UNK N   1      33.400  17.489   5.972  0.00  0.00     0.188 C 
HETATM   18  O   UNK N   1      33.240  15.984   7.033  0.00  0.00    -0.204 OA
HETATM   19  O   UNK N   1      34.799  17.733   7.257  0.00  0.00    -0.204 OA
ENDBRANCH  14  16
ENDBRANCH   1   7
BRANCH   3  20
HETATM   20  N   UNK N   1      38.307  11.971  14.306  0.00  0.00    -0.423 N 
HETATM   21  H   UNK N   1      39.036  12.627  14.027  0.00  0.00     0.150 HD
HETATM   22  H   UNK N   1      38.573  11.523  15.183  0.00  0.00     0.150 HD
ENDBRANCH   3  20
BRANCH   4  23
HETATM   23  C   UNK N   1      35.655  12.435  15.864  0.00  0.00     0.014 A 
HETATM   24  C   UNK N   1      35.511  13.668  16.518  0.00  0.00     0.055 A 
HETATM   25  C   UNK N   1      35.269  13.712  17.894  0.00  0.00     0.117 A 
HETATM   26  C   UNK N   1      35.175  12.526  18.626  0.00  0.00     0.045 A 
HETATM   27  F   UNK N   1      35.117  14.905  18.518  0.00  0.00    -0.206 F 
HETATM   28  C   UNK N   1      35.323  11.295  17.984  0.00  0.00     0.046 A 
HETATM   29  C   UNK N   1      35.560  11.246  16.609  0.00  0.00     0.125 A 
HETATM   30  F   UNK N   1      35.689  10.039  16.000  0.00  0.00    -0.205 F 
ENDBRANCH   4  23
TORSDOF 4
ENDMDL
MODEL 5
REMARK VINA RESULT:      -7.2      4.916      9.658
REMARK  4 active torsions:
REMARK  status: ('A' for Active; 'I' for Inactive)
REMARK    1  A    between atoms: S_2  and  N_5 
REMARK    2  A    between atoms: C_14  and  N_12 
REMARK    3  A    between atoms: C_16  and  N_28 
REMARK    4  A    between atoms: C_17  and  C_20 
ROOT
HETATM    1  C   UNK N   1      26.808  17.680   5.794  0.00  0.00     0.249 C 
HETATM    2  C   UNK N   1      27.272  16.332   6.413  0.00  0.00     0.065 C 
HETATM    3  C   UNK N   1      28.787  16.064   6.325  0.00  0.00     0.109 C 
HETATM    4  C   UNK N   1      29.516  17.353   5.939  0.00  0.00     0.179 C 
HETATM    5  O   UNK N   1      28.991  18.390   6.717  0.00  0.00    -0.377 OA
HETATM    6  C   UNK N   1      27.850  18.815   6.013  0.00  0.00     0.204 C 
ENDROOT
BRANCH   1   7
HETATM    7  N   UNK N   1      26.446  17.548   4.369  0.00  0.00     0.105 N 
HETATM    8  C   UNK N   1      25.091  16.922   4.305  0.00  0.00     0.332 C 
HETATM    9  C   UNK N   1      24.228  18.039   3.930  0.00  0.00     0.064 A 
HETATM   10  C   UNK N   1      24.891  19.129   3.651  0.00  0.00     0.014 A 
HETATM   11  N   UNK N   1      22.909  18.226   3.807  0.00  0.00    -0.287 N 
HETATM   12  C   UNK N   1      23.964  20.091   3.321  0.00  0.00     0.140 A 
HETATM   13  C   UNK N   1      26.332  18.926   3.789  0.00  0.00     0.315 C 
HETATM   14  N   UNK N   1      22.742  19.504   3.456  0.00  0.00    -0.192 N 
ATOM     15  HN  UNK N   1      22.177  17.531   3.951  1.00  0.00     0.188 HD
BRANCH  14  16
HETATM   16  S   UNK N   1      21.158  20.272   3.084  0.00  0.00     0.245 S 
HETATM   17  C   UNK N   1      20.511  20.976   1.542  0.00  0.00     0.188 C 
HETATM   18  O   UNK N   1      21.265  19.322   1.878  0.00  0.00    -0.204 OA
HETATM   19  O   UNK N   1      22.049  21.423   2.592  0.00  0.00    -0.204 OA
ENDBRANCH  14  16
ENDBRANCH   1   7
BRANCH   3  20
HETATM   20  N   UNK N   1      29.057  15.008   5.367  0.00  0.00    -0.423 N 
HETATM   21  H   UNK N   1      28.583  14.394   4.705  0.00  0.00     0.150 HD
HETATM   22  H   UNK N   1      30.058  14.817   5.347  0.00  0.00     0.150 HD
ENDBRANCH   3  20
BRANCH   4  23
HETATM   23  C   UNK N   1      31.021  17.342   5.970  0.00  0.00     0.014 A 
HETATM   24  C   UNK N   1      31.728  17.324   7.182  0.00  0.00     0.055 A 
HETATM   25  C   UNK N   1      33.126  17.281   7.182  0.00  0.00     0.117 A 
HETATM   26  C   UNK N   1      33.825  17.261   5.973  0.00  0.00     0.045 A 
HETATM   27  F   UNK N   1      33.803  17.250   8.354  0.00  0.00    -0.206 F 
HETATM   28  C   UNK N   1      33.129  17.285   4.763  0.00  0.00     0.046 A 
HETATM   29  C   UNK N   1      31.733  17.323   4.758  0.00  0.00     0.125 A 
HETATM   30  F   UNK N   1      31.073  17.333   3.571  0.00  0.00    -0.205 F 
ENDBRANCH   4  23
TORSDOF 4
ENDMDL
MODEL 6
REMARK VINA RESULT:      -7.1      7.121     12.824
REMARK  4 active torsions:
REMARK  status: ('A' for Active; 'I' for Inactive)
REMARK    1  A    between atoms: S_2  and  N_5 
REMARK    2  A    between atoms: C_14  and  N_12 
REMARK    3  A    between atoms: C_16  and  N_28 
REMARK    4  A    between atoms: C_17  and  C_20 
ROOT
HETATM    1  C   UNK N   1      35.908  11.974  12.492  0.00  0.00     0.249 C 
HETATM    2  C   UNK N   1      36.712  10.707  12.898  0.00  0.00     0.065 C 
HETATM    3  C   UNK N   1      36.912  10.522  14.414  0.00  0.00     0.109 C 
HETATM    4  C   UNK N   1      35.978  11.466  15.175  0.00  0.00     0.179 C 
HETATM    5  O   UNK N   1      34.715  11.390  14.580  0.00  0.00    -0.377 OA
HETATM    6  C   UNK N   1      34.776  12.299  13.509  0.00  0.00     0.204 C 
ENDROOT
BRANCH   1   7
HETATM    7  N   UNK N   1      36.780  13.142  12.264  0.00  0.00     0.105 N 
HETATM    8  C   UNK N   1      37.110  13.180  10.808  0.00  0.00     0.332 C 
HETATM    9  C   UNK N   1      36.298  14.288  10.312  0.00  0.00     0.064 A 
HETATM   10  C   UNK N   1      35.686  14.941  11.263  0.00  0.00     0.014 A 
HETATM   11  N   UNK N   1      36.016  14.800   9.109  0.00  0.00    -0.287 N 
HETATM   12  C   UNK N   1      34.962  15.945  10.661  0.00  0.00     0.140 A 
HETATM   13  C   UNK N   1      35.991  14.379  12.577  0.00  0.00     0.315 C 
HETATM   14  N   UNK N   1      35.167  15.810   9.321  0.00  0.00    -0.192 N 
ATOM     15  HN  UNK N   1      36.377  14.484   8.209  1.00  0.00     0.188 HD
BRANCH  14  16
HETATM   16  S   UNK N   1      34.522  16.899   8.042  0.00  0.00     0.245 S 
HETATM   17  C   UNK N   1      33.431  18.345   8.151  0.00  0.00     0.188 C 
HETATM   18  O   UNK N   1      34.996  17.956   9.055  0.00  0.00    -0.204 OA
HETATM   19  O   UNK N   1      33.171  16.520   8.670  0.00  0.00    -0.204 OA
ENDBRANCH  14  16
ENDBRANCH   1   7
BRANCH   3  20
HETATM   20  N   UNK N   1      38.297  10.762  14.773  0.00  0.00    -0.423 N 
HETATM   21  H   UNK N   1      39.242  10.448  14.552  0.00  0.00     0.150 HD
HETATM   22  H   UNK N   1      38.341  11.491  15.484  0.00  0.00     0.150 HD
ENDBRANCH   3  20
BRANCH   4  23
HETATM   23  C   UNK N   1      35.897  11.316  16.671  0.00  0.00     0.014 A 
HETATM   24  C   UNK N   1      36.441  10.200  17.325  0.00  0.00     0.055 A 
HETATM   25  C   UNK N   1      36.382  10.101  18.719  0.00  0.00     0.117 A 
HETATM   26  C   UNK N   1      35.774  11.113  19.466  0.00  0.00     0.045 A 
HETATM   27  F   UNK N   1      36.920   9.028  19.346  0.00  0.00    -0.206 F 
HETATM   28  C   UNK N   1      35.226  12.225  18.823  0.00  0.00     0.046 A 
HETATM   29  C   UNK N   1      35.288  12.330  17.431  0.00  0.00     0.125 A 
HETATM   30  F   UNK N   1      34.760  13.423  16.824  0.00  0.00    -0.205 F 
ENDBRANCH   4  23
TORSDOF 4
ENDMDL
MODEL 7
REMARK VINA RESULT:      -7.0      4.449      6.220
REMARK  4 active torsions:
REMARK  status: ('A' for Active; 'I' for Inactive)
REMARK    1  A    between atoms: S_2  and  N_5 
REMARK    2  A    between atoms: C_14  and  N_12 
REMARK    3  A    between atoms: C_16  and  N_28 
REMARK    4  A    between atoms: C_17  and  C_20 
ROOT
HETATM    1  C   UNK N   1      33.301  15.266   9.595  0.00  0.00     0.249 C 
HETATM    2  C   UNK N   1      33.256  16.804   9.368  0.00  0.00     0.065 C 
HETATM    3  C   UNK N   1      33.260  17.243   7.892  0.00  0.00     0.109 C 
HETATM    4  C   UNK N   1      32.972  16.036   6.995  0.00  0.00     0.179 C 
HETATM    5  O   UNK N   1      31.902  15.332   7.556  0.00  0.00    -0.377 OA
HETATM    6  C   UNK N   1      32.496  14.490   8.513  0.00  0.00     0.204 C 
ENDROOT
BRANCH   1   7
HETATM    7  N   UNK N   1      34.681  14.756   9.710  0.00  0.00     0.105 N 
HETATM    8  C   UNK N   1      35.339  15.487  10.834  0.00  0.00     0.332 C 
HETATM    9  C   UNK N   1      35.388  14.487  11.897  0.00  0.00     0.064 A 
HETATM   10  C   UNK N   1      34.993  13.305  11.507  0.00  0.00     0.014 A 
HETATM   11  N   UNK N   1      35.734  14.484  13.189  0.00  0.00    -0.287 N 
HETATM   12  C   UNK N   1      35.085  12.470  12.597  0.00  0.00     0.140 A 
HETATM   13  C   UNK N   1      34.611  13.309  10.097  0.00  0.00     0.315 C 
HETATM   14  N   UNK N   1      35.522  13.241  13.632  0.00  0.00    -0.192 N 
ATOM     15  HN  UNK N   1      36.090  15.272  13.729  1.00  0.00     0.188 HD
BRANCH  14  16
HETATM   16  S   UNK N   1      35.895  12.661  15.293  0.00  0.00     0.245 S 
HETATM   17  C   UNK N   1      35.477  13.356  16.917  0.00  0.00     0.188 C 
HETATM   18  O   UNK N   1      34.398  12.971  15.467  0.00  0.00    -0.204 OA
HETATM   19  O   UNK N   1      36.476  14.076  15.450  0.00  0.00    -0.204 OA
ENDBRANCH  14  16
ENDBRANCH   1   7
BRANCH   3  20
HETATM   20  N   UNK N   1      34.533  17.850   7.550  0.00  0.00    -0.423 N 
HETATM   21  H   UNK N   1      35.337  18.307   7.980  0.00  0.00     0.150 HD
HETATM   22  H   UNK N   1      34.670  17.806   6.541  0.00  0.00     0.150 HD
ENDBRANCH   3  20
BRANCH   4  23
HETATM   23  C   UNK N   1      32.762  16.289   5.526  0.00  0.00     0.014 A 
HETATM   24  C   UNK N   1      33.606  15.724   4.558  0.00  0.00     0.055 A 
HETATM   25  C   UNK N   1      33.369  15.947   3.198  0.00  0.00     0.117 A 
HETATM   26  C   UNK N   1      32.292  16.742   2.798  0.00  0.00     0.045 A 
HETATM   27  F   UNK N   1      34.178  15.388   2.267  0.00  0.00    -0.206 F 
HETATM   28  C   UNK N   1      31.450  17.313   3.755  0.00  0.00     0.046 A 
HETATM   29  C   UNK N   1      31.681  17.087   5.114  0.00  0.00     0.125 A 
HETATM   30  F   UNK N   1      30.845  17.641   6.030  0.00  0.00    -0.205 F 
ENDBRANCH   4  23
TORSDOF 4
ENDMDL
MODEL 8
REMARK VINA RESULT:      -6.8     10.241     13.393
REMARK  4 active torsions:
REMARK  status: ('A' for Active; 'I' for Inactive)
REMARK    1  A    between atoms: S_2  and  N_5 
REMARK    2  A    between atoms: C_14  and  N_12 
REMARK    3  A    between atoms: C_16  and  N_28 
REMARK    4  A    between atoms: C_17  and  C_20 
ROOT
HETATM    1  C   UNK N   1      34.537  11.825  15.973  0.00  0.00     0.249 C 
HETATM    2  C   UNK N   1      34.988  13.312  16.038  0.00  0.00     0.065 C 
HETATM    3  C   UNK N   1      35.869  13.776  14.863  0.00  0.00     0.109 C 
HETATM    4  C   UNK N   1      35.814  12.740  13.737  0.00  0.00     0.179 C 
HETATM    5  O   UNK N   1      34.476  12.373  13.561  0.00  0.00    -0.377 OA
HETATM    6  C   UNK N   1      34.260  11.361  14.514  0.00  0.00     0.204 C 
ENDROOT
BRANCH   1   7
HETATM    7  N   UNK N   1      35.484  10.922  16.655  0.00  0.00     0.105 N 
HETATM    8  C   UNK N   1      35.749  11.488  18.012  0.00  0.00     0.332 C 
HETATM    9  C   UNK N   1      35.001  10.599  18.895  0.00  0.00     0.064 A 
HETATM   10  C   UNK N   1      34.485   9.573  18.272  0.00  0.00     0.014 A 
HETATM   11  N   UNK N   1      34.703  10.577  20.199  0.00  0.00    -0.287 N 
HETATM   12  C   UNK N   1      33.811   8.827  19.213  0.00  0.00     0.140 A 
HETATM   13  C   UNK N   1      34.806   9.598  16.847  0.00  0.00     0.315 C 
HETATM   14  N   UNK N   1      33.944   9.495  20.393  0.00  0.00    -0.192 N 
ATOM     15  HN  UNK N   1      34.997  11.252  20.905  1.00  0.00     0.188 HD
BRANCH  14  16
HETATM   16  S   UNK N   1      33.325   8.944  21.990  0.00  0.00     0.245 S 
HETATM   17  C   UNK N   1      33.057   9.851  23.539  0.00  0.00     0.188 C 
HETATM   18  O   UNK N   1      32.482  10.220  21.821  0.00  0.00    -0.204 OA
HETATM   19  O   UNK N   1      34.638   9.561  22.497  0.00  0.00    -0.204 OA
ENDBRANCH  14  16
ENDBRANCH   1   7
BRANCH   3  20
HETATM   20  N   UNK N   1      37.234  13.985  15.308  0.00  0.00    -0.423 N 
HETATM   21  H   UNK N   1      37.878  14.729  15.579  0.00  0.00     0.150 HD
HETATM   22  H   UNK N   1      37.710  13.086  15.374  0.00  0.00     0.150 HD
ENDBRANCH   3  20
BRANCH   4  23
HETATM   23  C   UNK N   1      36.471  13.091  12.430  0.00  0.00     0.014 A 
HETATM   24  C   UNK N   1      36.080  14.220  11.693  0.00  0.00     0.055 A 
HETATM   25  C   UNK N   1      36.730  14.542  10.498  0.00  0.00     0.117 A 
HETATM   26  C   UNK N   1      37.769  13.735  10.028  0.00  0.00     0.045 A 
HETATM   27  F   UNK N   1      36.359  15.640   9.798  0.00  0.00    -0.206 F 
HETATM   28  C   UNK N   1      38.161  12.607  10.752  0.00  0.00     0.046 A 
HETATM   29  C   UNK N   1      37.518  12.285  11.949  0.00  0.00     0.125 A 
HETATM   30  F   UNK N   1      37.920  11.190  12.645  0.00  0.00    -0.205 F 
ENDBRANCH   4  23
TORSDOF 4
ENDMDL
MODEL 9
REMARK VINA RESULT:      -6.7      5.341      9.861
REMARK  4 active torsions:
REMARK  status: ('A' for Active; 'I' for Inactive)
REMARK    1  A    between atoms: S_2  and  N_5 
REMARK    2  A    between atoms: C_14  and  N_12 
REMARK    3  A    between atoms: C_16  and  N_28 
REMARK    4  A    between atoms: C_17  and  C_20 
ROOT
HETATM    1  C   UNK N   1      26.180  16.647   4.328  0.00  0.00     0.249 C 
HETATM    2  C   UNK N   1      27.031  17.611   3.454  0.00  0.00     0.065 C 
HETATM    3  C   UNK N   1      28.408  17.976   4.042  0.00  0.00     0.109 C 
HETATM    4  C   UNK N   1      28.741  17.030   5.198  0.00  0.00     0.179 C 
HETATM    5  O   UNK N   1      28.431  15.729   4.788  0.00  0.00    -0.377 OA
HETATM    6  C   UNK N   1      27.059  15.592   5.061  0.00  0.00     0.204 C 
ENDROOT
BRANCH   1   7
HETATM    7  N   UNK N   1      25.305  17.368   5.271  0.00  0.00     0.105 N 
HETATM    8  C   UNK N   1      25.214  18.785   4.807  0.00  0.00     0.332 C 
HETATM    9  C   UNK N   1      23.870  18.864   4.241  0.00  0.00     0.064 A 
HETATM   10  C   UNK N   1      23.169  17.779   4.434  0.00  0.00     0.014 A 
HETATM   11  N   UNK N   1      23.174  19.779   3.559  0.00  0.00    -0.287 N 
HETATM   12  C   UNK N   1      21.938  17.987   3.852  0.00  0.00     0.140 A 
HETATM   13  C   UNK N   1      23.931  16.777   5.175  0.00  0.00     0.315 C 
HETATM   14  N   UNK N   1      21.986  19.228   3.294  0.00  0.00    -0.192 N 
ATOM     15  HN  UNK N   1      23.487  20.714   3.294  1.00  0.00     0.188 HD
BRANCH  14  16
HETATM   16  S   UNK N   1      20.628  20.060   2.458  0.00  0.00     0.245 S 
HETATM   17  C   UNK N   1      20.591  21.033   0.927  0.00  0.00     0.188 C 
HETATM   18  O   UNK N   1      21.261  19.342   1.253  0.00  0.00    -0.204 OA
HETATM   19  O   UNK N   1      21.562  21.276   2.560  0.00  0.00    -0.204 OA
ENDBRANCH  14  16
ENDBRANCH   1   7
BRANCH   3  20
HETATM   20  N   UNK N   1      28.416  19.358   4.484  0.00  0.00    -0.423 N 
HETATM   21  H   UNK N   1      28.601  20.302   4.143  0.00  0.00     0.150 HD
HETATM   22  H   UNK N   1      28.146  19.401   5.466  0.00  0.00     0.150 HD
ENDBRANCH   3  20
BRANCH   4  23
HETATM   23  C   UNK N   1      30.121  17.111   5.793  0.00  0.00     0.014 A 
HETATM   24  C   UNK N   1      31.263  17.219   4.985  0.00  0.00     0.055 A 
HETATM   25  C   UNK N   1      32.530  17.327   5.565  0.00  0.00     0.117 A 
HETATM   26  C   UNK N   1      32.666  17.322   6.955  0.00  0.00     0.045 A 
HETATM   27  F   UNK N   1      33.628  17.444   4.780  0.00  0.00    -0.206 F 
HETATM   28  C   UNK N   1      31.536  17.210   7.767  0.00  0.00     0.046 A 
HETATM   29  C   UNK N   1      30.267  17.107   7.192  0.00  0.00     0.125 A 
HETATM   30  F   UNK N   1      29.178  17.010   7.998  0.00  0.00    -0.205 F 
ENDBRANCH   4  23
TORSDOF 4
ENDMDL
