MODEL 1
REMARK VINA RESULT:      -7.3      0.000      0.000
REMARK  6 active torsions:
REMARK  status: ('A' for Active; 'I' for Inactive)
REMARK    1  A    between atoms: C_3  and  O_11 
REMARK    2  A    between atoms: O_11  and  C_12 
REMARK    3  A    between atoms: C_13  and  C_12 
REMARK    4  A    between atoms: C_13  and  C_27 
REMARK    5  A    between atoms: C_15  and  C_16 
REMARK       I    between atoms: C_16  and  N_18 
REMARK    6  A    between atoms: N_18  and  C_19 
ROOT
HETATM    1  C   UNK N   1      28.572  17.796   5.230  0.00  0.00     0.022 A 
HETATM    2  C   UNK N   1      28.127  16.480   5.811  0.00  0.00     0.032 A 
HETATM    3  C   UNK N   1      28.723  17.538   6.745  0.00  0.00     0.094 A 
ENDROOT
BRANCH   1   4
HETATM    4  C   UNK N   1      29.890  17.837   4.453  0.00  0.00     0.191 C 
BRANCH   4   5
HETATM    5  O   UNK N   1      29.959  16.784   3.574  0.00  0.00    -0.347 OA
BRANCH   5   6
HETATM    6  C   UNK N   1      31.099  16.123   3.281  0.00  0.00     0.106 A 
HETATM    7  C   UNK N   1      31.142  14.728   3.384  0.00  0.00     0.041 A 
HETATM    8  C   UNK N   1      29.934  13.963   3.804  0.00  0.00     0.071 C 
HETATM    9  N   UNK N   1      32.290  14.065   3.101  0.00  0.00    -0.348 N 
HETATM   10  C   UNK N   1      33.410  14.734   2.715  0.00  0.00     0.077 A 
ATOM     11  HN  UNK N   1      32.314  13.048   3.178  1.00  0.00     0.167 HD
HETATM   12  N   UNK N   1      33.390  16.089   2.604  0.00  0.00    -0.353 N 
HETATM   13  C   UNK N   1      34.654  13.983   2.416  0.00  0.00     0.089 C 
HETATM   14  C   UNK N   1      32.262  16.792   2.878  0.00  0.00     0.128 A 
ATOM     15  HN  UNK N   1      34.233  16.583   2.313  1.00  0.00     0.166 HD
ENDBRANCH   5   6
ENDBRANCH   4   5
ENDBRANCH   1   4
BRANCH   1  16
HETATM   16  C   UNK N   1      27.358  18.489   4.660  0.00  0.00    -0.044 A 
HETATM   17  C   UNK N   1      27.496  19.791   4.154  0.00  0.00     0.008 A 
HETATM   18  C   UNK N   1      26.422  20.437   3.542  0.00  0.00     0.004 A 
HETATM   19  C   UNK N   1      25.199  19.781   3.418  0.00  0.00     0.042 A 
HETATM   20  C   UNK N   1      25.049  18.480   3.907  0.00  0.00     0.117 A 
HETATM   21  C   UNK N   1      26.127  17.830   4.523  0.00  0.00     0.050 A 
HETATM   22  F   UNK N   1      23.860  17.846   3.773  0.00  0.00    -0.206 F 
ENDBRANCH   1  16
BRANCH   3  23
HETATM   23  C   UNK N   1      30.089  17.017   7.185  0.00  0.00     0.228 C 
HETATM   24  O   UNK N   1      30.422  15.870   6.907  0.00  0.00    -0.273 OA
HETATM   25  N   UNK N   1      30.911  17.789   7.947  0.00  0.00    -0.313 N 
HETATM   26  H   UNK N   1      30.611  18.685   8.223  0.00  0.00     0.170 HD
BRANCH  25  27
HETATM   27  C   UNK N   1      32.196  17.327   8.355  0.00  0.00     0.107 A 
HETATM   28  C   UNK N   1      33.329  18.106   8.099  0.00  0.00     0.051 A 
HETATM   29  C   UNK N   1      34.565  17.706   8.618  0.00  0.00     0.047 A 
HETATM   30  C   UNK N   1      34.655  16.533   9.371  0.00  0.00     0.131 A 
HETATM   31  C   UNK N   1      33.514  15.764   9.578  0.00  0.00     0.132 A 
HETATM   32  F   UNK N   1      35.839  16.150   9.907  0.00  0.00    -0.205 F 
HETATM   33  N   UNK N   1      32.319  16.175   9.078  0.00  0.00    -0.349 N 
ATOM     34  HN  UNK N   1      31.489  15.609   9.249  1.00  0.00     0.167 HD
ENDBRANCH  25  27
ENDBRANCH   3  23
TORSDOF 6
ENDMDL
MODEL 2
REMARK VINA RESULT:      -7.2      9.068     11.583
REMARK  6 active torsions:
REMARK  status: ('A' for Active; 'I' for Inactive)
REMARK    1  A    between atoms: C_3  and  O_11 
REMARK    2  A    between atoms: O_11  and  C_12 
REMARK    3  A    between atoms: C_13  and  C_12 
REMARK    4  A    between atoms: C_13  and  C_27 
REMARK    5  A    between atoms: C_15  and  C_16 
REMARK       I    between atoms: C_16  and  N_18 
REMARK    6  A    between atoms: N_18  and  C_19 
ROOT
HETATM    1  C   UNK N   1      21.606  14.894   7.029  0.00  0.00     0.022 A 
HETATM    2  C   UNK N   1      22.621  14.723   5.930  0.00  0.00     0.032 A 
HETATM    3  C   UNK N   1      22.670  15.988   6.795  0.00  0.00     0.094 A 
ENDROOT
BRANCH   1   4
HETATM    4  C   UNK N   1      20.180  15.295   6.642  0.00  0.00     0.191 C 
BRANCH   4   5
HETATM    5  O   UNK N   1      19.506  14.217   6.120  0.00  0.00    -0.347 OA
BRANCH   5   6
HETATM    6  C   UNK N   1      19.507  13.892   4.810  0.00  0.00     0.106 A 
HETATM    7  C   UNK N   1      19.800  12.582   4.418  0.00  0.00     0.041 A 
HETATM    8  C   UNK N   1      20.098  11.535   5.437  0.00  0.00     0.071 C 
HETATM    9  N   UNK N   1      19.813  12.258   3.102  0.00  0.00    -0.348 N 
HETATM   10  C   UNK N   1      19.544  13.189   2.147  0.00  0.00     0.077 A 
ATOM     11  HN  UNK N   1      20.026  11.300   2.822  1.00  0.00     0.167 HD
HETATM   12  N   UNK N   1      19.254  14.468   2.506  0.00  0.00    -0.353 N 
HETATM   13  C   UNK N   1      19.570  12.807   0.713  0.00  0.00     0.089 C 
HETATM   14  C   UNK N   1      19.230  14.836   3.811  0.00  0.00     0.128 A 
ATOM     15  HN  UNK N   1      19.052  15.160   1.784  1.00  0.00     0.166 HD
ENDBRANCH   5   6
ENDBRANCH   4   5
ENDBRANCH   1   4
BRANCH   1  16
HETATM   16  C   UNK N   1      21.813  13.786   8.033  0.00  0.00    -0.044 A 
HETATM   17  C   UNK N   1      22.861  12.873   7.828  0.00  0.00     0.008 A 
HETATM   18  C   UNK N   1      23.142  11.886   8.772  0.00  0.00     0.004 A 
HETATM   19  C   UNK N   1      22.387  11.810   9.942  0.00  0.00     0.042 A 
HETATM   20  C   UNK N   1      21.348  12.719  10.164  0.00  0.00     0.117 A 
HETATM   21  C   UNK N   1      21.064  13.712   9.216  0.00  0.00     0.050 A 
HETATM   22  F   UNK N   1      20.626  12.645  11.307  0.00  0.00    -0.206 F 
ENDBRANCH   1  16
BRANCH   3  23
HETATM   23  C   UNK N   1      22.230  17.146   5.903  0.00  0.00     0.228 C 
HETATM   24  O   UNK N   1      21.800  18.177   6.411  0.00  0.00    -0.273 OA
HETATM   25  N   UNK N   1      22.239  17.018   4.549  0.00  0.00    -0.313 N 
HETATM   26  H   UNK N   1      22.521  16.164   4.147  0.00  0.00     0.170 HD
BRANCH  25  27
HETATM   27  C   UNK N   1      21.846  18.092   3.698  0.00  0.00     0.107 A 
HETATM   28  C   UNK N   1      20.600  18.059   3.064  0.00  0.00     0.051 A 
HETATM   29  C   UNK N   1      20.173  19.176   2.339  0.00  0.00     0.047 A 
HETATM   30  C   UNK N   1      20.996  20.300   2.245  0.00  0.00     0.131 A 
HETATM   31  C   UNK N   1      22.244  20.287   2.862  0.00  0.00     0.132 A 
HETATM   32  F   UNK N   1      20.581  21.402   1.574  0.00  0.00    -0.205 F 
HETATM   33  N   UNK N   1      22.637  19.199   3.574  0.00  0.00    -0.349 N 
ATOM     34  HN  UNK N   1      23.549  19.209   4.030  1.00  0.00     0.167 HD
ENDBRANCH  25  27
ENDBRANCH   3  23
TORSDOF 6
ENDMDL
MODEL 3
REMARK VINA RESULT:      -7.2      6.658     11.027
REMARK  6 active torsions:
REMARK  status: ('A' for Active; 'I' for Inactive)
REMARK    1  A    between atoms: C_3  and  O_11 
REMARK    2  A    between atoms: O_11  and  C_12 
REMARK    3  A    between atoms: C_13  and  C_12 
REMARK    4  A    between atoms: C_13  and  C_27 
REMARK    5  A    between atoms: C_15  and  C_16 
REMARK       I    between atoms: C_16  and  N_18 
REMARK    6  A    between atoms: N_18  and  C_19 
ROOT
HETATM    1  C   UNK N   1      36.215  13.467  13.416  0.00  0.00     0.022 A 
HETATM    2  C   UNK N   1      35.568  12.175  12.995  0.00  0.00     0.032 A 
HETATM    3  C   UNK N   1      37.094  12.298  12.920  0.00  0.00     0.094 A 
ENDROOT
BRANCH   1   4
HETATM    4  C   UNK N   1      36.140  14.661  12.460  0.00  0.00     0.191 C 
BRANCH   4   5
HETATM    5  O   UNK N   1      34.984  14.607  11.719  0.00  0.00    -0.347 OA
BRANCH   5   6
HETATM    6  C   UNK N   1      34.755  15.366  10.627  0.00  0.00     0.106 A 
HETATM    7  C   UNK N   1      34.173  14.793   9.491  0.00  0.00     0.041 A 
HETATM    8  C   UNK N   1      33.790  13.352   9.481  0.00  0.00     0.071 C 
HETATM    9  N   UNK N   1      33.953  15.552   8.389  0.00  0.00    -0.348 N 
HETATM   10  C   UNK N   1      34.290  16.870   8.366  0.00  0.00     0.077 A 
ATOM     11  HN  UNK N   1      33.527  15.128   7.564  1.00  0.00     0.167 HD
HETATM   12  N   UNK N   1      34.855  17.448   9.460  0.00  0.00    -0.353 N 
HETATM   13  C   UNK N   1      34.043  17.675   7.145  0.00  0.00     0.089 C 
HETATM   14  C   UNK N   1      35.092  16.725  10.583  0.00  0.00     0.128 A 
ATOM     15  HN  UNK N   1      35.103  18.436   9.435  1.00  0.00     0.166 HD
ENDBRANCH   5   6
ENDBRANCH   4   5
ENDBRANCH   1   4
BRANCH   1  16
HETATM   16  C   UNK N   1      35.928  13.678  14.882  0.00  0.00    -0.044 A 
HETATM   17  C   UNK N   1      34.962  12.872  15.507  0.00  0.00     0.008 A 
HETATM   18  C   UNK N   1      34.724  12.974  16.877  0.00  0.00     0.004 A 
HETATM   19  C   UNK N   1      35.462  13.876  17.643  0.00  0.00     0.042 A 
HETATM   20  C   UNK N   1      36.434  14.677  17.037  0.00  0.00     0.117 A 
HETATM   21  C   UNK N   1      36.674  14.576  15.660  0.00  0.00     0.050 A 
HETATM   22  F   UNK N   1      37.153  15.543  17.790  0.00  0.00    -0.206 F 
ENDBRANCH   1  16
BRANCH   3  23
HETATM   23  C   UNK N   1      37.459  12.338  11.439  0.00  0.00     0.228 C 
HETATM   24  O   UNK N   1      36.748  11.765  10.620  0.00  0.00    -0.273 OA
HETATM   25  N   UNK N   1      38.607  12.941  11.026  0.00  0.00    -0.313 N 
HETATM   26  H   UNK N   1      39.208  13.342  11.695  0.00  0.00     0.170 HD
BRANCH  25  27
HETATM   27  C   UNK N   1      38.959  13.003   9.646  0.00  0.00     0.107 A 
HETATM   28  C   UNK N   1      39.996  12.203   9.155  0.00  0.00     0.051 A 
HETATM   29  C   UNK N   1      40.244  12.176   7.780  0.00  0.00     0.047 A 
HETATM   30  C   UNK N   1      39.468  12.953   6.917  0.00  0.00     0.131 A 
HETATM   31  C   UNK N   1      38.465  13.763   7.443  0.00  0.00     0.132 A 
HETATM   32  F   UNK N   1      39.675  12.912   5.579  0.00  0.00    -0.205 F 
HETATM   33  N   UNK N   1      38.228  13.767   8.781  0.00  0.00    -0.349 N 
ATOM     34  HN  UNK N   1      37.482  14.355   9.150  1.00  0.00     0.167 HD
ENDBRANCH  25  27
ENDBRANCH   3  23
TORSDOF 6
ENDMDL
MODEL 4
REMARK VINA RESULT:      -7.1      4.038      8.469
REMARK  6 active torsions:
REMARK  status: ('A' for Active; 'I' for Inactive)
REMARK    1  A    between atoms: C_3  and  O_11 
REMARK    2  A    between atoms: O_11  and  C_12 
REMARK    3  A    between atoms: C_13  and  C_12 
REMARK    4  A    between atoms: C_13  and  C_27 
REMARK    5  A    between atoms: C_15  and  C_16 
REMARK       I    between atoms: C_16  and  N_18 
REMARK    6  A    between atoms: N_18  and  C_19 
ROOT
HETATM    1  C   UNK N   1      27.741  17.735   6.011  0.00  0.00     0.022 A 
HETATM    2  C   UNK N   1      28.220  18.303   4.702  0.00  0.00     0.032 A 
HETATM    3  C   UNK N   1      27.105  19.030   5.461  0.00  0.00     0.094 A 
ENDROOT
BRANCH   1   4
HETATM    4  C   UNK N   1      26.826  16.508   5.977  0.00  0.00     0.191 C 
BRANCH   4   5
HETATM    5  O   UNK N   1      27.215  15.650   4.977  0.00  0.00    -0.347 OA
BRANCH   5   6
HETATM    6  C   UNK N   1      26.418  15.278   3.953  0.00  0.00     0.106 A 
HETATM    7  C   UNK N   1      26.958  15.116   2.673  0.00  0.00     0.041 A 
HETATM    8  C   UNK N   1      28.412  15.339   2.431  0.00  0.00     0.071 C 
HETATM    9  N   UNK N   1      26.156  14.754   1.642  0.00  0.00    -0.348 N 
HETATM   10  C   UNK N   1      24.825  14.542   1.829  0.00  0.00     0.077 A 
ATOM     11  HN  UNK N   1      26.557  14.637   0.711  1.00  0.00     0.167 HD
HETATM   12  N   UNK N   1      24.279  14.691   3.066  0.00  0.00    -0.353 N 
HETATM   13  C   UNK N   1      23.970  14.151   0.682  0.00  0.00     0.089 C 
HETATM   14  C   UNK N   1      25.046  15.052   4.125  0.00  0.00     0.128 A 
ATOM     15  HN  UNK N   1      23.281  14.529   3.198  1.00  0.00     0.166 HD
ENDBRANCH   5   6
ENDBRANCH   4   5
ENDBRANCH   1   4
BRANCH   1  16
HETATM   16  C   UNK N   1      28.893  17.768   6.985  0.00  0.00    -0.044 A 
HETATM   17  C   UNK N   1      30.137  17.255   6.581  0.00  0.00     0.008 A 
HETATM   18  C   UNK N   1      31.250  17.342   7.417  0.00  0.00     0.004 A 
HETATM   19  C   UNK N   1      31.135  17.957   8.662  0.00  0.00     0.042 A 
HETATM   20  C   UNK N   1      29.907  18.482   9.073  0.00  0.00     0.117 A 
HETATM   21  C   UNK N   1      28.787  18.395   8.235  0.00  0.00     0.050 A 
HETATM   22  F   UNK N   1      29.806  19.087  10.280  0.00  0.00    -0.206 F 
ENDBRANCH   1  16
BRANCH   3  23
HETATM   23  C   UNK N   1      25.824  18.835   4.652  0.00  0.00     0.228 C 
HETATM   24  O   UNK N   1      25.887  18.703   3.434  0.00  0.00    -0.273 OA
HETATM   25  N   UNK N   1      24.609  18.883   5.261  0.00  0.00    -0.313 N 
HETATM   26  H   UNK N   1      24.561  19.057   6.229  0.00  0.00     0.170 HD
BRANCH  25  27
HETATM   27  C   UNK N   1      23.402  18.689   4.527  0.00  0.00     0.107 A 
HETATM   28  C   UNK N   1      22.576  17.599   4.822  0.00  0.00     0.051 A 
HETATM   29  C   UNK N   1      21.335  17.492   4.187  0.00  0.00     0.047 A 
HETATM   30  C   UNK N   1      20.942  18.462   3.262  0.00  0.00     0.131 A 
HETATM   31  C   UNK N   1      21.802  19.515   2.968  0.00  0.00     0.132 A 
HETATM   32  F   UNK N   1      19.728  18.389   2.663  0.00  0.00    -0.205 F 
HETATM   33  N   UNK N   1      22.999  19.611   3.605  0.00  0.00    -0.349 N 
ATOM     34  HN  UNK N   1      23.613  20.395   3.388  1.00  0.00     0.167 HD
ENDBRANCH  25  27
ENDBRANCH   3  23
TORSDOF 6
ENDMDL
MODEL 5
REMARK VINA RESULT:      -7.1      8.443     12.244
REMARK  6 active torsions:
REMARK  status: ('A' for Active; 'I' for Inactive)
REMARK    1  A    between atoms: C_3  and  O_11 
REMARK    2  A    between atoms: O_11  and  C_12 
REMARK    3  A    between atoms: C_13  and  C_12 
REMARK    4  A    between atoms: C_13  and  C_27 
REMARK    5  A    between atoms: C_15  and  C_16 
REMARK       I    between atoms: C_16  and  N_18 
REMARK    6  A    between atoms: N_18  and  C_19 
ROOT
HETATM    1  C   UNK N   1      35.660  12.422  15.254  0.00  0.00     0.022 A 
HETATM    2  C   UNK N   1      37.128  12.460  14.924  0.00  0.00     0.032 A 
HETATM    3  C   UNK N   1      36.293  13.730  14.732  0.00  0.00     0.094 A 
ENDROOT
BRANCH   1   4
HETATM    4  C   UNK N   1      34.713  11.732  14.269  0.00  0.00     0.191 C 
BRANCH   4   5
HETATM    5  O   UNK N   1      35.336  10.657  13.682  0.00  0.00    -0.347 OA
BRANCH   5   6
HETATM    6  C   UNK N   1      35.538  10.539  12.353  0.00  0.00     0.106 A 
HETATM    7  C   UNK N   1      36.752  10.034  11.875  0.00  0.00     0.041 A 
HETATM    8  C   UNK N   1      37.822   9.611  12.824  0.00  0.00     0.071 C 
HETATM    9  N   UNK N   1      36.960   9.926  10.540  0.00  0.00    -0.348 N 
HETATM   10  C   UNK N   1      36.005  10.303   9.648  0.00  0.00     0.077 A 
ATOM     11  HN  UNK N   1      37.848   9.556  10.199  1.00  0.00     0.167 HD
HETATM   12  N   UNK N   1      34.816  10.794  10.090  0.00  0.00    -0.353 N 
HETATM   13  C   UNK N   1      36.262  10.179   8.192  0.00  0.00     0.089 C 
HETATM   14  C   UNK N   1      34.566  10.918  11.418  0.00  0.00     0.128 A 
ATOM     15  HN  UNK N   1      34.104  11.072   9.416  1.00  0.00     0.166 HD
ENDBRANCH   5   6
ENDBRANCH   4   5
ENDBRANCH   1   4
BRANCH   1  16
HETATM   16  C   UNK N   1      35.520  12.142  16.731  0.00  0.00    -0.044 A 
HETATM   17  C   UNK N   1      35.955  10.904  17.231  0.00  0.00     0.008 A 
HETATM   18  C   UNK N   1      35.923  10.635  18.598  0.00  0.00     0.004 A 
HETATM   19  C   UNK N   1      35.468  11.609  19.486  0.00  0.00     0.042 A 
HETATM   20  C   UNK N   1      35.042  12.850  19.004  0.00  0.00     0.117 A 
HETATM   21  C   UNK N   1      35.073  13.122  17.629  0.00  0.00     0.050 A 
HETATM   22  F   UNK N   1      34.611  13.795  19.873  0.00  0.00    -0.206 F 
ENDBRANCH   1  16
BRANCH   3  23
HETATM   23  C   UNK N   1      36.177  13.956  13.227  0.00  0.00     0.228 C 
HETATM   24  O   UNK N   1      35.166  14.475  12.764  0.00  0.00    -0.273 OA
HETATM   25  N   UNK N   1      37.152  13.518  12.385  0.00  0.00    -0.313 N 
HETATM   26  H   UNK N   1      37.930  13.042  12.755  0.00  0.00     0.170 HD
BRANCH  25  27
HETATM   27  C   UNK N   1      37.070  13.732  10.978  0.00  0.00     0.107 A 
HETATM   28  C   UNK N   1      38.171  13.445  10.165  0.00  0.00     0.051 A 
HETATM   29  C   UNK N   1      38.036  13.535   8.776  0.00  0.00     0.047 A 
HETATM   30  C   UNK N   1      36.814  13.920   8.220  0.00  0.00     0.131 A 
HETATM   31  C   UNK N   1      35.748  14.230   9.059  0.00  0.00     0.132 A 
HETATM   32  F   UNK N   1      36.659  13.979   6.875  0.00  0.00    -0.205 F 
HETATM   33  N   UNK N   1      35.893  14.124  10.406  0.00  0.00    -0.349 N 
ATOM     34  HN  UNK N   1      35.100  14.342  11.008  1.00  0.00     0.167 HD
ENDBRANCH  25  27
ENDBRANCH   3  23
TORSDOF 6
ENDMDL
MODEL 6
REMARK VINA RESULT:      -7.1      7.810     12.647
REMARK  6 active torsions:
REMARK  status: ('A' for Active; 'I' for Inactive)
REMARK    1  A    between atoms: C_3  and  O_11 
REMARK    2  A    between atoms: O_11  and  C_12 
REMARK    3  A    between atoms: C_13  and  C_12 
REMARK    4  A    between atoms: C_13  and  C_27 
REMARK    5  A    between atoms: C_15  and  C_16 
REMARK       I    between atoms: C_16  and  N_18 
REMARK    6  A    between atoms: N_18  and  C_19 
ROOT
HETATM    1  C   UNK N   1      35.527  12.067  15.630  0.00  0.00     0.022 A 
HETATM    2  C   UNK N   1      36.875  11.661  15.098  0.00  0.00     0.032 A 
HETATM    3  C   UNK N   1      36.446  13.127  14.984  0.00  0.00     0.094 A 
ENDROOT
BRANCH   1   4
HETATM    4  C   UNK N   1      34.285  11.710  14.808  0.00  0.00     0.191 C 
BRANCH   4   5
HETATM    5  O   UNK N   1      34.250  10.360  14.560  0.00  0.00    -0.347 OA
BRANCH   5   6
HETATM    6  C   UNK N   1      34.531   9.808  13.360  0.00  0.00     0.106 A 
HETATM    7  C   UNK N   1      35.363   8.685  13.288  0.00  0.00     0.041 A 
HETATM    8  C   UNK N   1      35.931   8.083  14.528  0.00  0.00     0.071 C 
HETATM    9  N   UNK N   1      35.655   8.138  12.083  0.00  0.00    -0.348 N 
HETATM   10  C   UNK N   1      35.151   8.662  10.933  0.00  0.00     0.077 A 
ATOM     11  HN  UNK N   1      36.261   7.318  12.038  1.00  0.00     0.167 HD
HETATM   12  N   UNK N   1      34.339   9.752  10.980  0.00  0.00    -0.353 N 
HETATM   13  C   UNK N   1      35.492   8.045   9.628  0.00  0.00     0.089 C 
HETATM   14  C   UNK N   1      34.020  10.331  12.165  0.00  0.00     0.128 A 
ATOM     15  HN  UNK N   1      33.964  10.138  10.114  1.00  0.00     0.166 HD
ENDBRANCH   5   6
ENDBRANCH   4   5
ENDBRANCH   1   4
BRANCH   1  16
HETATM   16  C   UNK N   1      35.519  11.826  17.119  0.00  0.00    -0.044 A 
HETATM   17  C   UNK N   1      36.098  10.647  17.618  0.00  0.00     0.008 A 
HETATM   18  C   UNK N   1      36.189  10.422  18.991  0.00  0.00     0.004 A 
HETATM   19  C   UNK N   1      35.714  11.381  19.884  0.00  0.00     0.042 A 
HETATM   20  C   UNK N   1      35.145  12.564  19.403  0.00  0.00     0.117 A 
HETATM   21  C   UNK N   1      35.052  12.792  18.023  0.00  0.00     0.050 A 
HETATM   22  F   UNK N   1      34.695  13.495  20.276  0.00  0.00    -0.206 F 
ENDBRANCH   1  16
BRANCH   3  23
HETATM   23  C   UNK N   1      36.191  13.396  13.503  0.00  0.00     0.228 C 
HETATM   24  O   UNK N   1      36.765  12.722  12.654  0.00  0.00    -0.273 OA
HETATM   25  N   UNK N   1      35.391  14.426  13.115  0.00  0.00    -0.313 N 
HETATM   26  H   UNK N   1      34.985  15.005  13.800  0.00  0.00     0.170 HD
BRANCH  25  27
HETATM   27  C   UNK N   1      35.128  14.684  11.738  0.00  0.00     0.107 A 
HETATM   28  C   UNK N   1      35.542  15.890  11.165  0.00  0.00     0.051 A 
HETATM   29  C   UNK N   1      35.395  16.077   9.787  0.00  0.00     0.047 A 
HETATM   30  C   UNK N   1      34.828  15.069   9.005  0.00  0.00     0.131 A 
HETATM   31  C   UNK N   1      34.397  13.893   9.613  0.00  0.00     0.132 A 
HETATM   32  F   UNK N   1      34.710  15.222   7.664  0.00  0.00    -0.205 F 
HETATM   33  N   UNK N   1      34.560  13.723  10.951  0.00  0.00    -0.349 N 
ATOM     34  HN  UNK N   1      34.250  12.852  11.381  1.00  0.00     0.167 HD
ENDBRANCH  25  27
ENDBRANCH   3  23
TORSDOF 6
ENDMDL
MODEL 7
REMARK VINA RESULT:      -7.1      2.706      3.695
REMARK  6 active torsions:
REMARK  status: ('A' for Active; 'I' for Inactive)
REMARK    1  A    between atoms: C_3  and  O_11 
REMARK    2  A    between atoms: O_11  and  C_12 
REMARK    3  A    between atoms: C_13  and  C_12 
REMARK    4  A    between atoms: C_13  and  C_27 
REMARK    5  A    between atoms: C_15  and  C_16 
REMARK       I    between atoms: C_16  and  N_18 
REMARK    6  A    between atoms: N_18  and  C_19 
ROOT
HETATM    1  C   UNK N   1      29.185  18.067   6.987  0.00  0.00     0.022 A 
HETATM    2  C   UNK N   1      28.660  17.650   8.334  0.00  0.00     0.032 A 
HETATM    3  C   UNK N   1      29.995  18.399   8.259  0.00  0.00     0.094 A 
ENDROOT
BRANCH   1   4
HETATM    4  C   UNK N   1      29.812  16.997   6.090  0.00  0.00     0.191 C 
BRANCH   4   5
HETATM    5  O   UNK N   1      28.970  15.918   5.973  0.00  0.00    -0.347 OA
BRANCH   5   6
HETATM    6  C   UNK N   1      28.157  15.710   4.915  0.00  0.00     0.106 A 
HETATM    7  C   UNK N   1      26.780  15.567   5.112  0.00  0.00     0.041 A 
HETATM    8  C   UNK N   1      26.198  15.656   6.482  0.00  0.00     0.071 C 
HETATM    9  N   UNK N   1      25.965  15.346   4.052  0.00  0.00    -0.348 N 
HETATM   10  C   UNK N   1      26.464  15.260   2.789  0.00  0.00     0.077 A 
ATOM     11  HN  UNK N   1      24.961  15.244   4.203  1.00  0.00     0.167 HD
HETATM   12  N   UNK N   1      27.800  15.399   2.574  0.00  0.00    -0.353 N 
HETATM   13  C   UNK N   1      25.550  15.013   1.647  0.00  0.00     0.089 C 
HETATM   14  C   UNK N   1      28.651  15.621   3.607  0.00  0.00     0.128 A 
ATOM     15  HN  UNK N   1      28.166  15.335   1.625  1.00  0.00     0.166 HD
ENDBRANCH   5   6
ENDBRANCH   4   5
ENDBRANCH   1   4
BRANCH   1  16
HETATM   16  C   UNK N   1      28.209  19.051   6.389  0.00  0.00    -0.044 A 
HETATM   17  C   UNK N   1      27.485  19.895   7.247  0.00  0.00     0.008 A 
HETATM   18  C   UNK N   1      26.636  20.875   6.735  0.00  0.00     0.004 A 
HETATM   19  C   UNK N   1      26.511  21.033   5.356  0.00  0.00     0.042 A 
HETATM   20  C   UNK N   1      27.233  20.207   4.489  0.00  0.00     0.117 A 
HETATM   21  C   UNK N   1      28.087  19.221   5.002  0.00  0.00     0.050 A 
HETATM   22  F   UNK N   1      27.114  20.373   3.151  0.00  0.00    -0.206 F 
ENDBRANCH   1  16
BRANCH   3  23
HETATM   23  C   UNK N   1      31.084  17.392   8.620  0.00  0.00     0.228 C 
HETATM   24  O   UNK N   1      30.796  16.387   9.261  0.00  0.00    -0.273 OA
HETATM   25  N   UNK N   1      32.384  17.637   8.302  0.00  0.00    -0.313 N 
HETATM   26  H   UNK N   1      32.619  18.478   7.847  0.00  0.00     0.170 HD
BRANCH  25  27
HETATM   27  C   UNK N   1      33.414  16.703   8.617  0.00  0.00     0.107 A 
HETATM   28  C   UNK N   1      33.991  15.935   7.600  0.00  0.00     0.051 A 
HETATM   29  C   UNK N   1      35.087  15.119   7.899  0.00  0.00     0.047 A 
HETATM   30  C   UNK N   1      35.583  15.072   9.204  0.00  0.00     0.131 A 
HETATM   31  C   UNK N   1      34.964  15.825  10.198  0.00  0.00     0.132 A 
HETATM   32  F   UNK N   1      36.664  14.312   9.501  0.00  0.00    -0.205 F 
HETATM   33  N   UNK N   1      33.909  16.622   9.887  0.00  0.00    -0.349 N 
ATOM     34  HN  UNK N   1      33.474  17.177  10.623  1.00  0.00     0.167 HD
ENDBRANCH  25  27
ENDBRANCH   3  23
TORSDOF 6
ENDMDL
MODEL 8
REMARK VINA RESULT:      -7.1      6.347      8.950
REMARK  6 active torsions:
REMARK  status: ('A' for Active; 'I' for Inactive)
REMARK    1  A    between atoms: C_3  and  O_11 
REMARK    2  A    between atoms: O_11  and  C_12 
REMARK    3  A    between atoms: C_13  and  C_12 
REMARK    4  A    between atoms: C_13  and  C_27 
REMARK    5  A    between atoms: C_15  and  C_16 
REMARK       I    between atoms: C_16  and  N_18 
REMARK    6  A    between atoms: N_18  and  C_19 
ROOT
HETATM    1  C   UNK N   1      21.234  16.696   5.565  0.00  0.00     0.022 A 
HETATM    2  C   UNK N   1      20.453  15.413   5.473  0.00  0.00     0.032 A 
HETATM    3  C   UNK N   1      20.167  16.373   6.633  0.00  0.00     0.094 A 
ENDROOT
BRANCH   1   4
HETATM    4  C   UNK N   1      22.680  16.632   6.064  0.00  0.00     0.191 C 
BRANCH   4   5
HETATM    5  O   UNK N   1      23.552  16.635   5.003  0.00  0.00    -0.347 OA
BRANCH   5   6
HETATM    6  C   UNK N   1      24.622  17.453   4.912  0.00  0.00     0.106 A 
HETATM    7  C   UNK N   1      25.903  16.957   5.178  0.00  0.00     0.041 A 
HETATM    8  C   UNK N   1      26.098  15.526   5.549  0.00  0.00     0.071 C 
HETATM    9  N   UNK N   1      26.976  17.781   5.098  0.00  0.00    -0.348 N 
HETATM   10  C   UNK N   1      26.833  19.091   4.761  0.00  0.00     0.077 A 
ATOM     11  HN  UNK N   1      27.908  17.412   5.292  1.00  0.00     0.167 HD
HETATM   12  N   UNK N   1      25.597  19.594   4.495  0.00  0.00    -0.353 N 
HETATM   13  C   UNK N   1      28.025  19.971   4.685  0.00  0.00     0.089 C 
HETATM   14  C   UNK N   1      24.496  18.805   4.563  0.00  0.00     0.128 A 
ATOM     15  HN  UNK N   1      25.497  20.576   4.242  1.00  0.00     0.166 HD
ENDBRANCH   5   6
ENDBRANCH   4   5
ENDBRANCH   1   4
BRANCH   1  16
HETATM   16  C   UNK N   1      20.912  17.527   4.347  0.00  0.00    -0.044 A 
HETATM   17  C   UNK N   1      20.482  16.878   3.177  0.00  0.00     0.008 A 
HETATM   18  C   UNK N   1      20.093  17.610   2.056  0.00  0.00     0.004 A 
HETATM   19  C   UNK N   1      20.116  19.003   2.096  0.00  0.00     0.042 A 
HETATM   20  C   UNK N   1      20.530  19.663   3.256  0.00  0.00     0.117 A 
HETATM   21  C   UNK N   1      20.922  18.929   4.384  0.00  0.00     0.050 A 
HETATM   22  F   UNK N   1      20.539  21.017   3.291  0.00  0.00    -0.206 F 
ENDBRANCH   1  16
BRANCH   3  23
HETATM   23  C   UNK N   1      20.693  15.702   7.899  0.00  0.00     0.228 C 
HETATM   24  O   UNK N   1      20.965  16.384   8.882  0.00  0.00    -0.273 OA
HETATM   25  N   UNK N   1      20.935  14.364   7.922  0.00  0.00    -0.313 N 
HETATM   26  H   UNK N   1      20.778  13.831   7.109  0.00  0.00     0.170 HD
BRANCH  25  27
HETATM   27  C   UNK N   1      21.412  13.715   9.099  0.00  0.00     0.107 A 
HETATM   28  C   UNK N   1      20.502  13.171  10.011  0.00  0.00     0.051 A 
HETATM   29  C   UNK N   1      20.983  12.425  11.092  0.00  0.00     0.047 A 
HETATM   30  C   UNK N   1      22.358  12.244  11.255  0.00  0.00     0.131 A 
HETATM   31  C   UNK N   1      23.236  12.828  10.347  0.00  0.00     0.132 A 
HETATM   32  F   UNK N   1      22.836  11.497  12.279  0.00  0.00    -0.205 F 
HETATM   33  N   UNK N   1      22.752  13.537   9.295  0.00  0.00    -0.349 N 
ATOM     34  HN  UNK N   1      23.407  13.949   8.631  1.00  0.00     0.167 HD
ENDBRANCH  25  27
ENDBRANCH   3  23
TORSDOF 6
ENDMDL
MODEL 9
REMARK VINA RESULT:      -7.0      1.893      2.579
REMARK  6 active torsions:
REMARK  status: ('A' for Active; 'I' for Inactive)
REMARK    1  A    between atoms: C_3  and  O_11 
REMARK    2  A    between atoms: O_11  and  C_12 
REMARK    3  A    between atoms: C_13  and  C_12 
REMARK    4  A    between atoms: C_13  and  C_27 
REMARK    5  A    between atoms: C_15  and  C_16 
REMARK       I    between atoms: C_16  and  N_18 
REMARK    6  A    between atoms: N_18  and  C_19 
ROOT
HETATM    1  C   UNK N   1      28.993  17.987   7.152  0.00  0.00     0.022 A 
HETATM    2  C   UNK N   1      28.476  17.786   8.552  0.00  0.00     0.032 A 
HETATM    3  C   UNK N   1      29.891  18.342   8.357  0.00  0.00     0.094 A 
ENDROOT
BRANCH   1   4
HETATM    4  C   UNK N   1      29.440  16.755   6.361  0.00  0.00     0.191 C 
BRANCH   4   5
HETATM    5  O   UNK N   1      30.506  17.069   5.553  0.00  0.00    -0.347 OA
BRANCH   5   6
HETATM    6  C   UNK N   1      31.126  16.180   4.748  0.00  0.00     0.106 A 
HETATM    7  C   UNK N   1      32.467  16.375   4.399  0.00  0.00     0.041 A 
HETATM    8  C   UNK N   1      33.221  17.551   4.918  0.00  0.00     0.071 C 
HETATM    9  N   UNK N   1      33.088  15.488   3.582  0.00  0.00    -0.348 N 
HETATM   10  C   UNK N   1      32.428  14.404   3.092  0.00  0.00     0.077 A 
ATOM     11  HN  UNK N   1      34.066  15.636   3.332  1.00  0.00     0.167 HD
HETATM   12  N   UNK N   1      31.125  14.193   3.422  0.00  0.00    -0.353 N 
HETATM   13  C   UNK N   1      33.131  13.453   2.197  0.00  0.00     0.089 C 
HETATM   14  C   UNK N   1      30.466  15.055   4.236  0.00  0.00     0.128 A 
ATOM     15  HN  UNK N   1      30.638  13.378   3.052  1.00  0.00     0.166 HD
ENDBRANCH   5   6
ENDBRANCH   4   5
ENDBRANCH   1   4
BRANCH   1  16
HETATM   16  C   UNK N   1      28.125  19.021   6.478  0.00  0.00    -0.044 A 
HETATM   17  C   UNK N   1      27.462  19.972   7.271  0.00  0.00     0.008 A 
HETATM   18  C   UNK N   1      26.718  20.996   6.687  0.00  0.00     0.004 A 
HETATM   19  C   UNK N   1      26.641  21.091   5.298  0.00  0.00     0.042 A 
HETATM   20  C   UNK N   1      27.304  20.159   4.495  0.00  0.00     0.117 A 
HETATM   21  C   UNK N   1      28.052  19.128   5.081  0.00  0.00     0.050 A 
HETATM   22  F   UNK N   1      27.233  20.263   3.147  0.00  0.00    -0.206 F 
ENDBRANCH   1  16
BRANCH   3  23
HETATM   23  C   UNK N   1      30.857  17.244   8.796  0.00  0.00     0.228 C 
HETATM   24  O   UNK N   1      30.499  16.411   9.622  0.00  0.00    -0.273 OA
HETATM   25  N   UNK N   1      32.137  17.227   8.335  0.00  0.00    -0.313 N 
HETATM   26  H   UNK N   1      32.440  17.937   7.724  0.00  0.00     0.170 HD
BRANCH  25  27
HETATM   27  C   UNK N   1      33.051  16.202   8.720  0.00  0.00     0.107 A 
HETATM   28  C   UNK N   1      33.363  15.175   7.824  0.00  0.00     0.051 A 
HETATM   29  C   UNK N   1      34.356  14.251   8.163  0.00  0.00     0.047 A 
HETATM   30  C   UNK N   1      35.014  14.356   9.390  0.00  0.00     0.131 A 
HETATM   31  C   UNK N   1      34.657  15.372  10.272  0.00  0.00     0.132 A 
HETATM   32  F   UNK N   1      36.002  13.489   9.718  0.00  0.00    -0.205 F 
HETATM   33  N   UNK N   1      33.698  16.269   9.921  0.00  0.00    -0.349 N 
ATOM     34  HN  UNK N   1      33.456  17.015  10.572  1.00  0.00     0.167 HD
ENDBRANCH  25  27
ENDBRANCH   3  23
TORSDOF 6
ENDMDL
