MODEL 1
REMARK VINA RESULT:      -6.0      0.000      0.000
REMARK  8 active torsions:
REMARK  status: ('A' for Active; 'I' for Inactive)
REMARK    1  A    between atoms: C_2  and  C_7 
REMARK    2  A    between atoms: C_7  and  C_8 
REMARK    3  A    between atoms: C_8  and  N_9 
REMARK       I    between atoms: N_9  and  C_10 
REMARK    4  A    between atoms: C_10  and  C_12 
REMARK    5  A    between atoms: C_12  and  C_13 
REMARK    6  A    between atoms: C_13  and  C_14 
REMARK    7  A    between atoms: C_14  and  C_15 
REMARK    8  A    between atoms: C_15  and  O_17 
ROOT
HETATM    1  N   UNK N   1      20.673  15.600   9.246  0.00  0.00    -0.361 N 
HETATM    2  C   UNK N   1      20.584  14.275   8.982  0.00  0.00     0.217 C 
HETATM    3  O   UNK N   1      20.205  13.900   7.877  0.00  0.00    -0.274 OA
HETATM    4  H   UNK N   1      20.975  15.913  10.129  0.00  0.00     0.162 HD
ENDROOT
BRANCH   1   5
HETATM    5  C   UNK N   1      20.319  16.548   8.219  0.00  0.00     0.128 C 
BRANCH   5   6
HETATM    6  C   UNK N   1      18.852  16.924   8.248  0.00  0.00     0.078 C 
BRANCH   6   7
HETATM    7  C   UNK N   1      18.623  17.924   9.343  0.00  0.00     0.027 A 
HETATM    8  C   UNK N   1      19.490  18.922   9.712  0.00  0.00     0.114 A 
HETATM    9  N   UNK N   1      18.923  19.602  10.728  0.00  0.00    -0.360 N 
HETATM   10  C   UNK N   1      17.732  19.009  10.955  0.00  0.00     0.180 A 
HETATM   11  H   UNK N   1      19.302  20.375  11.207  0.00  0.00     0.166 HD
HETATM   12  N   UNK N   1      17.524  17.976  10.118  0.00  0.00    -0.355 N 
ATOM     13  HN  UNK N   1      16.708  17.364  10.079  1.00  0.00     0.166 HD
ENDBRANCH   6   7
ENDBRANCH   5   6
ENDBRANCH   1   5
BRANCH   2  14
HETATM   14  C   UNK N   1      20.946  13.263  10.034  0.00  0.00     0.103 C 
BRANCH  14  15
HETATM   15  C   UNK N   1      22.459  13.204  10.191  0.00  0.00     0.019 C 
BRANCH  15  16
HETATM   16  C   UNK N   1      22.965  11.830  10.580  0.00  0.00     0.110 C 
BRANCH  16  17
HETATM   17  C   UNK N   1      23.734  11.900  11.869  0.00  0.00     0.139 C 
HETATM   18  O   UNK N   1      23.131  11.941  12.927  0.00  0.00    -0.650 OA
BRANCH  17  19
HETATM   19  O   UNK N   1      25.084  11.919  11.872  0.00  0.00    -0.776 OA
HETATM   20  H   UNK N   1      25.546  12.345  12.566  0.00  0.00     0.167 HD
ENDBRANCH  17  19
ENDBRANCH  16  17
ENDBRANCH  15  16
ENDBRANCH  14  15
ENDBRANCH   2  14
TORSDOF 8
ENDMDL
MODEL 2
REMARK VINA RESULT:      -5.5      3.370      6.914
REMARK  8 active torsions:
REMARK  status: ('A' for Active; 'I' for Inactive)
REMARK    1  A    between atoms: C_2  and  C_7 
REMARK    2  A    between atoms: C_7  and  C_8 
REMARK    3  A    between atoms: C_8  and  N_9 
REMARK       I    between atoms: N_9  and  C_10 
REMARK    4  A    between atoms: C_10  and  C_12 
REMARK    5  A    between atoms: C_12  and  C_13 
REMARK    6  A    between atoms: C_13  and  C_14 
REMARK    7  A    between atoms: C_14  and  C_15 
REMARK    8  A    between atoms: C_15  and  O_17 
ROOT
HETATM    1  N   UNK N   1      21.785  13.738   8.013  0.00  0.00    -0.361 N 
HETATM    2  C   UNK N   1      20.838  14.497   8.612  0.00  0.00     0.217 C 
HETATM    3  O   UNK N   1      19.894  13.956   9.179  0.00  0.00    -0.274 OA
HETATM    4  H   UNK N   1      22.547  14.161   7.555  0.00  0.00     0.162 HD
ENDROOT
BRANCH   1   5
HETATM    5  C   UNK N   1      21.666  12.302   8.052  0.00  0.00     0.128 C 
BRANCH   5   6
HETATM    6  C   UNK N   1      22.967  11.614   8.413  0.00  0.00     0.078 C 
BRANCH   6   7
HETATM    7  C   UNK N   1      23.245  11.823   9.872  0.00  0.00     0.027 A 
HETATM    8  C   UNK N   1      24.421  12.285  10.406  0.00  0.00     0.114 A 
HETATM    9  N   UNK N   1      24.274  12.332  11.745  0.00  0.00    -0.360 N 
HETATM   10  C   UNK N   1      23.019  11.901  11.996  0.00  0.00     0.180 A 
HETATM   11  H   UNK N   1      24.945  12.622  12.405  0.00  0.00     0.166 HD
HETATM   12  N   UNK N   1      22.367  11.582  10.863  0.00  0.00    -0.355 N 
ATOM     13  HN  UNK N   1      21.412  11.233  10.775  1.00  0.00     0.166 HD
ENDBRANCH   6   7
ENDBRANCH   5   6
ENDBRANCH   1   5
BRANCH   2  14
HETATM   14  C   UNK N   1      20.937  15.997   8.587  0.00  0.00     0.103 C 
BRANCH  14  15
HETATM   15  C   UNK N   1      19.619  16.592   8.111  0.00  0.00     0.019 C 
BRANCH  15  16
HETATM   16  C   UNK N   1      19.094  17.685   9.019  0.00  0.00     0.110 C 
BRANCH  16  17
HETATM   17  C   UNK N   1      17.679  17.391   9.428  0.00  0.00     0.139 C 
HETATM   18  O   UNK N   1      17.192  16.304   9.172  0.00  0.00    -0.650 OA
BRANCH  17  19
HETATM   19  O   UNK N   1      16.938  18.316  10.075  0.00  0.00    -0.776 OA
HETATM   20  H   UNK N   1      16.192  18.697   9.654  0.00  0.00     0.167 HD
ENDBRANCH  17  19
ENDBRANCH  16  17
ENDBRANCH  15  16
ENDBRANCH  14  15
ENDBRANCH   2  14
TORSDOF 8
ENDMDL
MODEL 3
REMARK VINA RESULT:      -5.4     14.246     16.040
REMARK  8 active torsions:
REMARK  status: ('A' for Active; 'I' for Inactive)
REMARK    1  A    between atoms: C_2  and  C_7 
REMARK    2  A    between atoms: C_7  and  C_8 
REMARK    3  A    between atoms: C_8  and  N_9 
REMARK       I    between atoms: N_9  and  C_10 
REMARK    4  A    between atoms: C_10  and  C_12 
REMARK    5  A    between atoms: C_12  and  C_13 
REMARK    6  A    between atoms: C_13  and  C_14 
REMARK    7  A    between atoms: C_14  and  C_15 
REMARK    8  A    between atoms: C_15  and  O_17 
ROOT
HETATM    1  N   UNK N   1      36.550  14.818  12.592  0.00  0.00    -0.361 N 
HETATM    2  C   UNK N   1      35.599  15.044  11.655  0.00  0.00     0.217 C 
HETATM    3  O   UNK N   1      34.441  14.700  11.869  0.00  0.00    -0.274 OA
HETATM    4  H   UNK N   1      37.482  15.090  12.431  0.00  0.00     0.162 HD
ENDROOT
BRANCH   1   5
HETATM    5  C   UNK N   1      36.182  14.175  13.828  0.00  0.00     0.128 C 
BRANCH   5   6
HETATM    6  C   UNK N   1      36.584  12.716  13.874  0.00  0.00     0.078 C 
BRANCH   6   7
HETATM    7  C   UNK N   1      35.348  11.866  13.922  0.00  0.00     0.027 A 
HETATM    8  C   UNK N   1      34.741  11.272  12.845  0.00  0.00     0.114 A 
HETATM    9  N   UNK N   1      33.666  10.599  13.300  0.00  0.00    -0.360 N 
HETATM   10  C   UNK N   1      33.641  10.797  14.635  0.00  0.00     0.180 A 
HETATM   11  H   UNK N   1      33.028  10.071  12.766  0.00  0.00     0.166 HD
HETATM   12  N   UNK N   1      34.663  11.571  15.042  0.00  0.00    -0.355 N 
ATOM     13  HN  UNK N   1      34.873  11.870  15.995  1.00  0.00     0.166 HD
ENDBRANCH   6   7
ENDBRANCH   5   6
ENDBRANCH   1   5
BRANCH   2  14
HETATM   14  C   UNK N   1      35.955  15.712  10.356  0.00  0.00     0.103 C 
BRANCH  14  15
HETATM   15  C   UNK N   1      35.245  17.056  10.257  0.00  0.00     0.019 C 
BRANCH  15  16
HETATM   16  C   UNK N   1      34.272  17.133   9.099  0.00  0.00     0.110 C 
BRANCH  16  17
HETATM   17  C   UNK N   1      34.676  18.224   8.147  0.00  0.00     0.139 C 
HETATM   18  O   UNK N   1      35.270  19.201   8.569  0.00  0.00    -0.650 OA
BRANCH  17  19
HETATM   19  O   UNK N   1      34.389  18.137   6.831  0.00  0.00    -0.776 OA
HETATM   20  H   UNK N   1      33.918  18.827   6.407  0.00  0.00     0.167 HD
ENDBRANCH  17  19
ENDBRANCH  16  17
ENDBRANCH  15  16
ENDBRANCH  14  15
ENDBRANCH   2  14
TORSDOF 8
ENDMDL
MODEL 4
REMARK VINA RESULT:      -5.4     11.673     14.240
REMARK  8 active torsions:
REMARK  status: ('A' for Active; 'I' for Inactive)
REMARK    1  A    between atoms: C_2  and  C_7 
REMARK    2  A    between atoms: C_7  and  C_8 
REMARK    3  A    between atoms: C_8  and  N_9 
REMARK       I    between atoms: N_9  and  C_10 
REMARK    4  A    between atoms: C_10  and  C_12 
REMARK    5  A    between atoms: C_12  and  C_13 
REMARK    6  A    between atoms: C_13  and  C_14 
REMARK    7  A    between atoms: C_14  and  C_15 
REMARK    8  A    between atoms: C_15  and  O_17 
ROOT
HETATM    1  N   UNK N   1      33.746  16.629   9.240  0.00  0.00    -0.361 N 
HETATM    2  C   UNK N   1      33.581  17.315   8.085  0.00  0.00     0.217 C 
HETATM    3  O   UNK N   1      34.550  17.541   7.369  0.00  0.00    -0.274 OA
HETATM    4  H   UNK N   1      32.975  16.441   9.823  0.00  0.00     0.162 HD
ENDROOT
BRANCH   1   5
HETATM    5  C   UNK N   1      35.064  16.175   9.608  0.00  0.00     0.128 C 
BRANCH   5   6
HETATM    6  C   UNK N   1      35.436  16.542  11.030  0.00  0.00     0.078 C 
BRANCH   6   7
HETATM    7  C   UNK N   1      35.554  15.288  11.846  0.00  0.00     0.027 A 
HETATM    8  C   UNK N   1      34.823  14.141  11.664  0.00  0.00     0.114 A 
HETATM    9  N   UNK N   1      35.222  13.249  12.592  0.00  0.00    -0.360 N 
HETATM   10  C   UNK N   1      36.180  13.867  13.314  0.00  0.00     0.180 A 
HETATM   11  H   UNK N   1      34.883  12.333  12.716  0.00  0.00     0.166 HD
HETATM   12  N   UNK N   1      36.403  15.120  12.876  0.00  0.00    -0.355 N 
ATOM     13  HN  UNK N   1      37.071  15.796  13.246  1.00  0.00     0.166 HD
ENDBRANCH   6   7
ENDBRANCH   5   6
ENDBRANCH   1   5
BRANCH   2  14
HETATM   14  C   UNK N   1      32.217  17.800   7.677  0.00  0.00     0.103 C 
BRANCH  14  15
HETATM   15  C   UNK N   1      31.180  17.335   8.690  0.00  0.00     0.019 C 
BRANCH  15  16
HETATM   16  C   UNK N   1      29.756  17.598   8.250  0.00  0.00     0.110 C 
BRANCH  16  17
HETATM   17  C   UNK N   1      28.978  18.253   9.356  0.00  0.00     0.139 C 
HETATM   18  O   UNK N   1      29.573  18.816  10.258  0.00  0.00    -0.650 OA
BRANCH  17  19
HETATM   19  O   UNK N   1      27.628  18.228   9.365  0.00  0.00    -0.776 OA
HETATM   20  H   UNK N   1      27.151  18.364   8.570  0.00  0.00     0.167 HD
ENDBRANCH  17  19
ENDBRANCH  16  17
ENDBRANCH  15  16
ENDBRANCH  14  15
ENDBRANCH   2  14
TORSDOF 8
ENDMDL
MODEL 5
REMARK VINA RESULT:      -5.3     13.480     15.448
REMARK  8 active torsions:
REMARK  status: ('A' for Active; 'I' for Inactive)
REMARK    1  A    between atoms: C_2  and  C_7 
REMARK    2  A    between atoms: C_7  and  C_8 
REMARK    3  A    between atoms: C_8  and  N_9 
REMARK       I    between atoms: N_9  and  C_10 
REMARK    4  A    between atoms: C_10  and  C_12 
REMARK    5  A    between atoms: C_12  and  C_13 
REMARK    6  A    between atoms: C_13  and  C_14 
REMARK    7  A    between atoms: C_14  and  C_15 
REMARK    8  A    between atoms: C_15  and  O_17 
ROOT
HETATM    1  N   UNK N   1      36.692  14.434  13.019  0.00  0.00    -0.361 N 
HETATM    2  C   UNK N   1      35.993  13.839  14.015  0.00  0.00     0.217 C 
HETATM    3  O   UNK N   1      34.865  13.410  13.794  0.00  0.00    -0.274 OA
HETATM    4  H   UNK N   1      37.597  14.781  13.185  0.00  0.00     0.162 HD
ENDROOT
BRANCH   1   5
HETATM    5  C   UNK N   1      36.093  14.552  11.713  0.00  0.00     0.128 C 
BRANCH   5   6
HETATM    6  C   UNK N   1      35.960  15.990  11.257  0.00  0.00     0.078 C 
BRANCH   6   7
HETATM    7  C   UNK N   1      34.830  16.091  10.274  0.00  0.00     0.027 A 
HETATM    8  C   UNK N   1      34.048  15.050   9.842  0.00  0.00     0.114 A 
HETATM    9  N   UNK N   1      33.150  15.546   8.968  0.00  0.00    -0.360 N 
HETATM   10  C   UNK N   1      33.403  16.870   8.887  0.00  0.00     0.180 A 
HETATM   11  H   UNK N   1      32.452  15.045   8.488  0.00  0.00     0.166 HD
HETATM   12  N   UNK N   1      34.429  17.230   9.679  0.00  0.00    -0.355 N 
ATOM     13  HN  UNK N   1      34.820  18.164   9.802  1.00  0.00     0.166 HD
ENDBRANCH   6   7
ENDBRANCH   5   6
ENDBRANCH   1   5
BRANCH   2  14
HETATM   14  C   UNK N   1      36.592  13.702  15.387  0.00  0.00     0.103 C 
BRANCH  14  15
HETATM   15  C   UNK N   1      35.788  12.698  16.202  0.00  0.00     0.019 C 
BRANCH  15  16
HETATM   16  C   UNK N   1      34.714  13.343  17.053  0.00  0.00     0.110 C 
BRANCH  16  17
HETATM   17  C   UNK N   1      35.308  13.890  18.321  0.00  0.00     0.139 C 
HETATM   18  O   UNK N   1      35.401  13.171  19.300  0.00  0.00    -0.650 OA
BRANCH  17  19
HETATM   19  O   UNK N   1      35.740  15.167  18.390  0.00  0.00    -0.776 OA
HETATM   20  H   UNK N   1      36.629  15.373  18.179  0.00  0.00     0.167 HD
ENDBRANCH  17  19
ENDBRANCH  16  17
ENDBRANCH  15  16
ENDBRANCH  14  15
ENDBRANCH   2  14
TORSDOF 8
ENDMDL
MODEL 6
REMARK VINA RESULT:      -5.3      7.701      8.786
REMARK  8 active torsions:
REMARK  status: ('A' for Active; 'I' for Inactive)
REMARK    1  A    between atoms: C_2  and  C_7 
REMARK    2  A    between atoms: C_7  and  C_8 
REMARK    3  A    between atoms: C_8  and  N_9 
REMARK       I    between atoms: N_9  and  C_10 
REMARK    4  A    between atoms: C_10  and  C_12 
REMARK    5  A    between atoms: C_12  and  C_13 
REMARK    6  A    between atoms: C_13  and  C_14 
REMARK    7  A    between atoms: C_14  and  C_15 
REMARK    8  A    between atoms: C_15  and  O_17 
ROOT
HETATM    1  N   UNK N   1      24.323  18.924   4.151  0.00  0.00    -0.361 N 
HETATM    2  C   UNK N   1      24.431  20.080   3.455  0.00  0.00     0.217 C 
HETATM    3  O   UNK N   1      23.436  20.774   3.272  0.00  0.00    -0.274 OA
HETATM    4  H   UNK N   1      25.114  18.359   4.304  0.00  0.00     0.162 HD
ENDROOT
BRANCH   1   5
HETATM    5  C   UNK N   1      23.036  18.529   4.666  0.00  0.00     0.128 C 
BRANCH   5   6
HETATM    6  C   UNK N   1      22.355  17.484   3.807  0.00  0.00     0.078 C 
BRANCH   6   7
HETATM    7  C   UNK N   1      21.099  18.065   3.228  0.00  0.00     0.027 A 
HETATM    8  C   UNK N   1      20.160  17.380   2.499  0.00  0.00     0.114 A 
HETATM    9  N   UNK N   1      19.188  18.251   2.161  0.00  0.00    -0.360 N 
HETATM   10  C   UNK N   1      19.553  19.439   2.688  0.00  0.00     0.180 A 
HETATM   11  H   UNK N   1      18.377  18.058   1.637  0.00  0.00     0.166 HD
HETATM   12  N   UNK N   1      20.723  19.352   3.347  0.00  0.00    -0.355 N 
ATOM     13  HN  UNK N   1      21.217  20.100   3.833  1.00  0.00     0.166 HD
ENDBRANCH   6   7
ENDBRANCH   5   6
ENDBRANCH   1   5
BRANCH   2  14
HETATM   14  C   UNK N   1      25.760  20.516   2.906  0.00  0.00     0.103 C 
BRANCH  14  15
HETATM   15  C   UNK N   1      26.883  19.805   3.649  0.00  0.00     0.019 C 
BRANCH  15  16
HETATM   16  C   UNK N   1      27.367  20.563   4.867  0.00  0.00     0.110 C 
BRANCH  16  17
HETATM   17  C   UNK N   1      27.180  19.736   6.107  0.00  0.00     0.139 C 
HETATM   18  O   UNK N   1      27.497  20.196   7.190  0.00  0.00    -0.650 OA
BRANCH  17  19
HETATM   19  O   UNK N   1      26.667  18.489   6.039  0.00  0.00    -0.776 OA
HETATM   20  H   UNK N   1      26.210  18.211   5.270  0.00  0.00     0.167 HD
ENDBRANCH  17  19
ENDBRANCH  16  17
ENDBRANCH  15  16
ENDBRANCH  14  15
ENDBRANCH   2  14
TORSDOF 8
ENDMDL
MODEL 7
REMARK VINA RESULT:      -5.2     12.352     15.135
REMARK  8 active torsions:
REMARK  status: ('A' for Active; 'I' for Inactive)
REMARK    1  A    between atoms: C_2  and  C_7 
REMARK    2  A    between atoms: C_7  and  C_8 
REMARK    3  A    between atoms: C_8  and  N_9 
REMARK       I    between atoms: N_9  and  C_10 
REMARK    4  A    between atoms: C_10  and  C_12 
REMARK    5  A    between atoms: C_12  and  C_13 
REMARK    6  A    between atoms: C_13  and  C_14 
REMARK    7  A    between atoms: C_14  and  C_15 
REMARK    8  A    between atoms: C_15  and  O_17 
ROOT
HETATM    1  N   UNK N   1      33.521  15.115  10.756  0.00  0.00    -0.361 N 
HETATM    2  C   UNK N   1      32.897  14.842   9.586  0.00  0.00     0.217 C 
HETATM    3  O   UNK N   1      33.291  13.912   8.890  0.00  0.00    -0.274 OA
HETATM    4  H   UNK N   1      33.215  15.859  11.323  0.00  0.00     0.162 HD
ENDROOT
BRANCH   1   5
HETATM    5  C   UNK N   1      34.642  14.304  11.163  0.00  0.00     0.128 C 
BRANCH   5   6
HETATM    6  C   UNK N   1      35.707  15.097  11.891  0.00  0.00     0.078 C 
BRANCH   6   7
HETATM    7  C   UNK N   1      35.985  14.446  13.214  0.00  0.00     0.027 A 
HETATM    8  C   UNK N   1      35.414  13.285  13.673  0.00  0.00     0.114 A 
HETATM    9  N   UNK N   1      35.921  13.034  14.896  0.00  0.00    -0.360 N 
HETATM   10  C   UNK N   1      36.784  14.039  15.155  0.00  0.00     0.180 A 
HETATM   11  H   UNK N   1      35.705  12.271  15.480  0.00  0.00     0.166 HD
HETATM   12  N   UNK N   1      36.841  14.919  14.138  0.00  0.00    -0.355 N 
ATOM     13  HN  UNK N   1      37.412  15.763  14.081  1.00  0.00     0.166 HD
ENDBRANCH   6   7
ENDBRANCH   5   6
ENDBRANCH   1   5
BRANCH   2  14
HETATM   14  C   UNK N   1      31.726  15.672   9.137  0.00  0.00     0.103 C 
BRANCH  14  15
HETATM   15  C   UNK N   1      32.124  16.515   7.933  0.00  0.00     0.019 C 
BRANCH  15  16
HETATM   16  C   UNK N   1      32.598  17.903   8.306  0.00  0.00     0.110 C 
BRANCH  16  17
HETATM   17  C   UNK N   1      34.075  18.036   8.060  0.00  0.00     0.139 C 
HETATM   18  O   UNK N   1      34.842  18.062   9.007  0.00  0.00    -0.650 OA
BRANCH  17  19
HETATM   19  O   UNK N   1      34.563  18.128   6.805  0.00  0.00    -0.776 OA
HETATM   20  H   UNK N   1      34.698  17.353   6.297  0.00  0.00     0.167 HD
ENDBRANCH  17  19
ENDBRANCH  16  17
ENDBRANCH  15  16
ENDBRANCH  14  15
ENDBRANCH   2  14
TORSDOF 8
ENDMDL
MODEL 8
REMARK VINA RESULT:      -5.2      2.944      3.578
REMARK  8 active torsions:
REMARK  status: ('A' for Active; 'I' for Inactive)
REMARK    1  A    between atoms: C_2  and  C_7 
REMARK    2  A    between atoms: C_7  and  C_8 
REMARK    3  A    between atoms: C_8  and  N_9 
REMARK       I    between atoms: N_9  and  C_10 
REMARK    4  A    between atoms: C_10  and  C_12 
REMARK    5  A    between atoms: C_12  and  C_13 
REMARK    6  A    between atoms: C_13  and  C_14 
REMARK    7  A    between atoms: C_14  and  C_15 
REMARK    8  A    between atoms: C_15  and  O_17 
ROOT
HETATM    1  N   UNK N   1      21.001  14.464   8.263  0.00  0.00    -0.361 N 
HETATM    2  C   UNK N   1      20.335  14.120   9.391  0.00  0.00     0.217 C 
HETATM    3  O   UNK N   1      19.214  14.574   9.597  0.00  0.00    -0.274 OA
HETATM    4  H   UNK N   1      21.901  14.106   8.087  0.00  0.00     0.162 HD
ENDROOT
BRANCH   1   5
HETATM    5  C   UNK N   1      20.377  15.362   7.323  0.00  0.00     0.128 C 
BRANCH   5   6
HETATM    6  C   UNK N   1      21.147  16.654   7.146  0.00  0.00     0.078 C 
BRANCH   6   7
HETATM    7  C   UNK N   1      20.882  17.199   5.773  0.00  0.00     0.027 A 
HETATM    8  C   UNK N   1      21.397  18.362   5.259  0.00  0.00     0.114 A 
HETATM    9  N   UNK N   1      20.925  18.502   4.005  0.00  0.00    -0.360 N 
HETATM   10  C   UNK N   1      20.138  17.428   3.783  0.00  0.00     0.180 A 
HETATM   11  H   UNK N   1      21.116  19.237   3.378  0.00  0.00     0.166 HD
HETATM   12  N   UNK N   1      20.095  16.613   4.853  0.00  0.00    -0.355 N 
ATOM     13  HN  UNK N   1      19.577  15.739   4.946  1.00  0.00     0.166 HD
ENDBRANCH   6   7
ENDBRANCH   5   6
ENDBRANCH   1   5
BRANCH   2  14
HETATM   14  C   UNK N   1      20.961  13.186  10.389  0.00  0.00     0.103 C 
BRANCH  14  15
HETATM   15  C   UNK N   1      22.394  12.878   9.978  0.00  0.00     0.019 C 
BRANCH  15  16
HETATM   16  C   UNK N   1      22.941  11.619  10.617  0.00  0.00     0.110 C 
BRANCH  16  17
HETATM   17  C   UNK N   1      23.710  11.956  11.863  0.00  0.00     0.139 C 
HETATM   18  O   UNK N   1      23.161  11.878  12.948  0.00  0.00    -0.650 OA
BRANCH  17  19
HETATM   19  O   UNK N   1      25.002  12.344  11.798  0.00  0.00    -0.776 OA
HETATM   20  H   UNK N   1      25.366  12.627  10.983  0.00  0.00     0.167 HD
ENDBRANCH  17  19
ENDBRANCH  16  17
ENDBRANCH  15  16
ENDBRANCH  14  15
ENDBRANCH   2  14
TORSDOF 8
ENDMDL
MODEL 9
REMARK VINA RESULT:      -5.1     10.014     10.947
REMARK  8 active torsions:
REMARK  status: ('A' for Active; 'I' for Inactive)
REMARK    1  A    between atoms: C_2  and  C_7 
REMARK    2  A    between atoms: C_7  and  C_8 
REMARK    3  A    between atoms: C_8  and  N_9 
REMARK       I    between atoms: N_9  and  C_10 
REMARK    4  A    between atoms: C_10  and  C_12 
REMARK    5  A    between atoms: C_12  and  C_13 
REMARK    6  A    between atoms: C_13  and  C_14 
REMARK    7  A    between atoms: C_14  and  C_15 
REMARK    8  A    between atoms: C_15  and  O_17 
ROOT
HETATM    1  N   UNK N   1      29.409  17.532   6.680  0.00  0.00    -0.361 N 
HETATM    2  C   UNK N   1      30.692  17.169   6.447  0.00  0.00     0.217 C 
HETATM    3  O   UNK N   1      31.177  17.332   5.332  0.00  0.00    -0.274 OA
HETATM    4  H   UNK N   1      29.008  17.406   7.570  0.00  0.00     0.162 HD
ENDROOT
BRANCH   1   5
HETATM    5  C   UNK N   1      28.634  18.107   5.608  0.00  0.00     0.128 C 
BRANCH   5   6
HETATM    6  C   UNK N   1      27.793  19.284   6.058  0.00  0.00     0.078 C 
BRANCH   6   7
HETATM    7  C   UNK N   1      26.729  19.547   5.033  0.00  0.00     0.027 A 
HETATM    8  C   UNK N   1      26.936  20.045   3.771  0.00  0.00     0.114 A 
HETATM    9  N   UNK N   1      25.736  20.136   3.164  0.00  0.00    -0.360 N 
HETATM   10  C   UNK N   1      24.830  19.694   4.062  0.00  0.00     0.180 A 
HETATM   11  H   UNK N   1      25.558  20.458   2.251  0.00  0.00     0.166 HD
HETATM   12  N   UNK N   1      25.414  19.327   5.218  0.00  0.00    -0.355 N 
ATOM     13  HN  UNK N   1      24.958  18.961   6.054  1.00  0.00     0.166 HD
ENDBRANCH   6   7
ENDBRANCH   5   6
ENDBRANCH   1   5
BRANCH   2  14
HETATM   14  C   UNK N   1      31.523  16.567   7.546  0.00  0.00     0.103 C 
BRANCH  14  15
HETATM   15  C   UNK N   1      32.116  17.673   8.408  0.00  0.00     0.019 C 
BRANCH  15  16
HETATM   16  C   UNK N   1      33.559  17.422   8.792  0.00  0.00     0.110 C 
BRANCH  16  17
HETATM   17  C   UNK N   1      34.478  18.269   7.958  0.00  0.00     0.139 C 
HETATM   18  O   UNK N   1      34.500  18.122   6.749  0.00  0.00    -0.650 OA
BRANCH  17  19
HETATM   19  O   UNK N   1      35.281  19.192   8.530  0.00  0.00    -0.776 OA
HETATM   20  H   UNK N   1      35.224  19.357   9.450  0.00  0.00     0.167 HD
ENDBRANCH  17  19
ENDBRANCH  16  17
ENDBRANCH  15  16
ENDBRANCH  14  15
ENDBRANCH   2  14
TORSDOF 8
ENDMDL
