MODEL 1
REMARK VINA RESULT:      -5.4      0.000      0.000
REMARK  1 active torsions:
REMARK  status: ('A' for Active; 'I' for Inactive)
REMARK    1  A    between atoms: C_5  and  C_9 
ROOT
HETATM    1  C   UNK N   1      31.506  16.529   8.610  0.00  0.00     0.049 C 
HETATM    2  C   UNK N   1      30.430  17.164   7.806  0.00  0.00    -0.047 A 
HETATM    3  C   UNK N   1      29.518  18.037   8.401  0.00  0.00     0.010 A 
HETATM    4  C   UNK N   1      28.512  18.624   7.627  0.00  0.00     0.032 A 
HETATM    5  C   UNK N   1      28.436  18.324   6.258  0.00  0.00     0.059 A 
HETATM    6  N   UNK N   1      29.342  17.467   5.708  0.00  0.00    -0.364 N 
ATOM      7  HN  UNK N   1      29.279  17.255   4.712  1.00  0.00     0.165 HD
HETATM    8  C   UNK N   1      30.325  16.888   6.445  0.00  0.00     0.095 A 
ENDROOT
BRANCH   5   9
HETATM    9  C   UNK N   1      27.398  18.912   5.392  0.00  0.00     0.059 A 
HETATM   10  C   UNK N   1      27.706  19.879   4.422  0.00  0.00     0.032 A 
HETATM   11  C   UNK N   1      26.682  20.403   3.629  0.00  0.00     0.010 A 
HETATM   12  C   UNK N   1      25.370  19.961   3.809  0.00  0.00    -0.047 A 
HETATM   13  C   UNK N   1      25.099  19.001   4.781  0.00  0.00     0.095 A 
HETATM   14  C   UNK N   1      24.266  20.505   2.976  0.00  0.00     0.049 C 
HETATM   15  N   UNK N   1      26.107  18.502   5.543  0.00  0.00    -0.364 N 
ATOM     16  HN  UNK N   1      25.891  17.799   6.250  1.00  0.00     0.165 HD
ENDBRANCH   5   9
TORSDOF 1
ENDMDL
MODEL 2
REMARK VINA RESULT:      -5.3     13.327     14.766
REMARK  1 active torsions:
REMARK  status: ('A' for Active; 'I' for Inactive)
REMARK    1  A    between atoms: C_5  and  C_9 
ROOT
HETATM    1  C   UNK N   1      26.569  30.342  -3.699  0.00  0.00     0.049 C 
HETATM    2  C   UNK N   1      26.428  29.048  -4.417  0.00  0.00    -0.047 A 
HETATM    3  C   UNK N   1      27.134  28.810  -5.598  0.00  0.00     0.010 A 
HETATM    4  C   UNK N   1      26.987  27.586  -6.259  0.00  0.00     0.032 A 
HETATM    5  C   UNK N   1      26.130  26.613  -5.721  0.00  0.00     0.059 A 
HETATM    6  N   UNK N   1      25.456  26.878  -4.567  0.00  0.00    -0.364 N 
ATOM      7  HN  UNK N   1      24.835  26.166  -4.183  1.00  0.00     0.165 HD
HETATM    8  C   UNK N   1      25.586  28.061  -3.912  0.00  0.00     0.095 A 
ENDROOT
BRANCH   5   9
HETATM    9  C   UNK N   1      25.936  25.306  -6.373  0.00  0.00     0.059 A 
HETATM   10  C   UNK N   1      25.940  24.108  -5.641  0.00  0.00     0.032 A 
HETATM   11  C   UNK N   1      25.751  22.896  -6.312  0.00  0.00     0.010 A 
HETATM   12  C   UNK N   1      25.562  22.891  -7.695  0.00  0.00    -0.047 A 
HETATM   13  C   UNK N   1      25.564  24.097  -8.390  0.00  0.00     0.095 A 
HETATM   14  C   UNK N   1      25.360  21.613  -8.427  0.00  0.00     0.049 C 
HETATM   15  N   UNK N   1      25.748  25.266  -7.723  0.00  0.00    -0.364 N 
ATOM     16  HN  UNK N   1      25.747  26.141  -8.247  1.00  0.00     0.165 HD
ENDBRANCH   5   9
TORSDOF 1
ENDMDL
MODEL 3
REMARK VINA RESULT:      -5.3      6.893     10.092
REMARK  1 active torsions:
REMARK  status: ('A' for Active; 'I' for Inactive)
REMARK    1  A    between atoms: C_5  and  C_9 
ROOT
HETATM    1  C   UNK N   1      36.405  11.846  15.605  0.00  0.00     0.049 C 
HETATM    2  C   UNK N   1      35.981  12.697  14.463  0.00  0.00    -0.047 A 
HETATM    3  C   UNK N   1      36.573  13.942  14.245  0.00  0.00     0.010 A 
HETATM    4  C   UNK N   1      36.160  14.727  13.164  0.00  0.00     0.032 A 
HETATM    5  C   UNK N   1      35.153  14.248  12.312  0.00  0.00     0.059 A 
HETATM    6  N   UNK N   1      34.596  13.028  12.553  0.00  0.00    -0.364 N 
ATOM      7  HN  UNK N   1      33.864  12.687  11.929  1.00  0.00     0.165 HD
HETATM    8  C   UNK N   1      34.985  12.252  13.598  0.00  0.00     0.095 A 
ENDROOT
BRANCH   5   9
HETATM    9  C   UNK N   1      34.677  15.032  11.158  0.00  0.00     0.059 A 
HETATM   10  C   UNK N   1      35.330  16.202  10.741  0.00  0.00     0.032 A 
HETATM   11  C   UNK N   1      34.835  16.906   9.639  0.00  0.00     0.010 A 
HETATM   12  C   UNK N   1      33.703  16.438   8.969  0.00  0.00    -0.047 A 
HETATM   13  C   UNK N   1      33.080  15.273   9.409  0.00  0.00     0.095 A 
HETATM   14  C   UNK N   1      33.161  17.171   7.795  0.00  0.00     0.049 C 
HETATM   15  N   UNK N   1      33.575  14.602  10.482  0.00  0.00    -0.364 N 
ATOM     16  HN  UNK N   1      33.107  13.750  10.791  1.00  0.00     0.165 HD
ENDBRANCH   5   9
TORSDOF 1
ENDMDL
MODEL 4
REMARK VINA RESULT:      -5.3     11.141     13.187
REMARK  1 active torsions:
REMARK  status: ('A' for Active; 'I' for Inactive)
REMARK    1  A    between atoms: C_5  and  C_9 
ROOT
HETATM    1  C   UNK N   1      38.020  13.583   8.108  0.00  0.00     0.049 C 
HETATM    2  C   UNK N   1      37.516  13.538   9.506  0.00  0.00    -0.047 A 
HETATM    3  C   UNK N   1      36.215  13.946   9.806  0.00  0.00     0.010 A 
HETATM    4  C   UNK N   1      35.759  13.897  11.127  0.00  0.00     0.032 A 
HETATM    5  C   UNK N   1      36.621  13.435  12.134  0.00  0.00     0.059 A 
HETATM    6  N   UNK N   1      37.885  13.044  11.807  0.00  0.00    -0.364 N 
ATOM      7  HN  UNK N   1      38.505  12.710  12.545  1.00  0.00     0.165 HD
HETATM    8  C   UNK N   1      38.345  13.086  10.530  0.00  0.00     0.095 A 
ENDROOT
BRANCH   5   9
HETATM    9  C   UNK N   1      36.197  13.361  13.543  0.00  0.00     0.059 A 
HETATM   10  C   UNK N   1      35.099  12.582  13.943  0.00  0.00     0.032 A 
HETATM   11  C   UNK N   1      34.740  12.548  15.294  0.00  0.00     0.010 A 
HETATM   12  C   UNK N   1      35.474  13.285  16.225  0.00  0.00    -0.047 A 
HETATM   13  C   UNK N   1      36.558  14.047  15.794  0.00  0.00     0.095 A 
HETATM   14  C   UNK N   1      35.110  13.263  17.666  0.00  0.00     0.049 C 
HETATM   15  N   UNK N   1      36.892  14.068  14.477  0.00  0.00    -0.364 N 
ATOM     16  HN  UNK N   1      37.689  14.631  14.178  1.00  0.00     0.165 HD
ENDBRANCH   5   9
TORSDOF 1
ENDMDL
MODEL 5
REMARK VINA RESULT:      -5.2      7.747     11.965
REMARK  1 active torsions:
REMARK  status: ('A' for Active; 'I' for Inactive)
REMARK    1  A    between atoms: C_5  and  C_9 
ROOT
HETATM    1  C   UNK N   1      34.063  16.897   8.117  0.00  0.00     0.049 C 
HETATM    2  C   UNK N   1      34.417  16.145   9.349  0.00  0.00    -0.047 A 
HETATM    3  C   UNK N   1      35.307  16.683  10.280  0.00  0.00     0.010 A 
HETATM    4  C   UNK N   1      35.627  15.960  11.433  0.00  0.00     0.032 A 
HETATM    5  C   UNK N   1      35.045  14.699  11.637  0.00  0.00     0.059 A 
HETATM    6  N   UNK N   1      34.179  14.202  10.709  0.00  0.00    -0.364 N 
ATOM      7  HN  UNK N   1      33.760  13.285  10.864  1.00  0.00     0.165 HD
HETATM    8  C   UNK N   1      33.857  14.891   9.583  0.00  0.00     0.095 A 
ENDROOT
BRANCH   5   9
HETATM    9  C   UNK N   1      35.344  13.891  12.833  0.00  0.00     0.059 A 
HETATM   10  C   UNK N   1      36.339  14.269  13.748  0.00  0.00     0.032 A 
HETATM   11  C   UNK N   1      36.581  13.464  14.866  0.00  0.00     0.010 A 
HETATM   12  C   UNK N   1      35.834  12.301  15.058  0.00  0.00    -0.047 A 
HETATM   13  C   UNK N   1      34.854  11.957  14.130  0.00  0.00     0.095 A 
HETATM   14  C   UNK N   1      36.075  11.432  16.239  0.00  0.00     0.049 C 
HETATM   15  N   UNK N   1      34.632  12.749  13.050  0.00  0.00    -0.364 N 
ATOM     16  HN  UNK N   1      33.911  12.482  12.379  1.00  0.00     0.165 HD
ENDBRANCH   5   9
TORSDOF 1
ENDMDL
MODEL 6
REMARK VINA RESULT:      -5.1      1.537      6.069
REMARK  1 active torsions:
REMARK  status: ('A' for Active; 'I' for Inactive)
REMARK    1  A    between atoms: C_5  and  C_9 
ROOT
HETATM    1  C   UNK N   1      24.455  20.438   2.753  0.00  0.00     0.049 C 
HETATM    2  C   UNK N   1      25.649  19.773   3.336  0.00  0.00    -0.047 A 
HETATM    3  C   UNK N   1      25.592  18.439   3.743  0.00  0.00     0.010 A 
HETATM    4  C   UNK N   1      26.727  17.831   4.289  0.00  0.00     0.032 A 
HETATM    5  C   UNK N   1      27.909  18.576   4.421  0.00  0.00     0.059 A 
HETATM    6  N   UNK N   1      27.931  19.876   4.015  0.00  0.00    -0.364 N 
ATOM      7  HN  UNK N   1      28.794  20.410   4.114  1.00  0.00     0.165 HD
HETATM    8  C   UNK N   1      26.839  20.483   3.481  0.00  0.00     0.095 A 
ENDROOT
BRANCH   5   9
HETATM    9  C   UNK N   1      29.135  17.989   4.990  0.00  0.00     0.059 A 
HETATM   10  C   UNK N   1      29.180  17.506   6.308  0.00  0.00     0.032 A 
HETATM   11  C   UNK N   1      30.371  16.959   6.796  0.00  0.00     0.010 A 
HETATM   12  C   UNK N   1      31.495  16.899   5.971  0.00  0.00    -0.047 A 
HETATM   13  C   UNK N   1      31.416  17.387   4.669  0.00  0.00     0.095 A 
HETATM   14  C   UNK N   1      32.771  16.322   6.470  0.00  0.00     0.049 C 
HETATM   15  N   UNK N   1      30.251  17.915   4.211  0.00  0.00    -0.364 N 
ATOM     16  HN  UNK N   1      30.210  18.268   3.255  1.00  0.00     0.165 HD
ENDBRANCH   5   9
TORSDOF 1
ENDMDL
MODEL 7
REMARK VINA RESULT:      -5.1     11.085     14.246
REMARK  1 active torsions:
REMARK  status: ('A' for Active; 'I' for Inactive)
REMARK    1  A    between atoms: C_5  and  C_9 
ROOT
HETATM    1  C   UNK N   1      35.633  10.660  20.514  0.00  0.00     0.049 C 
HETATM    2  C   UNK N   1      35.620  11.265  19.156  0.00  0.00    -0.047 A 
HETATM    3  C   UNK N   1      35.174  12.573  18.964  0.00  0.00     0.010 A 
HETATM    4  C   UNK N   1      35.169  13.124  17.679  0.00  0.00     0.032 A 
HETATM    5  C   UNK N   1      35.614  12.348  16.598  0.00  0.00     0.059 A 
HETATM    6  N   UNK N   1      36.044  11.074  16.819  0.00  0.00    -0.364 N 
ATOM      7  HN  UNK N   1      36.366  10.517  16.027  1.00  0.00     0.165 HD
HETATM    8  C   UNK N   1      36.055  10.523  18.060  0.00  0.00     0.095 A 
ENDROOT
BRANCH   5   9
HETATM    9  C   UNK N   1      35.632  12.875  15.221  0.00  0.00     0.059 A 
HETATM   10  C   UNK N   1      36.379  14.012  14.876  0.00  0.00     0.032 A 
HETATM   11  C   UNK N   1      36.359  14.468  13.554  0.00  0.00     0.010 A 
HETATM   12  C   UNK N   1      35.600  13.791  12.599  0.00  0.00    -0.047 A 
HETATM   13  C   UNK N   1      34.871  12.666  12.976  0.00  0.00     0.095 A 
HETATM   14  C   UNK N   1      35.565  14.259  11.188  0.00  0.00     0.049 C 
HETATM   15  N   UNK N   1      34.902  12.237  14.264  0.00  0.00    -0.364 N 
ATOM     16  HN  UNK N   1      34.361  11.411  14.524  1.00  0.00     0.165 HD
ENDBRANCH   5   9
TORSDOF 1
ENDMDL
MODEL 8
REMARK VINA RESULT:      -5.1     12.883     13.753
REMARK  1 active torsions:
REMARK  status: ('A' for Active; 'I' for Inactive)
REMARK    1  A    between atoms: C_5  and  C_9 
ROOT
HETATM    1  C   UNK N   1      29.706  19.007  -8.141  0.00  0.00     0.049 C 
HETATM    2  C   UNK N   1      28.995  20.238  -7.705  0.00  0.00    -0.047 A 
HETATM    3  C   UNK N   1      29.561  21.085  -6.751  0.00  0.00     0.010 A 
HETATM    4  C   UNK N   1      28.877  22.238  -6.355  0.00  0.00     0.032 A 
HETATM    5  C   UNK N   1      27.627  22.526  -6.925  0.00  0.00     0.059 A 
HETATM    6  N   UNK N   1      27.103  21.677  -7.853  0.00  0.00    -0.364 N 
ATOM      7  HN  UNK N   1      26.194  21.894  -8.263  1.00  0.00     0.165 HD
HETATM    8  C   UNK N   1      27.753  20.553  -8.250  0.00  0.00     0.095 A 
ENDROOT
BRANCH   5   9
HETATM    9  C   UNK N   1      26.860  23.726  -6.546  0.00  0.00     0.059 A 
HETATM   10  C   UNK N   1      26.442  23.948  -5.225  0.00  0.00     0.032 A 
HETATM   11  C   UNK N   1      25.716  25.105  -4.921  0.00  0.00     0.010 A 
HETATM   12  C   UNK N   1      25.419  26.021  -5.932  0.00  0.00    -0.047 A 
HETATM   13  C   UNK N   1      25.850  25.770  -7.232  0.00  0.00     0.095 A 
HETATM   14  C   UNK N   1      24.650  27.256  -5.631  0.00  0.00     0.049 C 
HETATM   15  N   UNK N   1      26.554  24.641  -7.509  0.00  0.00    -0.364 N 
ATOM     16  HN  UNK N   1      26.862  24.472  -8.466  1.00  0.00     0.165 HD
ENDBRANCH   5   9
TORSDOF 1
ENDMDL
MODEL 9
REMARK VINA RESULT:      -5.1     11.059     14.611
REMARK  1 active torsions:
REMARK  status: ('A' for Active; 'I' for Inactive)
REMARK    1  A    between atoms: C_5  and  C_9 
ROOT
HETATM    1  C   UNK N   1      35.907  14.600  10.795  0.00  0.00     0.049 C 
HETATM    2  C   UNK N   1      35.784  14.055  12.172  0.00  0.00    -0.047 A 
HETATM    3  C   UNK N   1      35.123  12.847  12.402  0.00  0.00     0.010 A 
HETATM    4  C   UNK N   1      35.018  12.351  13.705  0.00  0.00     0.032 A 
HETATM    5  C   UNK N   1      35.582  13.079  14.765  0.00  0.00     0.059 A 
HETATM    6  N   UNK N   1      36.220  14.254  14.506  0.00  0.00    -0.364 N 
ATOM      7  HN  UNK N   1      36.627  14.777  15.282  1.00  0.00     0.165 HD
HETATM    8  C   UNK N   1      36.332  14.751  13.247  0.00  0.00     0.095 A 
ENDROOT
BRANCH   5   9
HETATM    9  C   UNK N   1      35.502  12.605  16.159  0.00  0.00     0.059 A 
HETATM   10  C   UNK N   1      35.222  13.480  17.220  0.00  0.00     0.032 A 
HETATM   11  C   UNK N   1      35.158  12.976  18.523  0.00  0.00     0.010 A 
HETATM   12  C   UNK N   1      35.374  11.616  18.751  0.00  0.00    -0.047 A 
HETATM   13  C   UNK N   1      35.650  10.777  17.675  0.00  0.00     0.095 A 
HETATM   14  C   UNK N   1      35.312  11.060  20.128  0.00  0.00     0.049 C 
HETATM   15  N   UNK N   1      35.708  11.283  16.416  0.00  0.00    -0.364 N 
ATOM     16  HN  UNK N   1      35.912  10.654  15.639  1.00  0.00     0.165 HD
ENDBRANCH   5   9
TORSDOF 1
ENDMDL
