MODEL 1
REMARK VINA RESULT:      -6.9      0.000      0.000
REMARK  6 active torsions:
REMARK  status: ('A' for Active; 'I' for Inactive)
REMARK    1  A    between atoms: C_3  and  S_19 
REMARK    2  A    between atoms: C_5  and  N_15 
REMARK    3  A    between atoms: N_10  and  C_11 
REMARK    4  A    between atoms: C_11  and  C_12 
REMARK    5  A    between atoms: C_12  and  O_14 
REMARK       I    between atoms: N_15  and  C_16 
REMARK    6  A    between atoms: S_19  and  C_20 
ROOT
HETATM    1  C   UNK N   1      30.038  17.229   8.742  0.00  0.00     0.070 C 
HETATM    2  C   UNK N   1      30.643  17.053   7.390  0.00  0.00     0.027 A 
HETATM    3  C   UNK N   1      29.984  16.608   6.242  0.00  0.00     0.042 A 
HETATM    4  C   UNK N   1      30.910  16.712   5.211  0.00  0.00     0.037 A 
HETATM    5  C   UNK N   1      30.789  16.498   3.834  0.00  0.00     0.048 A 
HETATM    6  C   UNK N   1      31.921  16.754   3.029  0.00  0.00     0.030 A 
HETATM    7  C   UNK N   1      33.123  17.216   3.605  0.00  0.00     0.005 A 
HETATM    8  C   UNK N   1      33.206  17.446   4.988  0.00  0.00     0.031 A 
HETATM    9  C   UNK N   1      32.078  17.180   5.767  0.00  0.00     0.049 A 
HETATM   10  N   UNK N   1      31.924  17.389   7.090  0.00  0.00    -0.339 N 
ENDROOT
BRANCH   3  11
HETATM   11  S   UNK N   1      28.235  16.179   6.038  0.00  0.00    -0.088 SA
BRANCH  11  12
HETATM   12  C   UNK N   1      27.505  17.608   5.210  0.00  0.00     0.005 A 
HETATM   13  C   UNK N   1      28.114  18.868   5.198  0.00  0.00     0.020 A 
HETATM   14  C   UNK N   1      27.586  19.900   4.413  0.00  0.00     0.025 A 
HETATM   15  C   UNK N   1      26.449  19.673   3.633  0.00  0.00     0.034 A 
HETATM   16  C   UNK N   1      25.826  18.424   3.655  0.00  0.00     0.025 A 
HETATM   17 Cl   UNK N   1      25.826  20.941   2.598  0.00  0.00    -0.084 Cl
HETATM   18  C   UNK N   1      26.357  17.395   4.438  0.00  0.00     0.020 A 
ENDBRANCH  11  12
ENDBRANCH   3  11
BRANCH  10  19
HETATM   19  C   UNK N   1      32.891  17.967   8.024  0.00  0.00     0.239 C 
BRANCH  19  20
HETATM   20  C   UNK N   1      33.707  16.931   8.731  0.00  0.00     0.158 C 
HETATM   21  O   UNK N   1      33.830  15.822   8.239  0.00  0.00    -0.649 OA
BRANCH  20  22
HETATM   22  O   UNK N   1      34.251  17.191   9.934  0.00  0.00    -0.775 OA
HETATM   23  H   UNK N   1      34.339  16.653  10.696  0.00  0.00     0.167 HD
ENDBRANCH  20  22
ENDBRANCH  19  20
ENDBRANCH  10  19
BRANCH   5  24
HETATM   24  N   UNK N   1      29.547  16.074   3.281  0.00  0.00    -0.327 N 
HETATM   25  C   UNK N   1      29.285  14.837   2.787  0.00  0.00     0.218 C 
HETATM   26  O   UNK N   1      30.157  13.986   2.712  0.00  0.00    -0.274 OA
HETATM   27  C   UNK N   1      27.922  14.535   2.268  0.00  0.00     0.117 C 
HETATM   28  H   UNK N   1      28.816  16.734   3.255  0.00  0.00     0.169 HD
ENDBRANCH   5  24
TORSDOF 6
ENDMDL
MODEL 2
REMARK VINA RESULT:      -6.9      5.261      8.919
REMARK  6 active torsions:
REMARK  status: ('A' for Active; 'I' for Inactive)
REMARK    1  A    between atoms: C_3  and  S_19 
REMARK    2  A    between atoms: C_5  and  N_15 
REMARK    3  A    between atoms: N_10  and  C_11 
REMARK    4  A    between atoms: C_11  and  C_12 
REMARK    5  A    between atoms: C_12  and  O_14 
REMARK       I    between atoms: N_15  and  C_16 
REMARK    6  A    between atoms: S_19  and  C_20 
ROOT
HETATM    1  C   UNK N   1      20.707  17.795   4.017  0.00  0.00     0.070 C 
HETATM    2  C   UNK N   1      22.070  18.392   3.914  0.00  0.00     0.027 A 
HETATM    3  C   UNK N   1      23.266  17.793   4.312  0.00  0.00     0.042 A 
HETATM    4  C   UNK N   1      24.274  18.667   3.924  0.00  0.00     0.037 A 
HETATM    5  C   UNK N   1      25.667  18.554   3.977  0.00  0.00     0.048 A 
HETATM    6  C   UNK N   1      26.432  19.611   3.434  0.00  0.00     0.030 A 
HETATM    7  C   UNK N   1      25.799  20.731   2.855  0.00  0.00     0.005 A 
HETATM    8  C   UNK N   1      24.398  20.804   2.794  0.00  0.00     0.031 A 
HETATM    9  C   UNK N   1      23.662  19.751   3.342  0.00  0.00     0.049 A 
HETATM   10  N   UNK N   1      22.323  19.593   3.334  0.00  0.00    -0.339 N 
ENDROOT
BRANCH   3  11
HETATM   11  S   UNK N   1      23.526  16.136   5.000  0.00  0.00    -0.088 SA
BRANCH  11  12
HETATM   12  C   UNK N   1      23.484  15.034   3.569  0.00  0.00     0.005 A 
HETATM   13  C   UNK N   1      22.290  14.539   3.031  0.00  0.00     0.020 A 
HETATM   14  C   UNK N   1      22.303  13.817   1.831  0.00  0.00     0.025 A 
HETATM   15  C   UNK N   1      23.511  13.592   1.163  0.00  0.00     0.034 A 
HETATM   16  C   UNK N   1      24.706  14.066   1.706  0.00  0.00     0.025 A 
HETATM   17 Cl   UNK N   1      23.522  12.749  -0.371  0.00  0.00    -0.084 Cl
HETATM   18  C   UNK N   1      24.690  14.789   2.902  0.00  0.00     0.020 A 
ENDBRANCH  11  12
ENDBRANCH   3  11
BRANCH  10  19
HETATM   19  C   UNK N   1      21.321  20.470   2.726  0.00  0.00     0.239 C 
BRANCH  19  20
HETATM   20  C   UNK N   1      21.081  20.164   1.280  0.00  0.00     0.158 C 
HETATM   21  O   UNK N   1      21.529  20.908   0.425  0.00  0.00    -0.649 OA
BRANCH  20  22
HETATM   22  O   UNK N   1      20.323  19.113   0.918  0.00  0.00    -0.775 OA
HETATM   23  H   UNK N   1      20.557  18.294   0.530  0.00  0.00     0.167 HD
ENDBRANCH  20  22
ENDBRANCH  19  20
ENDBRANCH  10  19
BRANCH   5  24
HETATM   24  N   UNK N   1      26.272  17.389   4.529  0.00  0.00    -0.327 N 
HETATM   25  C   UNK N   1      27.045  17.353   5.645  0.00  0.00     0.218 C 
HETATM   26  O   UNK N   1      27.348  18.377   6.239  0.00  0.00    -0.274 OA
HETATM   27  C   UNK N   1      27.583  16.047   6.116  0.00  0.00     0.117 C 
HETATM   28  H   UNK N   1      26.116  16.536   4.062  0.00  0.00     0.169 HD
ENDBRANCH   5  24
TORSDOF 6
ENDMDL
MODEL 3
REMARK VINA RESULT:      -6.9      6.310      9.463
REMARK  6 active torsions:
REMARK  status: ('A' for Active; 'I' for Inactive)
REMARK    1  A    between atoms: C_3  and  S_19 
REMARK    2  A    between atoms: C_5  and  N_15 
REMARK    3  A    between atoms: N_10  and  C_11 
REMARK    4  A    between atoms: C_11  and  C_12 
REMARK    5  A    between atoms: C_12  and  O_14 
REMARK       I    between atoms: N_15  and  C_16 
REMARK    6  A    between atoms: S_19  and  C_20 
ROOT
HETATM    1  C   UNK N   1      19.918  17.500   3.427  0.00  0.00     0.070 C 
HETATM    2  C   UNK N   1      21.317  18.002   3.549  0.00  0.00     0.027 A 
HETATM    3  C   UNK N   1      22.446  17.238   3.845  0.00  0.00     0.042 A 
HETATM    4  C   UNK N   1      23.527  18.105   3.742  0.00  0.00     0.037 A 
HETATM    5  C   UNK N   1      24.905  17.882   3.838  0.00  0.00     0.048 A 
HETATM    6  C   UNK N   1      25.764  18.981   3.619  0.00  0.00     0.030 A 
HETATM    7  C   UNK N   1      25.238  20.253   3.308  0.00  0.00     0.005 A 
HETATM    8  C   UNK N   1      23.851  20.440   3.194  0.00  0.00     0.031 A 
HETATM    9  C   UNK N   1      23.020  19.342   3.420  0.00  0.00     0.049 A 
HETATM   10  N   UNK N   1      21.678  19.288   3.303  0.00  0.00    -0.339 N 
ENDROOT
BRANCH   3  11
HETATM   11  S   UNK N   1      22.563  15.448   4.106  0.00  0.00    -0.088 SA
BRANCH  11  12
HETATM   12  C   UNK N   1      21.950  15.188   5.784  0.00  0.00     0.005 A 
HETATM   13  C   UNK N   1      21.690  16.244   6.667  0.00  0.00     0.020 A 
HETATM   14  C   UNK N   1      21.071  15.998   7.898  0.00  0.00     0.025 A 
HETATM   15  C   UNK N   1      20.705  14.695   8.249  0.00  0.00     0.034 A 
HETATM   16  C   UNK N   1      20.979  13.636   7.382  0.00  0.00     0.025 A 
HETATM   17 Cl   UNK N   1      19.869  14.394   9.758  0.00  0.00    -0.084 Cl
HETATM   18  C   UNK N   1      21.595  13.885   6.153  0.00  0.00     0.020 A 
ENDBRANCH  11  12
ENDBRANCH   3  11
BRANCH  10  19
HETATM   19  C   UNK N   1      20.772  20.359   2.884  0.00  0.00     0.239 C 
BRANCH  19  20
HETATM   20  C   UNK N   1      20.753  20.557   1.400  0.00  0.00     0.158 C 
HETATM   21  O   UNK N   1      20.819  21.685   0.942  0.00  0.00    -0.649 OA
BRANCH  20  22
HETATM   22  O   UNK N   1      20.599  19.509   0.571  0.00  0.00    -0.775 OA
HETATM   23  H   UNK N   1      20.111  19.424  -0.225  0.00  0.00     0.167 HD
ENDBRANCH  20  22
ENDBRANCH  19  20
ENDBRANCH  10  19
BRANCH   5  24
HETATM   24  N   UNK N   1      25.402  16.575   4.109  0.00  0.00    -0.327 N 
HETATM   25  C   UNK N   1      25.941  15.729   3.194  0.00  0.00     0.218 C 
HETATM   26  O   UNK N   1      25.970  16.015   2.007  0.00  0.00    -0.274 OA
HETATM   27  C   UNK N   1      26.447  14.401   3.639  0.00  0.00     0.117 C 
HETATM   28  H   UNK N   1      25.352  16.258   5.041  0.00  0.00     0.169 HD
ENDBRANCH   5  24
TORSDOF 6
ENDMDL
MODEL 4
REMARK VINA RESULT:      -6.7      6.524     10.155
REMARK  6 active torsions:
REMARK  status: ('A' for Active; 'I' for Inactive)
REMARK    1  A    between atoms: C_3  and  S_19 
REMARK    2  A    between atoms: C_5  and  N_15 
REMARK    3  A    between atoms: N_10  and  C_11 
REMARK    4  A    between atoms: C_11  and  C_12 
REMARK    5  A    between atoms: C_12  and  O_14 
REMARK       I    between atoms: N_15  and  C_16 
REMARK    6  A    between atoms: S_19  and  C_20 
ROOT
HETATM    1  C   UNK N   1      19.667  17.025   3.752  0.00  0.00     0.070 C 
HETATM    2  C   UNK N   1      20.918  16.418   3.215  0.00  0.00     0.027 A 
HETATM    3  C   UNK N   1      22.178  16.454   3.815  0.00  0.00     0.042 A 
HETATM    4  C   UNK N   1      23.000  15.668   3.017  0.00  0.00     0.037 A 
HETATM    5  C   UNK N   1      24.331  15.267   3.172  0.00  0.00     0.048 A 
HETATM    6  C   UNK N   1      24.872  14.398   2.198  0.00  0.00     0.030 A 
HETATM    7  C   UNK N   1      24.083  13.952   1.116  0.00  0.00     0.005 A 
HETATM    8  C   UNK N   1      22.742  14.352   1.001  0.00  0.00     0.031 A 
HETATM    9  C   UNK N   1      22.229  15.216   1.971  0.00  0.00     0.049 A 
HETATM   10  N   UNK N   1      20.964  15.668   2.083  0.00  0.00    -0.339 N 
ENDROOT
BRANCH   3  11
HETATM   11  S   UNK N   1      22.650  17.179   5.408  0.00  0.00    -0.088 SA
BRANCH  11  12
HETATM   12  C   UNK N   1      22.026  16.018   6.642  0.00  0.00     0.005 A 
HETATM   13  C   UNK N   1      22.620  14.771   6.876  0.00  0.00     0.020 A 
HETATM   14  C   UNK N   1      22.194  13.977   7.948  0.00  0.00     0.025 A 
HETATM   15  C   UNK N   1      21.176  14.430   8.793  0.00  0.00     0.034 A 
HETATM   16  C   UNK N   1      20.567  15.663   8.553  0.00  0.00     0.025 A 
HETATM   17 Cl   UNK N   1      20.689  13.470  10.174  0.00  0.00    -0.084 Cl
HETATM   18  C   UNK N   1      20.996  16.455   7.484  0.00  0.00     0.020 A 
ENDBRANCH  11  12
ENDBRANCH   3  11
BRANCH  10  19
HETATM   19  C   UNK N   1      19.818  15.343   1.233  0.00  0.00     0.239 C 
BRANCH  19  20
HETATM   20  C   UNK N   1      19.493  16.427   0.254  0.00  0.00     0.158 C 
HETATM   21  O   UNK N   1      20.386  17.140  -0.174  0.00  0.00    -0.649 OA
BRANCH  20  22
HETATM   22  O   UNK N   1      18.219  16.665  -0.108  0.00  0.00    -0.775 OA
HETATM   23  H   UNK N   1      17.702  16.306  -0.802  0.00  0.00     0.167 HD
ENDBRANCH  20  22
ENDBRANCH  19  20
ENDBRANCH  10  19
BRANCH   5  24
HETATM   24  N   UNK N   1      25.083  15.701   4.300  0.00  0.00    -0.327 N 
HETATM   25  C   UNK N   1      26.016  16.688   4.295  0.00  0.00     0.218 C 
HETATM   26  O   UNK N   1      26.341  17.247   3.259  0.00  0.00    -0.274 OA
HETATM   27  C   UNK N   1      26.700  17.049   5.567  0.00  0.00     0.117 C 
HETATM   28  H   UNK N   1      24.913  15.247   5.158  0.00  0.00     0.169 HD
ENDBRANCH   5  24
TORSDOF 6
ENDMDL
MODEL 5
REMARK VINA RESULT:      -6.7      6.639      9.450
REMARK  6 active torsions:
REMARK  status: ('A' for Active; 'I' for Inactive)
REMARK    1  A    between atoms: C_3  and  S_19 
REMARK    2  A    between atoms: C_5  and  N_15 
REMARK    3  A    between atoms: N_10  and  C_11 
REMARK    4  A    between atoms: C_11  and  C_12 
REMARK    5  A    between atoms: C_12  and  O_14 
REMARK       I    between atoms: N_15  and  C_16 
REMARK    6  A    between atoms: S_19  and  C_20 
ROOT
HETATM    1  C   UNK N   1      35.936  16.386  10.839  0.00  0.00     0.070 C 
HETATM    2  C   UNK N   1      35.333  15.521   9.785  0.00  0.00     0.027 A 
HETATM    3  C   UNK N   1      35.600  14.167   9.574  0.00  0.00     0.042 A 
HETATM    4  C   UNK N   1      34.732  13.763   8.568  0.00  0.00     0.037 A 
HETATM    5  C   UNK N   1      34.484  12.504   8.011  0.00  0.00     0.048 A 
HETATM    6  C   UNK N   1      33.474  12.409   7.027  0.00  0.00     0.030 A 
HETATM    7  C   UNK N   1      32.744  13.551   6.636  0.00  0.00     0.005 A 
HETATM    8  C   UNK N   1      32.998  14.797   7.232  0.00  0.00     0.031 A 
HETATM    9  C   UNK N   1      34.005  14.869   8.197  0.00  0.00     0.049 A 
HETATM   10  N   UNK N   1      34.365  15.942   8.930  0.00  0.00    -0.339 N 
ENDROOT
BRANCH   3  11
HETATM   11  S   UNK N   1      36.685  13.069  10.524  0.00  0.00    -0.088 SA
BRANCH  11  12
HETATM   12  C   UNK N   1      35.973  13.044  12.183  0.00  0.00     0.005 A 
HETATM   13  C   UNK N   1      34.981  12.134  12.567  0.00  0.00     0.020 A 
HETATM   14  C   UNK N   1      34.576  12.054  13.905  0.00  0.00     0.025 A 
HETATM   15  C   UNK N   1      35.166  12.882  14.865  0.00  0.00     0.034 A 
HETATM   16  C   UNK N   1      36.142  13.805  14.485  0.00  0.00     0.025 A 
HETATM   17 Cl   UNK N   1      34.710  12.737  16.549  0.00  0.00    -0.084 Cl
HETATM   18  C   UNK N   1      36.546  13.880  13.149  0.00  0.00     0.020 A 
ENDBRANCH  11  12
ENDBRANCH   3  11
BRANCH  10  19
HETATM   19  C   UNK N   1      33.772  17.280   8.912  0.00  0.00     0.239 C 
BRANCH  19  20
HETATM   20  C   UNK N   1      34.505  18.228   8.016  0.00  0.00     0.158 C 
HETATM   21  O   UNK N   1      34.452  18.078   6.807  0.00  0.00    -0.649 OA
BRANCH  20  22
HETATM   22  O   UNK N   1      35.274  19.204   8.533  0.00  0.00    -0.775 OA
HETATM   23  H   UNK N   1      35.111  20.121   8.640  0.00  0.00     0.167 HD
ENDBRANCH  20  22
ENDBRANCH  19  20
ENDBRANCH  10  19
BRANCH   5  24
HETATM   24  N   UNK N   1      35.209  11.364   8.462  0.00  0.00    -0.327 N 
HETATM   25  C   UNK N   1      34.725  10.391   9.276  0.00  0.00     0.218 C 
HETATM   26  O   UNK N   1      33.606  10.467   9.758  0.00  0.00    -0.274 OA
HETATM   27  C   UNK N   1      35.600   9.242   9.637  0.00  0.00     0.117 C 
HETATM   28  H   UNK N   1      36.142  11.274   8.157  0.00  0.00     0.169 HD
ENDBRANCH   5  24
TORSDOF 6
ENDMDL
MODEL 6
REMARK VINA RESULT:      -6.7      3.038      4.864
REMARK  6 active torsions:
REMARK  status: ('A' for Active; 'I' for Inactive)
REMARK    1  A    between atoms: C_3  and  S_19 
REMARK    2  A    between atoms: C_5  and  N_15 
REMARK    3  A    between atoms: N_10  and  C_11 
REMARK    4  A    between atoms: C_11  and  C_12 
REMARK    5  A    between atoms: C_12  and  O_14 
REMARK       I    between atoms: N_15  and  C_16 
REMARK    6  A    between atoms: S_19  and  C_20 
ROOT
HETATM    1  C   UNK N   1      32.067  16.168   4.758  0.00  0.00     0.070 C 
HETATM    2  C   UNK N   1      31.246  16.840   5.807  0.00  0.00     0.027 A 
HETATM    3  C   UNK N   1      29.964  17.367   5.641  0.00  0.00     0.042 A 
HETATM    4  C   UNK N   1      29.561  17.784   6.904  0.00  0.00     0.037 A 
HETATM    5  C   UNK N   1      28.345  18.301   7.363  0.00  0.00     0.048 A 
HETATM    6  C   UNK N   1      28.229  18.576   8.744  0.00  0.00     0.030 A 
HETATM    7  C   UNK N   1      29.307  18.325   9.619  0.00  0.00     0.005 A 
HETATM    8  C   UNK N   1      30.507  17.781   9.132  0.00  0.00     0.031 A 
HETATM    9  C   UNK N   1      30.603  17.524   7.763  0.00  0.00     0.049 A 
HETATM   10  N   UNK N   1      31.631  16.952   7.105  0.00  0.00    -0.339 N 
ENDROOT
BRANCH   3  11
HETATM   11  S   UNK N   1      28.916  17.344   4.163  0.00  0.00    -0.088 SA
BRANCH  11  12
HETATM   12  C   UNK N   1      28.500  15.604   3.922  0.00  0.00     0.005 A 
HETATM   13  C   UNK N   1      28.204  14.742   4.985  0.00  0.00     0.020 A 
HETATM   14  C   UNK N   1      27.738  13.446   4.734  0.00  0.00     0.025 A 
HETATM   15  C   UNK N   1      27.561  13.009   3.418  0.00  0.00     0.034 A 
HETATM   16  C   UNK N   1      27.874  13.857   2.353  0.00  0.00     0.025 A 
HETATM   17 Cl   UNK N   1      26.914  11.413   3.102  0.00  0.00    -0.084 Cl
HETATM   18  C   UNK N   1      28.337  15.150   2.607  0.00  0.00     0.020 A 
ENDBRANCH  11  12
ENDBRANCH   3  11
BRANCH  10  19
HETATM   19  C   UNK N   1      32.881  16.438   7.667  0.00  0.00     0.239 C 
BRANCH  19  20
HETATM   20  C   UNK N   1      33.931  17.495   7.809  0.00  0.00     0.158 C 
HETATM   21  O   UNK N   1      34.265  17.866   8.922  0.00  0.00    -0.649 OA
BRANCH  20  22
HETATM   22  O   UNK N   1      34.463  18.083   6.722  0.00  0.00    -0.775 OA
HETATM   23  H   UNK N   1      34.133  18.765   6.171  0.00  0.00     0.167 HD
ENDBRANCH  20  22
ENDBRANCH  19  20
ENDBRANCH  10  19
BRANCH   5  24
HETATM   24  N   UNK N   1      27.264  18.500   6.458  0.00  0.00    -0.327 N 
HETATM   25  C   UNK N   1      26.929  19.679   5.874  0.00  0.00     0.218 C 
HETATM   26  O   UNK N   1      27.515  20.714   6.154  0.00  0.00    -0.274 OA
HETATM   27  C   UNK N   1      25.785  19.721   4.922  0.00  0.00     0.117 C 
HETATM   28  H   UNK N   1      26.711  17.715   6.237  0.00  0.00     0.169 HD
ENDBRANCH   5  24
TORSDOF 6
ENDMDL
MODEL 7
REMARK VINA RESULT:      -6.5     11.822     14.110
REMARK  6 active torsions:
REMARK  status: ('A' for Active; 'I' for Inactive)
REMARK    1  A    between atoms: C_3  and  S_19 
REMARK    2  A    between atoms: C_5  and  N_15 
REMARK    3  A    between atoms: N_10  and  C_11 
REMARK    4  A    between atoms: C_11  and  C_12 
REMARK    5  A    between atoms: C_12  and  O_14 
REMARK       I    between atoms: N_15  and  C_16 
REMARK    6  A    between atoms: S_19  and  C_20 
ROOT
HETATM    1  C   UNK N   1      32.257  25.369  -4.800  0.00  0.00     0.070 C 
HETATM    2  C   UNK N   1      30.806  25.382  -4.457  0.00  0.00     0.027 A 
HETATM    3  C   UNK N   1      29.943  26.475  -4.558  0.00  0.00     0.042 A 
HETATM    4  C   UNK N   1      28.681  25.990  -4.241  0.00  0.00     0.037 A 
HETATM    5  C   UNK N   1      27.422  26.600  -4.264  0.00  0.00     0.048 A 
HETATM    6  C   UNK N   1      26.301  25.804  -3.940  0.00  0.00     0.030 A 
HETATM    7  C   UNK N   1      26.459  24.441  -3.613  0.00  0.00     0.005 A 
HETATM    8  C   UNK N   1      27.732  23.850  -3.623  0.00  0.00     0.031 A 
HETATM    9  C   UNK N   1      28.828  24.656  -3.940  0.00  0.00     0.049 A 
HETATM   10  N   UNK N   1      30.116  24.279  -4.067  0.00  0.00    -0.339 N 
ENDROOT
BRANCH   3  11
HETATM   11  S   UNK N   1      30.299  28.142  -5.174  0.00  0.00    -0.088 SA
BRANCH  11  12
HETATM   12  C   UNK N   1      31.347  28.885  -3.905  0.00  0.00     0.005 A 
HETATM   13  C   UNK N   1      31.098  28.736  -2.535  0.00  0.00     0.020 A 
HETATM   14  C   UNK N   1      32.025  29.201  -1.595  0.00  0.00     0.025 A 
HETATM   15  C   UNK N   1      33.208  29.811  -2.021  0.00  0.00     0.034 A 
HETATM   16  C   UNK N   1      33.453  29.981  -3.386  0.00  0.00     0.025 A 
HETATM   17 Cl   UNK N   1      34.401  30.331  -0.850  0.00  0.00    -0.084 Cl
HETATM   18  C   UNK N   1      32.527  29.514  -4.322  0.00  0.00     0.020 A 
ENDBRANCH  11  12
ENDBRANCH   3  11
BRANCH  10  19
HETATM   19  C   UNK N   1      30.674  22.933  -3.930  0.00  0.00     0.239 C 
BRANCH  19  20
HETATM   20  C   UNK N   1      31.098  22.620  -2.529  0.00  0.00     0.158 C 
HETATM   21  O   UNK N   1      32.039  21.868  -2.338  0.00  0.00    -0.649 OA
BRANCH  20  22
HETATM   22  O   UNK N   1      30.411  23.107  -1.479  0.00  0.00    -0.775 OA
HETATM   23  H   UNK N   1      29.938  23.909  -1.376  0.00  0.00     0.167 HD
ENDBRANCH  20  22
ENDBRANCH  19  20
ENDBRANCH  10  19
BRANCH   5  24
HETATM   24  N   UNK N   1      27.295  27.967  -4.643  0.00  0.00    -0.327 N 
HETATM   25  C   UNK N   1      27.052  29.001  -3.797  0.00  0.00     0.218 C 
HETATM   26  O   UNK N   1      26.843  28.812  -2.608  0.00  0.00    -0.274 OA
HETATM   27  C   UNK N   1      26.977  30.385  -4.342  0.00  0.00     0.117 C 
HETATM   28  H   UNK N   1      27.393  28.181  -5.599  0.00  0.00     0.169 HD
ENDBRANCH   5  24
TORSDOF 6
ENDMDL
MODEL 8
REMARK VINA RESULT:      -6.5      1.684      1.915
REMARK  6 active torsions:
REMARK  status: ('A' for Active; 'I' for Inactive)
REMARK    1  A    between atoms: C_3  and  S_19 
REMARK    2  A    between atoms: C_5  and  N_15 
REMARK    3  A    between atoms: N_10  and  C_11 
REMARK    4  A    between atoms: C_11  and  C_12 
REMARK    5  A    between atoms: C_12  and  O_14 
REMARK       I    between atoms: N_15  and  C_16 
REMARK    6  A    between atoms: S_19  and  C_20 
ROOT
HETATM    1  C   UNK N   1      31.149  17.962   8.677  0.00  0.00     0.070 C 
HETATM    2  C   UNK N   1      31.695  17.145   7.555  0.00  0.00     0.027 A 
HETATM    3  C   UNK N   1      30.952  16.424   6.620  0.00  0.00     0.042 A 
HETATM    4  C   UNK N   1      31.874  15.920   5.711  0.00  0.00     0.037 A 
HETATM    5  C   UNK N   1      31.705  15.205   4.521  0.00  0.00     0.048 A 
HETATM    6  C   UNK N   1      32.863  14.885   3.777  0.00  0.00     0.030 A 
HETATM    7  C   UNK N   1      34.139  15.285   4.228  0.00  0.00     0.005 A 
HETATM    8  C   UNK N   1      34.275  16.024   5.414  0.00  0.00     0.031 A 
HETATM    9  C   UNK N   1      33.118  16.324   6.137  0.00  0.00     0.049 A 
HETATM   10  N   UNK N   1      33.018  17.067   7.257  0.00  0.00    -0.339 N 
ENDROOT
BRANCH   3  11
HETATM   11  S   UNK N   1      29.151  16.311   6.453  0.00  0.00    -0.088 SA
BRANCH  11  12
HETATM   12  C   UNK N   1      28.604  18.017   6.219  0.00  0.00     0.005 A 
HETATM   13  C   UNK N   1      28.534  18.623   4.959  0.00  0.00     0.020 A 
HETATM   14  C   UNK N   1      27.958  19.891   4.817  0.00  0.00     0.025 A 
HETATM   15  C   UNK N   1      27.445  20.556   5.935  0.00  0.00     0.034 A 
HETATM   16  C   UNK N   1      27.531  19.964   7.197  0.00  0.00     0.025 A 
HETATM   17 Cl   UNK N   1      26.663  22.111   5.751  0.00  0.00    -0.084 Cl
HETATM   18  C   UNK N   1      28.103  18.698   7.335  0.00  0.00     0.020 A 
ENDBRANCH  11  12
ENDBRANCH   3  11
BRANCH  10  19
HETATM   19  C   UNK N   1      34.091  17.761   7.971  0.00  0.00     0.239 C 
BRANCH  19  20
HETATM   20  C   UNK N   1      34.619  16.977   9.131  0.00  0.00     0.158 C 
HETATM   21  O   UNK N   1      34.276  15.816   9.280  0.00  0.00    -0.649 OA
BRANCH  20  22
HETATM   22  O   UNK N   1      35.417  17.558  10.046  0.00  0.00    -0.775 OA
HETATM   23  H   UNK N   1      35.829  18.399  10.053  0.00  0.00     0.167 HD
ENDBRANCH  20  22
ENDBRANCH  19  20
ENDBRANCH  10  19
BRANCH   5  24
HETATM   24  N   UNK N   1      30.399  14.857   4.073  0.00  0.00    -0.327 N 
HETATM   25  C   UNK N   1      29.701  15.495   3.099  0.00  0.00     0.218 C 
HETATM   26  O   UNK N   1      30.136  16.503   2.564  0.00  0.00    -0.274 OA
HETATM   27  C   UNK N   1      28.352  14.991   2.720  0.00  0.00     0.117 C 
HETATM   28  H   UNK N   1      29.964  14.086   4.507  0.00  0.00     0.169 HD
ENDBRANCH   5  24
TORSDOF 6
ENDMDL
MODEL 9
REMARK VINA RESULT:      -6.5      6.909      9.619
REMARK  6 active torsions:
REMARK  status: ('A' for Active; 'I' for Inactive)
REMARK    1  A    between atoms: C_3  and  S_19 
REMARK    2  A    between atoms: C_5  and  N_15 
REMARK    3  A    between atoms: N_10  and  C_11 
REMARK    4  A    between atoms: C_11  and  C_12 
REMARK    5  A    between atoms: C_12  and  O_14 
REMARK       I    between atoms: N_15  and  C_16 
REMARK    6  A    between atoms: S_19  and  C_20 
ROOT
HETATM    1  C   UNK N   1      35.888  16.352  11.067  0.00  0.00     0.070 C 
HETATM    2  C   UNK N   1      35.772  15.537   9.823  0.00  0.00     0.027 A 
HETATM    3  C   UNK N   1      36.442  14.343   9.552  0.00  0.00     0.042 A 
HETATM    4  C   UNK N   1      35.940  13.896   8.337  0.00  0.00     0.037 A 
HETATM    5  C   UNK N   1      36.169  12.717   7.619  0.00  0.00     0.048 A 
HETATM    6  C   UNK N   1      35.444  12.527   6.421  0.00  0.00     0.030 A 
HETATM    7  C   UNK N   1      34.519  13.497   5.981  0.00  0.00     0.005 A 
HETATM    8  C   UNK N   1      34.292  14.658   6.736  0.00  0.00     0.031 A 
HETATM    9  C   UNK N   1      35.024  14.829   7.913  0.00  0.00     0.049 A 
HETATM   10  N   UNK N   1      34.917  15.831   8.809  0.00  0.00    -0.339 N 
ENDROOT
BRANCH   3  11
HETATM   11  S   UNK N   1      37.577  13.417  10.620  0.00  0.00    -0.088 SA
BRANCH  11  12
HETATM   12  C   UNK N   1      36.513  12.644  11.858  0.00  0.00     0.005 A 
HETATM   13  C   UNK N   1      36.195  13.261  13.074  0.00  0.00     0.020 A 
HETATM   14  C   UNK N   1      35.245  12.689  13.928  0.00  0.00     0.025 A 
HETATM   15  C   UNK N   1      34.605  11.499  13.566  0.00  0.00     0.034 A 
HETATM   16  C   UNK N   1      34.933  10.869  12.364  0.00  0.00     0.025 A 
HETATM   17 Cl   UNK N   1      33.368  10.818  14.600  0.00  0.00    -0.084 Cl
HETATM   18  C   UNK N   1      35.880  11.444  11.513  0.00  0.00     0.020 A 
ENDBRANCH  11  12
ENDBRANCH   3  11
BRANCH  10  19
HETATM   19  C   UNK N   1      33.992  16.964   8.780  0.00  0.00     0.239 C 
BRANCH  19  20
HETATM   20  C   UNK N   1      34.509  18.117   7.978  0.00  0.00     0.158 C 
HETATM   21  O   UNK N   1      34.341  18.134   6.770  0.00  0.00    -0.649 OA
BRANCH  20  22
HETATM   22  O   UNK N   1      35.213  19.101   8.567  0.00  0.00    -0.775 OA
HETATM   23  H   UNK N   1      35.803  19.082   9.295  0.00  0.00     0.167 HD
ENDBRANCH  20  22
ENDBRANCH  19  20
ENDBRANCH  10  19
BRANCH   5  24
HETATM   24  N   UNK N   1      37.077  11.739   8.117  0.00  0.00    -0.327 N 
HETATM   25  C   UNK N   1      38.360  11.570   7.704  0.00  0.00     0.218 C 
HETATM   26  O   UNK N   1      38.821  12.228   6.784  0.00  0.00    -0.274 OA
HETATM   27  C   UNK N   1      39.198  10.520   8.345  0.00  0.00     0.117 C 
HETATM   28  H   UNK N   1      36.748  11.135   8.821  0.00  0.00     0.169 HD
ENDBRANCH   5  24
TORSDOF 6
ENDMDL
