MODEL 1
REMARK VINA RESULT:      -5.2      0.000      0.000
REMARK  10 active torsions:
REMARK  status: ('A' for Active; 'I' for Inactive)
REMARK    1  A    between atoms: C_3  and  C_2 
REMARK    2  A    between atoms: C_5  and  C_2 
REMARK    3  A    between atoms: C_6  and  C_3 
REMARK    4  A    between atoms: C_7  and  C_4 
REMARK    5  A    between atoms: C_4  and  N_9 
REMARK    6  A    between atoms: C_8  and  C_5 
REMARK    7  A    between atoms: C_5  and  N_12 
REMARK    8  A    between atoms: O_14  and  C_6 
REMARK    9  A    between atoms: C_7  and  O_15 
REMARK   10  A    between atoms: O_17  and  C_8 
ROOT
HETATM    1  C   UNK N   1      32.675  17.407   8.411  0.00  0.00     0.181 C 
ENDROOT
BRANCH   1   2
HETATM    2  C   UNK N   1      32.891  15.889   8.430  0.00  0.00     0.044 C 
BRANCH   2   3
HETATM    3  C   UNK N   1      34.247  15.450   8.972  0.00  0.00     0.086 C 
BRANCH   3   4
HETATM    4  C   UNK N   1      34.320  15.758  10.435  0.00  0.00     0.108 C 
HETATM    5  N   UNK N   1      35.019  16.750  10.852  0.00  0.00    -0.384 N 
HETATM    6  H   UNK N   1      35.094  16.931  11.816  0.00  0.00     0.157 HD
ATOM      7  HN  UNK N   1      35.498  17.352  10.182  1.00  0.00     0.157 HD
BRANCH   4   8
HETATM    8  O   UNK N   1      33.656  14.992  11.319  0.00  0.00    -0.350 OA
HETATM    9  H   UNK N   1      32.758  15.173  11.515  0.00  0.00     0.219 HD
ENDBRANCH   4   8
ENDBRANCH   3   4
ENDBRANCH   2   3
ENDBRANCH   1   2
BRANCH   1  10
HETATM   10  C   UNK N   1      33.814  18.142   7.720  0.00  0.00     0.163 C 
HETATM   11  O   UNK N   1      34.556  18.865   8.361  0.00  0.00    -0.648 OA
BRANCH  10  12
HETATM   12  O   UNK N   1      34.049  17.967   6.403  0.00  0.00    -0.775 OA
HETATM   13  H   UNK N   1      33.818  17.210   5.901  0.00  0.00     0.167 HD
ENDBRANCH  10  12
ENDBRANCH   1  10
BRANCH   1  14
HETATM   14  N   UNK N   1      31.373  17.712   7.834  0.00  0.00    -0.358 N 
HETATM   15  C   UNK N   1      30.344  18.067   8.536  0.00  0.00     0.134 C 
ATOM     16  HN  UNK N   1      31.266  17.643   6.823  1.00  0.00     0.162 HD
BRANCH  15  17
HETATM   17  C   UNK N   1      29.005  18.303   7.882  0.00  0.00     0.145 C 
HETATM   18  C   UNK N   1      28.655  17.150   6.962  0.00  0.00     0.040 C 
BRANCH  17  19
HETATM   19  N   UNK N   1      27.949  18.464   8.869  0.00  0.00    -0.420 N 
HETATM   20  H   UNK N   1      27.047  17.999   8.769  0.00  0.00     0.150 HD
HETATM   21  H   UNK N   1      28.115  19.057   9.683  0.00  0.00     0.150 HD
ENDBRANCH  17  19
ENDBRANCH  15  17
BRANCH  15  22
HETATM   22  O   UNK N   1      30.433  18.181   9.879  0.00  0.00    -0.348 OA
HETATM   23  H   UNK N   1      30.300  17.455  10.456  0.00  0.00     0.219 HD
ENDBRANCH  15  22
ENDBRANCH   1  14
TORSDOF 10
ENDMDL
MODEL 2
REMARK VINA RESULT:      -5.1      3.121      3.607
REMARK  10 active torsions:
REMARK  status: ('A' for Active; 'I' for Inactive)
REMARK    1  A    between atoms: C_3  and  C_2 
REMARK    2  A    between atoms: C_5  and  C_2 
REMARK    3  A    between atoms: C_6  and  C_3 
REMARK    4  A    between atoms: C_7  and  C_4 
REMARK    5  A    between atoms: C_4  and  N_9 
REMARK    6  A    between atoms: C_8  and  C_5 
REMARK    7  A    between atoms: C_5  and  N_12 
REMARK    8  A    between atoms: O_14  and  C_6 
REMARK    9  A    between atoms: C_7  and  O_15 
REMARK   10  A    between atoms: O_17  and  C_8 
ROOT
HETATM    1  C   UNK N   1      34.264  17.190   9.219  0.00  0.00     0.181 C 
ENDROOT
BRANCH   1   2
HETATM    2  C   UNK N   1      35.298  17.021  10.339  0.00  0.00     0.044 C 
BRANCH   2   3
HETATM    3  C   UNK N   1      35.915  15.629  10.424  0.00  0.00     0.086 C 
BRANCH   3   4
HETATM    4  C   UNK N   1      35.415  14.938  11.653  0.00  0.00     0.108 C 
HETATM    5  N   UNK N   1      36.166  14.837  12.688  0.00  0.00    -0.384 N 
HETATM    6  H   UNK N   1      35.849  14.352  13.484  0.00  0.00     0.157 HD
ATOM      7  HN  UNK N   1      37.094  15.260  12.687  1.00  0.00     0.157 HD
BRANCH   4   8
HETATM    8  O   UNK N   1      34.175  14.415  11.675  0.00  0.00    -0.350 OA
HETATM    9  H   UNK N   1      33.762  14.222  12.493  0.00  0.00     0.219 HD
ENDBRANCH   4   8
ENDBRANCH   3   4
ENDBRANCH   2   3
ENDBRANCH   1   2
BRANCH   1  10
HETATM   10  C   UNK N   1      34.687  18.234   8.197  0.00  0.00     0.163 C 
HETATM   11  O   UNK N   1      35.298  19.227   8.551  0.00  0.00    -0.648 OA
BRANCH  10  12
HETATM   12  O   UNK N   1      34.436  18.055   6.884  0.00  0.00    -0.775 OA
HETATM   13  H   UNK N   1      34.293  18.735   6.255  0.00  0.00     0.167 HD
ENDBRANCH  10  12
ENDBRANCH   1  10
BRANCH   1  14
HETATM   14  N   UNK N   1      33.974  15.895   8.618  0.00  0.00    -0.358 N 
HETATM   15  C   UNK N   1      32.902  15.212   8.867  0.00  0.00     0.134 C 
ATOM     16  HN  UNK N   1      34.653  15.504   7.964  1.00  0.00     0.162 HD
BRANCH  15  17
HETATM   17  C   UNK N   1      32.696  13.846   8.263  0.00  0.00     0.145 C 
HETATM   18  C   UNK N   1      33.810  13.526   7.285  0.00  0.00     0.040 C 
BRANCH  17  19
HETATM   19  N   UNK N   1      32.645  12.812   9.284  0.00  0.00    -0.420 N 
HETATM   20  H   UNK N   1      31.998  12.026   9.218  0.00  0.00     0.150 HD
HETATM   21  H   UNK N   1      33.271  12.874  10.087  0.00  0.00     0.150 HD
ENDBRANCH  17  19
ENDBRANCH  15  17
BRANCH  15  22
HETATM   22  O   UNK N   1      31.967  15.686   9.720  0.00  0.00    -0.348 OA
HETATM   23  H   UNK N   1      32.125  15.780  10.638  0.00  0.00     0.219 HD
ENDBRANCH  15  22
ENDBRANCH   1  14
TORSDOF 10
ENDMDL
MODEL 3
REMARK VINA RESULT:      -4.9     16.312     17.732
REMARK  10 active torsions:
REMARK  status: ('A' for Active; 'I' for Inactive)
REMARK    1  A    between atoms: C_3  and  C_2 
REMARK    2  A    between atoms: C_5  and  C_2 
REMARK    3  A    between atoms: C_6  and  C_3 
REMARK    4  A    between atoms: C_7  and  C_4 
REMARK    5  A    between atoms: C_4  and  N_9 
REMARK    6  A    between atoms: C_8  and  C_5 
REMARK    7  A    between atoms: C_5  and  N_12 
REMARK    8  A    between atoms: O_14  and  C_6 
REMARK    9  A    between atoms: C_7  and  O_15 
REMARK   10  A    between atoms: O_17  and  C_8 
ROOT
HETATM    1  C   UNK N   1      26.072  24.916  -5.580  0.00  0.00     0.181 C 
ENDROOT
BRANCH   1   2
HETATM    2  C   UNK N   1      25.189  26.137  -5.296  0.00  0.00     0.044 C 
BRANCH   2   3
HETATM    3  C   UNK N   1      25.921  27.473  -5.355  0.00  0.00     0.086 C 
BRANCH   3   4
HETATM    4  C   UNK N   1      25.840  28.143  -4.019  0.00  0.00     0.108 C 
HETATM    5  N   UNK N   1      25.916  29.420  -3.931  0.00  0.00    -0.384 N 
HETATM    6  H   UNK N   1      25.898  29.857  -3.049  0.00  0.00     0.157 HD
ATOM      7  HN  UNK N   1      25.996  29.985  -4.777  1.00  0.00     0.157 HD
BRANCH   4   8
HETATM    8  O   UNK N   1      25.693  27.405  -2.903  0.00  0.00    -0.350 OA
HETATM    9  H   UNK N   1      26.442  27.012  -2.499  0.00  0.00     0.219 HD
ENDBRANCH   4   8
ENDBRANCH   3   4
ENDBRANCH   2   3
ENDBRANCH   1   2
BRANCH   1  10
HETATM   10  C   UNK N   1      26.794  24.425  -4.334  0.00  0.00     0.163 C 
HETATM   11  O   UNK N   1      26.261  24.515  -3.241  0.00  0.00    -0.648 OA
BRANCH  10  12
HETATM   12  O   UNK N   1      28.006  23.841  -4.424  0.00  0.00    -0.775 OA
HETATM   13  H   UNK N   1      28.819  24.221  -4.152  0.00  0.00     0.167 HD
ENDBRANCH  10  12
ENDBRANCH   1  10
BRANCH   1  14
HETATM   14  N   UNK N   1      25.280  23.875  -6.222  0.00  0.00    -0.358 N 
HETATM   15  C   UNK N   1      25.788  22.946  -6.968  0.00  0.00     0.134 C 
ATOM     16  HN  UNK N   1      24.271  23.877  -6.075  1.00  0.00     0.162 HD
BRANCH  15  17
HETATM   17  C   UNK N   1      24.904  21.938  -7.659  0.00  0.00     0.145 C 
HETATM   18  C   UNK N   1      25.738  20.809  -8.234  0.00  0.00     0.040 C 
BRANCH  17  19
HETATM   19  N   UNK N   1      23.913  21.384  -6.750  0.00  0.00    -0.420 N 
HETATM   20  H   UNK N   1      24.144  21.150  -5.785  0.00  0.00     0.150 HD
HETATM   21  H   UNK N   1      22.963  21.226  -7.087  0.00  0.00     0.150 HD
ENDBRANCH  17  19
ENDBRANCH  15  17
BRANCH  15  22
HETATM   22  O   UNK N   1      27.120  22.893  -7.190  0.00  0.00    -0.348 OA
HETATM   23  H   UNK N   1      27.486  22.519  -7.967  0.00  0.00     0.219 HD
ENDBRANCH  15  22
ENDBRANCH   1  14
TORSDOF 10
ENDMDL
MODEL 4
REMARK VINA RESULT:      -4.8     12.817     14.215
REMARK  10 active torsions:
REMARK  status: ('A' for Active; 'I' for Inactive)
REMARK    1  A    between atoms: C_3  and  C_2 
REMARK    2  A    between atoms: C_5  and  C_2 
REMARK    3  A    between atoms: C_6  and  C_3 
REMARK    4  A    between atoms: C_7  and  C_4 
REMARK    5  A    between atoms: C_4  and  N_9 
REMARK    6  A    between atoms: C_8  and  C_5 
REMARK    7  A    between atoms: C_5  and  N_12 
REMARK    8  A    between atoms: O_14  and  C_6 
REMARK    9  A    between atoms: C_7  and  O_15 
REMARK   10  A    between atoms: O_17  and  C_8 
ROOT
HETATM    1  C   UNK N   1      28.930  23.278  -3.326  0.00  0.00     0.181 C 
ENDROOT
BRANCH   1   2
HETATM    2  C   UNK N   1      30.208  22.980  -4.120  0.00  0.00     0.044 C 
BRANCH   2   3
HETATM    3  C   UNK N   1      30.298  21.556  -4.659  0.00  0.00     0.086 C 
BRANCH   3   4
HETATM    4  C   UNK N   1      31.340  20.801  -3.896  0.00  0.00     0.108 C 
HETATM    5  N   UNK N   1      31.811  19.702  -4.360  0.00  0.00    -0.384 N 
HETATM    6  H   UNK N   1      32.471  19.188  -3.841  0.00  0.00     0.157 HD
ATOM      7  HN  UNK N   1      31.502  19.360  -5.270  1.00  0.00     0.157 HD
BRANCH   4   8
HETATM    8  O   UNK N   1      31.781  21.270  -2.714  0.00  0.00    -0.350 OA
HETATM    9  H   UNK N   1      31.380  22.024  -2.330  0.00  0.00     0.219 HD
ENDBRANCH   4   8
ENDBRANCH   3   4
ENDBRANCH   2   3
ENDBRANCH   1   2
BRANCH   1  10
HETATM   10  C   UNK N   1      29.122  23.084  -1.830  0.00  0.00     0.163 C 
HETATM   11  O   UNK N   1      30.242  23.096  -1.348  0.00  0.00    -0.648 OA
BRANCH  10  12
HETATM   12  O   UNK N   1      28.060  22.943  -1.010  0.00  0.00    -0.775 OA
HETATM   13  H   UNK N   1      27.989  22.329  -0.305  0.00  0.00     0.167 HD
ENDBRANCH  10  12
ENDBRANCH   1  10
BRANCH   1  14
HETATM   14  N   UNK N   1      28.439  24.607  -3.665  0.00  0.00    -0.358 N 
HETATM   15  C   UNK N   1      27.196  24.958  -3.571  0.00  0.00     0.134 C 
ATOM     16  HN  UNK N   1      29.112  25.300  -3.993  1.00  0.00     0.162 HD
BRANCH  15  17
HETATM   17  C   UNK N   1      26.744  26.330  -4.003  0.00  0.00     0.145 C 
HETATM   18  C   UNK N   1      25.704  26.223  -5.102  0.00  0.00     0.040 C 
BRANCH  17  19
HETATM   19  N   UNK N   1      26.188  27.085  -2.891  0.00  0.00    -0.420 N 
HETATM   20  H   UNK N   1      25.987  28.081  -2.969  0.00  0.00     0.150 HD
HETATM   21  H   UNK N   1      25.994  26.605  -2.012  0.00  0.00     0.150 HD
ENDBRANCH  17  19
ENDBRANCH  15  17
BRANCH  15  22
HETATM   22  O   UNK N   1      26.265  24.081  -3.135  0.00  0.00    -0.348 OA
HETATM   23  H   UNK N   1      25.642  24.299  -2.470  0.00  0.00     0.219 HD
ENDBRANCH  15  22
ENDBRANCH   1  14
TORSDOF 10
ENDMDL
MODEL 5
REMARK VINA RESULT:      -4.8     11.562     13.083
REMARK  10 active torsions:
REMARK  status: ('A' for Active; 'I' for Inactive)
REMARK    1  A    between atoms: C_3  and  C_2 
REMARK    2  A    between atoms: C_5  and  C_2 
REMARK    3  A    between atoms: C_6  and  C_3 
REMARK    4  A    between atoms: C_7  and  C_4 
REMARK    5  A    between atoms: C_4  and  N_9 
REMARK    6  A    between atoms: C_8  and  C_5 
REMARK    7  A    between atoms: C_5  and  N_12 
REMARK    8  A    between atoms: O_14  and  C_6 
REMARK    9  A    between atoms: C_7  and  O_15 
REMARK   10  A    between atoms: O_17  and  C_8 
ROOT
HETATM    1  C   UNK N   1      20.882  18.522   3.787  0.00  0.00     0.181 C 
ENDROOT
BRANCH   1   2
HETATM    2  C   UNK N   1      21.927  17.946   4.749  0.00  0.00     0.044 C 
BRANCH   2   3
HETATM    3  C   UNK N   1      21.404  16.843   5.663  0.00  0.00     0.086 C 
BRANCH   3   4
HETATM    4  C   UNK N   1      20.933  17.446   6.949  0.00  0.00     0.108 C 
HETATM    5  N   UNK N   1      20.489  16.696   7.890  0.00  0.00    -0.384 N 
HETATM    6  H   UNK N   1      20.148  17.096   8.722  0.00  0.00     0.157 HD
ATOM      7  HN  UNK N   1      20.491  15.682   7.776  1.00  0.00     0.157 HD
BRANCH   4   8
HETATM    8  O   UNK N   1      20.968  18.780   7.120  0.00  0.00    -0.350 OA
HETATM    9  H   UNK N   1      20.604  19.346   6.468  0.00  0.00     0.219 HD
ENDBRANCH   4   8
ENDBRANCH   3   4
ENDBRANCH   2   3
ENDBRANCH   1   2
BRANCH   1  10
HETATM   10  C   UNK N   1      21.090  20.008   3.532  0.00  0.00     0.163 C 
HETATM   11  O   UNK N   1      20.184  20.798   3.732  0.00  0.00    -0.648 OA
BRANCH  10  12
HETATM   12  O   UNK N   1      22.289  20.477   3.129  0.00  0.00    -0.775 OA
HETATM   13  H   UNK N   1      22.527  21.380   3.052  0.00  0.00     0.167 HD
ENDBRANCH  10  12
ENDBRANCH   1  10
BRANCH   1  14
HETATM   14  N   UNK N   1      20.856  17.737   2.560  0.00  0.00    -0.358 N 
HETATM   15  C   UNK N   1      19.828  17.668   1.775  0.00  0.00     0.134 C 
ATOM     16  HN  UNK N   1      21.693  17.213   2.306  1.00  0.00     0.162 HD
BRANCH  15  17
HETATM   17  C   UNK N   1      19.844  16.781   0.555  0.00  0.00     0.145 C 
HETATM   18  C   UNK N   1      20.395  15.412   0.903  0.00  0.00     0.040 C 
BRANCH  17  19
HETATM   19  N   UNK N   1      18.514  16.630  -0.013  0.00  0.00    -0.420 N 
HETATM   20  H   UNK N   1      17.974  15.773   0.108  0.00  0.00     0.150 HD
HETATM   21  H   UNK N   1      18.111  17.401  -0.547  0.00  0.00     0.150 HD
ENDBRANCH  17  19
ENDBRANCH  15  17
BRANCH  15  22
HETATM   22  O   UNK N   1      18.696  18.348   2.061  0.00  0.00    -0.348 OA
HETATM   23  H   UNK N   1      17.852  17.943   2.060  0.00  0.00     0.219 HD
ENDBRANCH  15  22
ENDBRANCH   1  14
TORSDOF 10
ENDMDL
MODEL 6
REMARK VINA RESULT:      -4.8     10.663     13.380
REMARK  10 active torsions:
REMARK  status: ('A' for Active; 'I' for Inactive)
REMARK    1  A    between atoms: C_3  and  C_2 
REMARK    2  A    between atoms: C_5  and  C_2 
REMARK    3  A    between atoms: C_6  and  C_3 
REMARK    4  A    between atoms: C_7  and  C_4 
REMARK    5  A    between atoms: C_4  and  N_9 
REMARK    6  A    between atoms: C_8  and  C_5 
REMARK    7  A    between atoms: C_5  and  N_12 
REMARK    8  A    between atoms: O_14  and  C_6 
REMARK    9  A    between atoms: C_7  and  O_15 
REMARK   10  A    between atoms: O_17  and  C_8 
ROOT
HETATM    1  C   UNK N   1      20.286  17.290   2.366  0.00  0.00     0.181 C 
ENDROOT
BRANCH   1   2
HETATM    2  C   UNK N   1      19.570  18.636   2.533  0.00  0.00     0.044 C 
BRANCH   2   3
HETATM    3  C   UNK N   1      20.392  19.703   3.248  0.00  0.00     0.086 C 
BRANCH   3   4
HETATM    4  C   UNK N   1      20.873  20.711   2.251  0.00  0.00     0.108 C 
HETATM    5  N   UNK N   1      20.470  20.658   1.034  0.00  0.00    -0.384 N 
HETATM    6  H   UNK N   1      20.814  21.300   0.371  0.00  0.00     0.157 HD
ATOM      7  HN  UNK N   1      19.792  19.950   0.753  1.00  0.00     0.157 HD
BRANCH   4   8
HETATM    8  O   UNK N   1      21.735  21.672   2.627  0.00  0.00    -0.350 OA
HETATM    9  H   UNK N   1      22.636  21.619   2.374  0.00  0.00     0.219 HD
ENDBRANCH   4   8
ENDBRANCH   3   4
ENDBRANCH   2   3
ENDBRANCH   1   2
BRANCH   1  10
HETATM   10  C   UNK N   1      20.436  16.895   0.904  0.00  0.00     0.163 C 
HETATM   11  O   UNK N   1      20.669  15.737   0.602  0.00  0.00    -0.648 OA
BRANCH  10  12
HETATM   12  O   UNK N   1      20.268  17.805  -0.078  0.00  0.00    -0.775 OA
HETATM   13  H   UNK N   1      20.873  17.982  -0.771  0.00  0.00     0.167 HD
ENDBRANCH  10  12
ENDBRANCH   1  10
BRANCH   1  14
HETATM   14  N   UNK N   1      21.557  17.317   3.077  0.00  0.00    -0.358 N 
HETATM   15  C   UNK N   1      21.938  16.392   3.899  0.00  0.00     0.134 C 
ATOM     16  HN  UNK N   1      22.181  18.108   2.919  1.00  0.00     0.162 HD
BRANCH  15  17
HETATM   17  C   UNK N   1      23.237  16.515   4.655  0.00  0.00     0.145 C 
HETATM   18  C   UNK N   1      24.048  17.683   4.128  0.00  0.00     0.040 C 
BRANCH  17  19
HETATM   19  N   UNK N   1      23.011  16.695   6.081  0.00  0.00    -0.420 N 
HETATM   20  H   UNK N   1      23.774  16.916   6.720  0.00  0.00     0.150 HD
HETATM   21  H   UNK N   1      22.065  16.597   6.450  0.00  0.00     0.150 HD
ENDBRANCH  17  19
ENDBRANCH  15  17
BRANCH  15  22
HETATM   22  O   UNK N   1      21.153  15.319   4.139  0.00  0.00    -0.348 OA
HETATM   23  H   UNK N   1      20.326  15.196   3.717  0.00  0.00     0.219 HD
ENDBRANCH  15  22
ENDBRANCH   1  14
TORSDOF 10
ENDMDL
MODEL 7
REMARK VINA RESULT:      -4.8      5.267      7.668
REMARK  10 active torsions:
REMARK  status: ('A' for Active; 'I' for Inactive)
REMARK    1  A    between atoms: C_3  and  C_2 
REMARK    2  A    between atoms: C_5  and  C_2 
REMARK    3  A    between atoms: C_6  and  C_3 
REMARK    4  A    between atoms: C_7  and  C_4 
REMARK    5  A    between atoms: C_4  and  N_9 
REMARK    6  A    between atoms: C_8  and  C_5 
REMARK    7  A    between atoms: C_5  and  N_12 
REMARK    8  A    between atoms: O_14  and  C_6 
REMARK    9  A    between atoms: C_7  and  O_15 
REMARK   10  A    between atoms: O_17  and  C_8 
ROOT
HETATM    1  C   UNK N   1      36.085  13.570  14.071  0.00  0.00     0.181 C 
ENDROOT
BRANCH   1   2
HETATM    2  C   UNK N   1      36.645  12.196  13.681  0.00  0.00     0.044 C 
BRANCH   2   3
HETATM    3  C   UNK N   1      35.875  11.014  14.260  0.00  0.00     0.086 C 
BRANCH   3   4
HETATM    4  C   UNK N   1      34.455  11.067  13.788  0.00  0.00     0.108 C 
HETATM    5  N   UNK N   1      33.493  10.857  14.610  0.00  0.00    -0.384 N 
HETATM    6  H   UNK N   1      32.562  10.858  14.292  0.00  0.00     0.157 HD
ATOM      7  HN  UNK N   1      33.694  10.689  15.596  1.00  0.00     0.157 HD
BRANCH   4   8
HETATM    8  O   UNK N   1      34.184  11.330  12.497  0.00  0.00    -0.350 OA
HETATM    9  H   UNK N   1      33.296  11.445  12.218  0.00  0.00     0.219 HD
ENDBRANCH   4   8
ENDBRANCH   3   4
ENDBRANCH   2   3
ENDBRANCH   1   2
BRANCH   1  10
HETATM   10  C   UNK N   1      36.573  14.023  15.439  0.00  0.00     0.163 C 
HETATM   11  O   UNK N   1      35.959  13.712  16.444  0.00  0.00    -0.648 OA
BRANCH  10  12
HETATM   12  O   UNK N   1      37.714  14.733  15.563  0.00  0.00    -0.775 OA
HETATM   13  H   UNK N   1      37.798  15.565  15.987  0.00  0.00     0.167 HD
ENDBRANCH  10  12
ENDBRANCH   1  10
BRANCH   1  14
HETATM   14  N   UNK N   1      36.374  14.535  13.019  0.00  0.00    -0.358 N 
HETATM   15  C   UNK N   1      35.552  14.816  12.059  0.00  0.00     0.134 C 
ATOM     16  HN  UNK N   1      37.272  15.018  13.041  1.00  0.00     0.162 HD
BRANCH  15  17
HETATM   17  C   UNK N   1      35.940  15.776  10.962  0.00  0.00     0.145 C 
HETATM   18  C   UNK N   1      35.908  15.081   9.614  0.00  0.00     0.040 C 
BRANCH  17  19
HETATM   19  N   UNK N   1      35.058  16.931  10.925  0.00  0.00    -0.420 N 
HETATM   20  H   UNK N   1      34.143  16.921  11.376  0.00  0.00     0.150 HD
HETATM   21  H   UNK N   1      35.361  17.773  10.434  0.00  0.00     0.150 HD
ENDBRANCH  17  19
ENDBRANCH  15  17
BRANCH  15  22
HETATM   22  O   UNK N   1      34.345  14.212  11.986  0.00  0.00    -0.348 OA
HETATM   23  H   UNK N   1      34.216  13.398  11.540  0.00  0.00     0.219 HD
ENDBRANCH  15  22
ENDBRANCH   1  14
TORSDOF 10
ENDMDL
MODEL 8
REMARK VINA RESULT:      -4.8      4.075      7.516
REMARK  10 active torsions:
REMARK  status: ('A' for Active; 'I' for Inactive)
REMARK    1  A    between atoms: C_3  and  C_2 
REMARK    2  A    between atoms: C_5  and  C_2 
REMARK    3  A    between atoms: C_6  and  C_3 
REMARK    4  A    between atoms: C_7  and  C_4 
REMARK    5  A    between atoms: C_4  and  N_9 
REMARK    6  A    between atoms: C_8  and  C_5 
REMARK    7  A    between atoms: C_5  and  N_12 
REMARK    8  A    between atoms: O_14  and  C_6 
REMARK    9  A    between atoms: C_7  and  O_15 
REMARK   10  A    between atoms: O_17  and  C_8 
ROOT
HETATM    1  C   UNK N   1      36.736  13.732  11.287  0.00  0.00     0.181 C 
ENDROOT
BRANCH   1   2
HETATM    2  C   UNK N   1      36.312  15.103  10.748  0.00  0.00     0.044 C 
BRANCH   2   3
HETATM    3  C   UNK N   1      35.307  15.047   9.603  0.00  0.00     0.086 C 
BRANCH   3   4
HETATM    4  C   UNK N   1      33.981  15.551  10.081  0.00  0.00     0.108 C 
HETATM    5  N   UNK N   1      33.417  16.542   9.494  0.00  0.00    -0.384 N 
HETATM    6  H   UNK N   1      32.562  16.895   9.831  0.00  0.00     0.157 HD
ATOM      7  HN  UNK N   1      33.855  16.966   8.676  1.00  0.00     0.157 HD
BRANCH   4   8
HETATM    8  O   UNK N   1      33.379  14.969  11.134  0.00  0.00    -0.350 OA
HETATM    9  H   UNK N   1      32.638  14.411  11.001  0.00  0.00     0.219 HD
ENDBRANCH   4   8
ENDBRANCH   3   4
ENDBRANCH   2   3
ENDBRANCH   1   2
BRANCH   1  10
HETATM   10  C   UNK N   1      38.005  13.218  10.624  0.00  0.00     0.163 C 
HETATM   11  O   UNK N   1      38.248  12.024  10.606  0.00  0.00    -0.648 OA
BRANCH  10  12
HETATM   12  O   UNK N   1      38.853  14.067  10.007  0.00  0.00    -0.775 OA
HETATM   13  H   UNK N   1      38.816  15.003  10.046  0.00  0.00     0.167 HD
ENDBRANCH  10  12
ENDBRANCH   1  10
BRANCH   1  14
HETATM   14  N   UNK N   1      36.839  13.785  12.740  0.00  0.00    -0.358 N 
HETATM   15  C   UNK N   1      35.849  13.540  13.538  0.00  0.00     0.134 C 
ATOM     16  HN  UNK N   1      37.740  14.027  13.150  1.00  0.00     0.162 HD
BRANCH  15  17
HETATM   17  C   UNK N   1      36.006  13.679  15.031  0.00  0.00     0.145 C 
HETATM   18  C   UNK N   1      36.056  12.313  15.688  0.00  0.00     0.040 C 
BRANCH  17  19
HETATM   19  N   UNK N   1      37.210  14.419  15.376  0.00  0.00    -0.420 N 
HETATM   20  H   UNK N   1      38.010  14.462  14.745  0.00  0.00     0.150 HD
HETATM   21  H   UNK N   1      37.255  14.906  16.272  0.00  0.00     0.150 HD
ENDBRANCH  17  19
ENDBRANCH  15  17
BRANCH  15  22
HETATM   22  O   UNK N   1      34.635  13.206  13.047  0.00  0.00    -0.348 OA
HETATM   23  H   UNK N   1      34.509  12.932  12.160  0.00  0.00     0.219 HD
ENDBRANCH  15  22
ENDBRANCH   1  14
TORSDOF 10
ENDMDL
MODEL 9
REMARK VINA RESULT:      -4.7      2.352      6.023
REMARK  10 active torsions:
REMARK  status: ('A' for Active; 'I' for Inactive)
REMARK    1  A    between atoms: C_3  and  C_2 
REMARK    2  A    between atoms: C_5  and  C_2 
REMARK    3  A    between atoms: C_6  and  C_3 
REMARK    4  A    between atoms: C_7  and  C_4 
REMARK    5  A    between atoms: C_4  and  N_9 
REMARK    6  A    between atoms: C_8  and  C_5 
REMARK    7  A    between atoms: C_5  and  N_12 
REMARK    8  A    between atoms: O_14  and  C_6 
REMARK    9  A    between atoms: C_7  and  O_15 
REMARK   10  A    between atoms: O_17  and  C_8 
ROOT
HETATM    1  C   UNK N   1      29.781  17.752   8.163  0.00  0.00     0.181 C 
ENDROOT
BRANCH   1   2
HETATM    2  C   UNK N   1      28.887  17.157   7.068  0.00  0.00     0.044 C 
BRANCH   2   3
HETATM    3  C   UNK N   1      29.119  17.741   5.678  0.00  0.00     0.086 C 
BRANCH   3   4
HETATM    4  C   UNK N   1      28.128  18.834   5.428  0.00  0.00     0.108 C 
HETATM    5  N   UNK N   1      27.106  18.966   6.192  0.00  0.00    -0.384 N 
HETATM    6  H   UNK N   1      26.436  19.664   6.005  0.00  0.00     0.157 HD
ATOM      7  HN  UNK N   1      26.986  18.348   6.994  1.00  0.00     0.157 HD
BRANCH   4   8
HETATM    8  O   UNK N   1      28.303  19.679   4.396  0.00  0.00    -0.350 OA
HETATM    9  H   UNK N   1      28.975  20.331   4.432  0.00  0.00     0.219 HD
ENDBRANCH   4   8
ENDBRANCH   3   4
ENDBRANCH   2   3
ENDBRANCH   1   2
BRANCH   1  10
HETATM   10  C   UNK N   1      28.974  18.315   9.323  0.00  0.00     0.163 C 
HETATM   11  O   UNK N   1      29.541  18.806  10.284  0.00  0.00    -0.648 OA
BRANCH  10  12
HETATM   12  O   UNK N   1      27.625  18.325   9.284  0.00  0.00    -0.775 OA
HETATM   13  H   UNK N   1      27.084  19.087   9.210  0.00  0.00     0.167 HD
ENDBRANCH  10  12
ENDBRANCH   1  10
BRANCH   1  14
HETATM   14  N   UNK N   1      30.765  16.764   8.586  0.00  0.00    -0.358 N 
HETATM   15  C   UNK N   1      32.041  16.983   8.599  0.00  0.00     0.134 C 
ATOM     16  HN  UNK N   1      30.430  15.850   8.890  1.00  0.00     0.162 HD
BRANCH  15  17
HETATM   17  C   UNK N   1      33.010  15.894   8.984  0.00  0.00     0.145 C 
HETATM   18  C   UNK N   1      34.361  16.487   9.337  0.00  0.00     0.040 C 
BRANCH  17  19
HETATM   19  N   UNK N   1      32.520  15.117  10.112  0.00  0.00    -0.420 N 
HETATM   20  H   UNK N   1      31.993  14.255   9.979  0.00  0.00     0.150 HD
HETATM   21  H   UNK N   1      32.710  15.443  11.060  0.00  0.00     0.150 HD
ENDBRANCH  17  19
ENDBRANCH  15  17
BRANCH  15  22
HETATM   22  O   UNK N   1      32.538  18.180   8.214  0.00  0.00    -0.348 OA
HETATM   23  H   UNK N   1      33.264  18.257   7.628  0.00  0.00     0.219 HD
ENDBRANCH  15  22
ENDBRANCH   1  14
TORSDOF 10
ENDMDL
